TITL C-2441157-2117-74 0.0115454975206107 125000 -4374.99634349062 0 0 32 (C3i) n - 1
REM
REM in /home/bkarasulu/work/CARBON/AIRSS/Generating-Clusters/ReaxFF-fromJPCA2015/Units_Real/with-SteepDescent/Higher-Symm
REM
REM
REM
REM
REM
REM ./C.cell (1df0a924f5614ab8850e4351716899ee)
REM
REM compiler GCC version 9.2.1 20190827 (Red Hat 9.2.1-1)
REM options -cpp -mtune=generic -march=x86-64 -g -O0 -fpre-include=/usr/include/finclude/math-vector-fortran.h
REM seed -647242567 286916102 -1087526831 1666005982 -1970321438 -1084979954 -1082365876 1786046312 1551720943 -1709244159 -9914885 23732040 -1214329803 1638596299 603973970 -1880575808 619301428 -1578968869 1709375769 1463089322 1847569789 -1434265383 1742422313 1546119858 -1192162784 -532851177 -548730664 -265687904 -609158857 174863550 1392072491 -1918677703 -1775250109
REM
CELL 1.54180   50.00000   50.00000   50.00000   90.00000   90.00000   90.00000
LATT -1
SFAC C  
C      1  0.5381330000000  0.5343190000000  0.4845700000000 1.0
C      1  0.4943660000000  0.5342990000000  0.5399090000000 1.0
C      1  0.4683540000000  0.5343130000000  0.4744430000000 1.0
C      1  0.4624930000000  0.4671760000000  0.4845690000000 1.0
C      1  0.5061800000000  0.4671990000000  0.5399460000000 1.0
C      1  0.5322010000000  0.4672150000000  0.4743870000000 1.0
C      1  0.4624950000000  0.4672060000000  0.5146600000000 1.0
C      1  0.5061420000000  0.4671770000000  0.4593410000000 1.0
C      1  0.5322350000000  0.4672030000000  0.5248990000000 1.0
C      1  0.5381370000000  0.5342930000000  0.5146580000000 1.0
C      1  0.4944100000000  0.5343070000000  0.4593870000000 1.0
C      1  0.4683180000000  0.5343300000000  0.5248540000000 1.0
C      1  0.5260400000000  0.5612830000000  0.5144190000000 1.0
C      1  0.4746320000000  0.5613490000000  0.5145660000000 1.0
C      1  0.5002090000000  0.5613260000000  0.4699670000000 1.0
C      1  0.4745450000000  0.4401880000000  0.5144070000000 1.0
C      1  0.5259580000000  0.4402040000000  0.5145700000000 1.0
C      1  0.5003700000000  0.4401730000000  0.4699760000000 1.0
C      1  0.4745470000000  0.4401540000000  0.4848830000000 1.0
C      1  0.5259550000000  0.4402150000000  0.4847300000000 1.0
C      1  0.5003680000000  0.4402050000000  0.5293200000000 1.0
C      1  0.5260460000000  0.5613270000000  0.4848840000000 1.0
C      1  0.4746300000000  0.5613400000000  0.4847340000000 1.0
C      1  0.5002120000000  0.5612920000000  0.5293290000000 1.0
C      1  0.4702070000000  0.5203730000000  0.4996550000000 1.0
C      1  0.5302950000000  0.4810790000000  0.4996460000000 1.0
C      1  0.5152790000000  0.5204420000000  0.5255990000000 1.0
C      1  0.4852910000000  0.4810930000000  0.5256540000000 1.0
C      1  0.4852520000000  0.4811150000000  0.4735770000000 1.0
C      1  0.5153420000000  0.5204060000000  0.4736030000000 1.0
C      1  0.5002850000000  0.5154450000000  0.4996370000000 1.0
C      1  0.5002600000000  0.4860530000000  0.4996180000000 1.0
END
