TITL C-2441169-1362-1244 0.00639909607321131 125000 -8922.14952387364 0 0 63 (C1) n - 1
REM
REM in /home/bkarasulu/work/CARBON/AIRSS/Generating-Clusters/ReaxFF-fromJPCA2015/Units_Real/with-SteepDescent/Higher-Symm
REM
REM
REM
REM
REM
REM ./C.cell (1df0a924f5614ab8850e4351716899ee)
REM
REM compiler GCC version 9.2.1 20190827 (Red Hat 9.2.1-1)
REM options -cpp -mtune=generic -march=x86-64 -g -O0 -fpre-include=/usr/include/finclude/math-vector-fortran.h
REM seed -1238701368 -1850792324 -69830198 1076013292 1792851247 1440181811 911643172 -1945586137 1933369269 -483340916 40568649 -2087686311 -950426864 -898641949 45955267 -2068148258 -1952431509 -1559864687 -473691350 -1204542677 -1708445460 199035270 1101113134 -1005752599 -742879015 -1319168963 1007991156 -2077784174 -107204641 1949110208 -278435675 249921933 1824266836
REM
CELL 1.54180   50.00000   50.00000   50.00000   90.00000   90.00000   90.00000
LATT -1
SFAC C  
C      1  0.5528130000000  0.5384170000000  0.4832170000000 1.0
C      1  0.5489840000000  0.4661950000000  0.4717600000000 1.0
C      1  0.5554600000000  0.4935990000000  0.5509140000000 1.0
C      1  0.5101280000000  0.5029060000000  0.5139290000000 1.0
C      1  0.5040660000000  0.5164310000000  0.4901500000000 1.0
C      1  0.5083300000000  0.4888290000000  0.4916530000000 1.0
C      1  0.4372350000000  0.5326870000000  0.4866670000000 1.0
C      1  0.4264490000000  0.4708610000000  0.4805460000000 1.0
C      1  0.4283050000000  0.5032750000000  0.5361310000000 1.0
C      1  0.5329400000000  0.4760090000000  0.5579950000000 1.0
C      1  0.5304720000000  0.5550270000000  0.4922950000000 1.0
C      1  0.5325170000000  0.4626260000000  0.4498420000000 1.0
C      1  0.5136950000000  0.5658760000000  0.4714800000000 1.0
C      1  0.5137520000000  0.4388830000000  0.4529860000000 1.0
C      1  0.5129640000000  0.4878290000000  0.5758170000000 1.0
C      1  0.4823520000000  0.5345710000000  0.4875930000000 1.0
C      1  0.5002340000000  0.4628210000000  0.4872610000000 1.0
C      1  0.4983620000000  0.5042830000000  0.5389260000000 1.0
C      1  0.5157930000000  0.5222380000000  0.5524350000000 1.0
C      1  0.5234700000000  0.5324490000000  0.4364270000000 1.0
C      1  0.5200290000000  0.4432070000000  0.4949190000000 1.0
C      1  0.4897330000000  0.4845800000000  0.5586310000000 1.0
C      1  0.4858100000000  0.5627290000000  0.4793400000000 1.0
C      1  0.4910320000000  0.4532630000000  0.4620600000000 1.0
C      1  0.5145650000000  0.4198420000000  0.4757690000000 1.0
C      1  0.5127190000000  0.5173400000000  0.5820250000000 1.0
C      1  0.5109860000000  0.5559620000000  0.4428150000000 1.0
C      1  0.5220880000000  0.4888100000000  0.4374150000000 1.0
C      1  0.5254470000000  0.4527690000000  0.5402020000000 1.0
C      1  0.5210080000000  0.5560060000000  0.5206530000000 1.0
C      1  0.4381030000000  0.4820770000000  0.5336060000000 1.0
C      1  0.4584290000000  0.5355520000000  0.5043860000000 1.0
C      1  0.4511340000000  0.4764580000000  0.4716910000000 1.0
C      1  0.4417150000000  0.5208840000000  0.5485640000000 1.0
C      1  0.4470250000000  0.5337450000000  0.4636980000000 1.0
C      1  0.4459980000000  0.4510960000000  0.4864700000000 1.0
C      1  0.5697110000000  0.4893150000000  0.4992450000000 1.0
C      1  0.5721280000000  0.4976920000000  0.5273840000000 1.0
C      1  0.5676340000000  0.5140440000000  0.4845370000000 1.0
C      1  0.4660340000000  0.4668530000000  0.4193910000000 1.0
C      1  0.4794160000000  0.4584220000000  0.5502000000000 1.0
C      1  0.4692930000000  0.5823000000000  0.4968600000000 1.0
C      1  0.4539950000000  0.4586210000000  0.5341060000000 1.0
C      1  0.4686250000000  0.5624580000000  0.5187930000000 1.0
C      1  0.4732430000000  0.4727810000000  0.4465640000000 1.0
C      1  0.5413150000000  0.5120490000000  0.4385270000000 1.0
C      1  0.5398690000000  0.4472250000000  0.5159930000000 1.0
C      1  0.5362050000000  0.5389120000000  0.5387680000000 1.0
C      1  0.4983400000000  0.4409160000000  0.5384200000000 1.0
C      1  0.4944670000000  0.5609020000000  0.5326480000000 1.0
C      1  0.4942520000000  0.4941150000000  0.4331310000000 1.0
C      1  0.4945500000000  0.4125080000000  0.4943060000000 1.0
C      1  0.4924600000000  0.5373790000000  0.5821010000000 1.0
C      1  0.4853850000000  0.5469900000000  0.4292910000000 1.0
C      1  0.4593070000000  0.5352340000000  0.4385180000000 1.0
C      1  0.4576730000000  0.4409160000000  0.5117540000000 1.0
C      1  0.4593360000000  0.5364400000000  0.5603660000000 1.0
C      1  0.4806460000000  0.5187070000000  0.4250500000000 1.0
C      1  0.4826480000000  0.4258160000000  0.5165890000000 1.0
C      1  0.4823680000000  0.5533250000000  0.5603760000000 1.0
C      1  0.5587280000000  0.4620310000000  0.4969040000000 1.0
C      1  0.5593580000000  0.5211550000000  0.5393590000000 1.0
C      1  0.5588720000000  0.5227610000000  0.4605540000000 1.0
END
