TITL C-2441163-1170-643 0.02257486644868 125000 -7918.63483151725 0 0 57 (C1) n - 1
REM
REM in /home/bkarasulu/work/CARBON/AIRSS/Generating-Clusters/ReaxFF-fromJPCA2015/Units_Real/with-SteepDescent/Higher-Symm
REM
REM
REM
REM
REM
REM ./C.cell (1df0a924f5614ab8850e4351716899ee)
REM
REM compiler GCC version 9.2.1 20190827 (Red Hat 9.2.1-1)
REM options -cpp -mtune=generic -march=x86-64 -g -O0 -fpre-include=/usr/include/finclude/math-vector-fortran.h
REM seed -89402688 1980635077 597356561 -1192504698 1473089011 247722984 2099439292 374591600 -273413175 -845186487 -1259002862 -846736809 822471321 -49070004 -960253068 143022959 404806139 427071622 1189331155 -1630457790 944870213 2110422988 200000077 -568022129 1380408517 1672644802 1609766129 -601462872 341756780 -1933892299 1746773095 -1146786391 -1534066704
REM
CELL 1.54180   50.00000   50.00000   50.00000   90.00000   90.00000   90.00000
LATT -1
SFAC C  
C      1  0.4783600000000  0.4386010000000  0.5322570000000 1.0
C      1  0.4369150000000  0.5229270000000  0.5335110000000 1.0
C      1  0.5219010000000  0.5614630000000  0.5312080000000 1.0
C      1  0.5605970000000  0.4813480000000  0.5294550000000 1.0
C      1  0.4783040000000  0.4385140000000  0.4673070000000 1.0
C      1  0.4363990000000  0.5230390000000  0.4659940000000 1.0
C      1  0.5220050000000  0.5616640000000  0.4685620000000 1.0
C      1  0.5612410000000  0.4798680000000  0.4694550000000 1.0
C      1  0.5030060000000  0.4719090000000  0.4856930000000 1.0
C      1  0.4670220000000  0.5101680000000  0.4863490000000 1.0
C      1  0.5066110000000  0.5273040000000  0.4867600000000 1.0
C      1  0.5243500000000  0.4927670000000  0.4863630000000 1.0
C      1  0.5006910000000  0.4720780000000  0.5139160000000 1.0
C      1  0.4681450000000  0.5088510000000  0.5130630000000 1.0
C      1  0.5110840000000  0.5260660000000  0.5142150000000 1.0
C      1  0.5201560000000  0.4958120000000  0.5158860000000 1.0
C      1  0.4960890000000  0.5533110000000  0.5180640000000 1.0
C      1  0.5599360000000  0.5074510000000  0.5157590000000 1.0
C      1  0.5058010000000  0.4452430000000  0.5237830000000 1.0
C      1  0.4442410000000  0.4961920000000  0.5233440000000 1.0
C      1  0.4959060000000  0.5549090000000  0.4822800000000 1.0
C      1  0.5560040000000  0.5058020000000  0.4842230000000 1.0
C      1  0.5058930000000  0.4448260000000  0.4755920000000 1.0
C      1  0.4440070000000  0.4961230000000  0.4759740000000 1.0
C      1  0.5120930000000  0.5181600000000  0.5594460000000 1.0
C      1  0.5180000000000  0.4888900000000  0.5605590000000 1.0
C      1  0.4887320000000  0.4830740000000  0.5582150000000 1.0
C      1  0.4828590000000  0.5121420000000  0.5579440000000 1.0
C      1  0.5119550000000  0.5179560000000  0.4402780000000 1.0
C      1  0.5180170000000  0.4889060000000  0.4396360000000 1.0
C      1  0.4887390000000  0.4828940000000  0.4415200000000 1.0
C      1  0.4827980000000  0.5119970000000  0.4416320000000 1.0
C      1  0.5557090000000  0.4553300000000  0.4848350000000 1.0
C      1  0.4550910000000  0.4453430000000  0.4849360000000 1.0
C      1  0.4440920000000  0.5457180000000  0.4849890000000 1.0
C      1  0.5464210000000  0.5570020000000  0.4849880000000 1.0
C      1  0.5553560000000  0.4559840000000  0.5145740000000 1.0
C      1  0.4552250000000  0.4454520000000  0.5144930000000 1.0
C      1  0.4440640000000  0.5459380000000  0.5150120000000 1.0
C      1  0.5463110000000  0.5571540000000  0.5148390000000 1.0
C      1  0.4682120000000  0.5507630000000  0.5308550000000 1.0
C      1  0.5519550000000  0.5322970000000  0.5297870000000 1.0
C      1  0.5336670000000  0.4489630000000  0.5336320000000 1.0
C      1  0.4486120000000  0.4683550000000  0.5322810000000 1.0
C      1  0.4677060000000  0.5506780000000  0.4689030000000 1.0
C      1  0.5515730000000  0.5325500000000  0.4695070000000 1.0
C      1  0.5335800000000  0.4486790000000  0.4658030000000 1.0
C      1  0.4485130000000  0.4683120000000  0.4671440000000 1.0
C      1  0.4605450000000  0.5301930000000  0.5505100000000 1.0
C      1  0.5296400000000  0.5393170000000  0.5489730000000 1.0
C      1  0.5403470000000  0.4727190000000  0.5500930000000 1.0
C      1  0.4708820000000  0.4607550000000  0.5504740000000 1.0
C      1  0.4605590000000  0.5300280000000  0.4495190000000 1.0
C      1  0.5296710000000  0.5394060000000  0.4506440000000 1.0
C      1  0.5407010000000  0.4724820000000  0.4493650000000 1.0
C      1  0.4708550000000  0.4605840000000  0.4490180000000 1.0
C      1  0.4886930000000  0.5057550000000  0.4953590000000 1.0
END
