TITL C-2441158-471-1161 0.00259747550890039 125000 -15560.9536549955 0 0 105 (C1) n - 1
REM
REM in /home/bkarasulu/work/CARBON/AIRSS/Generating-Clusters/ReaxFF-fromJPCA2015/Units_Real/with-SteepDescent/Higher-Symm
REM
REM
REM
REM
REM
REM ./C.cell (1df0a924f5614ab8850e4351716899ee)
REM
REM compiler GCC version 9.2.1 20190827 (Red Hat 9.2.1-1)
REM options -cpp -mtune=generic -march=x86-64 -g -O0 -fpre-include=/usr/include/finclude/math-vector-fortran.h
REM seed -1741130463 -150777238 1813031484 -1585994782 -545729067 -142173859 -799954271 -261061637 -1923047537 378273654 -1600537520 526867419 634452092 -1805117666 1584305667 722394064 -2004989316 -502261907 -71459305 -1698527869 -1764267736 958547719 1338388477 428238882 689358801 825858640 67161961 782409313 -246954861 853248525 -1228857403 1528678575 -1101569886
REM
CELL 1.54180   50.00000   50.00000   50.00000   90.00000   90.00000   90.00000
LATT -1
SFAC C  
C      1  0.5299600000000  0.4335500000000  0.4834890000000 1.0
C      1  0.4276140000000  0.5078150000000  0.4847670000000 1.0
C      1  0.5413420000000  0.5597330000000  0.4827730000000 1.0
C      1  0.5296810000000  0.4330850000000  0.5165390000000 1.0
C      1  0.4265690000000  0.5088140000000  0.5191240000000 1.0
C      1  0.5392280000000  0.5585810000000  0.5139860000000 1.0
C      1  0.4702530000000  0.4325660000000  0.4834550000000 1.0
C      1  0.5736430000000  0.5088260000000  0.4818160000000 1.0
C      1  0.4601380000000  0.5593410000000  0.4859710000000 1.0
C      1  0.4700570000000  0.4331170000000  0.5166880000000 1.0
C      1  0.5716140000000  0.5075560000000  0.5155170000000 1.0
C      1  0.4576730000000  0.5613700000000  0.5154850000000 1.0
C      1  0.4749760000000  0.4374280000000  0.4275400000000 1.0
C      1  0.4594850000000  0.5401360000000  0.4337880000000 1.0
C      1  0.5680740000000  0.5105610000000  0.4270820000000 1.0
C      1  0.4743180000000  0.4374550000000  0.5722280000000 1.0
C      1  0.4562450000000  0.5435500000000  0.5707830000000 1.0
C      1  0.5671440000000  0.5095330000000  0.5711370000000 1.0
C      1  0.5253520000000  0.4384640000000  0.4280710000000 1.0
C      1  0.5451860000000  0.5454020000000  0.4267870000000 1.0
C      1  0.4324100000000  0.5093840000000  0.4291220000000 1.0
C      1  0.5246230000000  0.4370210000000  0.5721270000000 1.0
C      1  0.5411790000000  0.5414800000000  0.5670260000000 1.0
C      1  0.4316450000000  0.5100540000000  0.5724140000000 1.0
C      1  0.4740620000000  0.4693880000000  0.4518340000000 1.0
C      1  0.4805310000000  0.5391320000000  0.4522770000000 1.0
C      1  0.5425400000000  0.4913210000000  0.4531540000000 1.0
C      1  0.4722500000000  0.4695510000000  0.5479020000000 1.0
C      1  0.4787460000000  0.5402960000000  0.5546810000000 1.0
C      1  0.5406450000000  0.4904060000000  0.5436700000000 1.0
C      1  0.5274860000000  0.4700780000000  0.4530700000000 1.0
C      1  0.5244930000000  0.5421840000000  0.4453430000000 1.0
C      1  0.4586840000000  0.4900330000000  0.4559900000000 1.0
C      1  0.5256300000000  0.4689580000000  0.5476660000000 1.0
C      1  0.5194700000000  0.5395830000000  0.5489930000000 1.0
C      1  0.4567540000000  0.4904820000000  0.5471620000000 1.0
C      1  0.5775890000000  0.4392120000000  0.5149030000000 1.0
C      1  0.4071740000000  0.4642150000000  0.5160620000000 1.0
C      1  0.5147590000000  0.6012340000000  0.5141470000000 1.0
C      1  0.5777630000000  0.4387510000000  0.4845230000000 1.0
C      1  0.4069680000000  0.4644500000000  0.4855930000000 1.0
C      1  0.5143390000000  0.6008510000000  0.4844550000000 1.0
C      1  0.4223120000000  0.4387300000000  0.5154700000000 1.0
C      1  0.5930380000000  0.4644220000000  0.5145060000000 1.0
C      1  0.4856080000000  0.6006520000000  0.5137370000000 1.0
C      1  0.4225640000000  0.4393400000000  0.4850970000000 1.0
C      1  0.5926770000000  0.4643230000000  0.4840040000000 1.0
C      1  0.4859140000000  0.6007030000000  0.4854080000000 1.0
C      1  0.5850970000000  0.5347980000000  0.5154580000000 1.0
C      1  0.4853470000000  0.4069790000000  0.5147420000000 1.0
C      1  0.4276540000000  0.5612920000000  0.5140950000000 1.0
C      1  0.5879940000000  0.5363890000000  0.4862950000000 1.0
C      1  0.4854640000000  0.4064160000000  0.4852650000000 1.0
C      1  0.4304950000000  0.5596920000000  0.4851180000000 1.0
C      1  0.4127900000000  0.5363370000000  0.5138690000000 1.0
C      1  0.5146310000000  0.4067390000000  0.5147750000000 1.0
C      1  0.5689690000000  0.5593770000000  0.5148510000000 1.0
C      1  0.4145700000000  0.5350890000000  0.4847520000000 1.0
C      1  0.5147470000000  0.4072500000000  0.4853590000000 1.0
C      1  0.5732110000000  0.5610950000000  0.4862710000000 1.0
C      1  0.4833520000000  0.4645960000000  0.5213390000000 1.0
C      1  0.4722600000000  0.5311800000000  0.5254680000000 1.0
C      1  0.5381370000000  0.5024960000000  0.5187860000000 1.0
C      1  0.4860300000000  0.4626800000000  0.4777770000000 1.0
C      1  0.4786730000000  0.5301600000000  0.4813180000000 1.0
C      1  0.5429590000000  0.5076830000000  0.4754810000000 1.0
C      1  0.5142060000000  0.4633800000000  0.5218910000000 1.0
C      1  0.5213290000000  0.5308290000000  0.5195900000000 1.0
C      1  0.4560160000000  0.5061260000000  0.5248170000000 1.0
C      1  0.5168770000000  0.4650570000000  0.4793740000000 1.0
C      1  0.5326120000000  0.5339080000000  0.4709170000000 1.0
C      1  0.4609860000000  0.5024350000000  0.4810120000000 1.0
C      1  0.5547930000000  0.4345840000000  0.4674030000000 1.0
C      1  0.4149200000000  0.4866480000000  0.4688780000000 1.0
C      1  0.5275860000000  0.5812220000000  0.4683060000000 1.0
C      1  0.5547760000000  0.4347670000000  0.5322390000000 1.0
C      1  0.4139830000000  0.4857670000000  0.5338150000000 1.0
C      1  0.5265880000000  0.5795750000000  0.5294890000000 1.0
C      1  0.4453240000000  0.4349020000000  0.4676980000000 1.0
C      1  0.5854700000000  0.4860490000000  0.4665390000000 1.0
C      1  0.4740460000000  0.5798890000000  0.4705740000000 1.0
C      1  0.4451800000000  0.4342440000000  0.5326360000000 1.0
C      1  0.5848340000000  0.4864770000000  0.5312540000000 1.0
C      1  0.4725390000000  0.5813020000000  0.5298740000000 1.0
C      1  0.5169750000000  0.5688910000000  0.4446960000000 1.0
C      1  0.5473470000000  0.4496070000000  0.4427370000000 1.0
C      1  0.4326350000000  0.4849970000000  0.4446310000000 1.0
C      1  0.5135930000000  0.5670830000000  0.5514890000000 1.0
C      1  0.5460330000000  0.4488170000000  0.5571570000000 1.0
C      1  0.4308160000000  0.4844640000000  0.5583400000000 1.0
C      1  0.4874570000000  0.5673360000000  0.4481000000000 1.0
C      1  0.4536140000000  0.4492030000000  0.4426920000000 1.0
C      1  0.5684070000000  0.4854650000000  0.4419610000000 1.0
C      1  0.4844210000000  0.5690970000000  0.5536040000000 1.0
C      1  0.4524590000000  0.4489620000000  0.5576130000000 1.0
C      1  0.5669830000000  0.4852460000000  0.5554830000000 1.0
C      1  0.5647800000000  0.5331870000000  0.4164460000000 1.0
C      1  0.5612430000000  0.5317410000000  0.5793220000000 1.0
C      1  0.5002390000000  0.4348850000000  0.4243330000000 1.0
C      1  0.4387490000000  0.5307550000000  0.4214910000000 1.0
C      1  0.4994530000000  0.4340860000000  0.5756560000000 1.0
C      1  0.4359400000000  0.5327690000000  0.5813840000000 1.0
C      1  0.4736450000000  0.4806990000000  0.4979490000000 1.0
C      1  0.5254840000000  0.4816120000000  0.5020620000000 1.0
C      1  0.4948830000000  0.5305710000000  0.5060980000000 1.0
END
