TITL C-2441157-2117-812 0.0284325397300682 125000 -12098.2039850237 0 0 87 (C1) n - 1
REM
REM in /home/bkarasulu/work/CARBON/AIRSS/Generating-Clusters/ReaxFF-fromJPCA2015/Units_Real/with-SteepDescent/Higher-Symm
REM
REM
REM
REM
REM
REM ./C.cell (1df0a924f5614ab8850e4351716899ee)
REM
REM compiler GCC version 9.2.1 20190827 (Red Hat 9.2.1-1)
REM options -cpp -mtune=generic -march=x86-64 -g -O0 -fpre-include=/usr/include/finclude/math-vector-fortran.h
REM seed -768014928 940189283 385015998 1921984676 -1552376584 -504835434 1106400173 -614649483 -596877554 1458912237 -2022934466 691574425 1361313555 1307513762 -940879825 752431512 8237599 244731702 -776668782 1321812392 -531679996 -1292034415 1695249916 2025928131 -2136113032 -61956877 -1028199218 -2028993945 -1258901423 -1663407665 2137778843 -1960188024 -1153261439
REM
CELL 1.54180   50.00000   50.00000   50.00000   90.00000   90.00000   90.00000
LATT -1
SFAC C  
C      1  0.4444930000000  0.4470830000000  0.5003470000000 1.0
C      1  0.5580270000000  0.4405750000000  0.5039940000000 1.0
C      1  0.4719140000000  0.4880100000000  0.4250110000000 1.0
C      1  0.5285150000000  0.4885560000000  0.4220850000000 1.0
C      1  0.5348720000000  0.5025900000000  0.5743020000000 1.0
C      1  0.4480760000000  0.4929430000000  0.5770010000000 1.0
C      1  0.4868430000000  0.4540810000000  0.5042910000000 1.0
C      1  0.5144360000000  0.4490960000000  0.5063880000000 1.0
C      1  0.5618290000000  0.5122140000000  0.4946390000000 1.0
C      1  0.4348660000000  0.5219540000000  0.4893940000000 1.0
C      1  0.4620660000000  0.5334510000000  0.4927950000000 1.0
C      1  0.5323090000000  0.5208320000000  0.5004530000000 1.0
C      1  0.5150630000000  0.5189940000000  0.5857580000000 1.0
C      1  0.4881080000000  0.5119510000000  0.5812790000000 1.0
C      1  0.4863290000000  0.4422800000000  0.5475430000000 1.0
C      1  0.5145910000000  0.4376110000000  0.5481690000000 1.0
C      1  0.5128690000000  0.4204000000000  0.5009230000000 1.0
C      1  0.4853020000000  0.4223160000000  0.5006150000000 1.0
C      1  0.5099680000000  0.5639260000000  0.5357550000000 1.0
C      1  0.4877080000000  0.5442510000000  0.5280570000000 1.0
C      1  0.5587590000000  0.5141470000000  0.4435700000000 1.0
C      1  0.4409840000000  0.5148680000000  0.4437680000000 1.0
C      1  0.5628990000000  0.5624640000000  0.5001170000000 1.0
C      1  0.4336800000000  0.5659130000000  0.5005420000000 1.0
C      1  0.5350750000000  0.4534430000000  0.5627780000000 1.0
C      1  0.4714010000000  0.4608950000000  0.5637650000000 1.0
C      1  0.4847080000000  0.4792180000000  0.5258240000000 1.0
C      1  0.5155910000000  0.4805000000000  0.5305810000000 1.0
C      1  0.4709340000000  0.5588740000000  0.4830160000000 1.0
C      1  0.4996280000000  0.5577280000000  0.4758590000000 1.0
C      1  0.4848870000000  0.4637010000000  0.4160740000000 1.0
C      1  0.5144520000000  0.4632790000000  0.4169580000000 1.0
C      1  0.4326510000000  0.5110310000000  0.5398780000000 1.0
C      1  0.5721760000000  0.5073250000000  0.5234520000000 1.0
C      1  0.4758900000000  0.4852060000000  0.5809740000000 1.0
C      1  0.5223560000000  0.4800920000000  0.5598820000000 1.0
C      1  0.4434720000000  0.4875990000000  0.4319970000000 1.0
C      1  0.5574470000000  0.4896860000000  0.4270220000000 1.0
C      1  0.5276110000000  0.5434330000000  0.5768780000000 1.0
C      1  0.4698310000000  0.5325830000000  0.5737370000000 1.0
C      1  0.4796210000000  0.5595610000000  0.5664740000000 1.0
C      1  0.5088990000000  0.5627130000000  0.5656250000000 1.0
C      1  0.5588850000000  0.4641330000000  0.5505840000000 1.0
C      1  0.4432100000000  0.4698660000000  0.5596500000000 1.0
C      1  0.5155000000000  0.4990950000000  0.4462320000000 1.0
C      1  0.4860350000000  0.5028030000000  0.4465450000000 1.0
C      1  0.5181550000000  0.5082650000000  0.5214280000000 1.0
C      1  0.4911730000000  0.5153800000000  0.5228130000000 1.0
C      1  0.4844490000000  0.5433510000000  0.4313550000000 1.0
C      1  0.5138290000000  0.5439890000000  0.4304240000000 1.0
C      1  0.5795240000000  0.4591760000000  0.5112140000000 1.0
C      1  0.4330810000000  0.4654560000000  0.5139030000000 1.0
C      1  0.4815570000000  0.4433720000000  0.4581010000000 1.0
C      1  0.5082670000000  0.4537100000000  0.4619160000000 1.0
C      1  0.4328660000000  0.5035080000000  0.4678030000000 1.0
C      1  0.5643890000000  0.4977400000000  0.4670710000000 1.0
C      1  0.5370800000000  0.5657950000000  0.5298710000000 1.0
C      1  0.4676190000000  0.5612020000000  0.5394130000000 1.0
C      1  0.4706570000000  0.4428360000000  0.4316190000000 1.0
C      1  0.5248150000000  0.4466690000000  0.4387630000000 1.0
C      1  0.4292780000000  0.5354070000000  0.5282100000000 1.0
C      1  0.5661860000000  0.5290380000000  0.5409800000000 1.0
C      1  0.5412660000000  0.5391410000000  0.4410270000000 1.0
C      1  0.4577670000000  0.5402860000000  0.4419990000000 1.0
C      1  0.4491190000000  0.5594350000000  0.4623080000000 1.0
C      1  0.5537640000000  0.5509800000000  0.4628130000000 1.0
C      1  0.5488930000000  0.5264610000000  0.5639770000000 1.0
C      1  0.4443500000000  0.5199960000000  0.5656710000000 1.0
C      1  0.5107450000000  0.5347720000000  0.4886990000000 1.0
C      1  0.4856700000000  0.5178820000000  0.4942930000000 1.0
C      1  0.4674510000000  0.4360620000000  0.5190970000000 1.0
C      1  0.5304170000000  0.4311340000000  0.5213710000000 1.0
C      1  0.5546680000000  0.4428290000000  0.4772610000000 1.0
C      1  0.4517830000000  0.4512730000000  0.4697780000000 1.0
C      1  0.4285250000000  0.4801480000000  0.5360470000000 1.0
C      1  0.5762790000000  0.4794060000000  0.5340580000000 1.0
C      1  0.4345040000000  0.4684410000000  0.4520820000000 1.0
C      1  0.5667750000000  0.4732850000000  0.4504680000000 1.0
C      1  0.4860680000000  0.4938050000000  0.4746960000000 1.0
C      1  0.5122860000000  0.4820500000000  0.4709460000000 1.0
C      1  0.4433910000000  0.4436730000000  0.4430770000000 1.0
C      1  0.5523530000000  0.4469530000000  0.4500290000000 1.0
C      1  0.4265530000000  0.5497270000000  0.4788790000000 1.0
C      1  0.5704530000000  0.5417390000000  0.4832040000000 1.0
C      1  0.5637110000000  0.5580840000000  0.5284460000000 1.0
C      1  0.4386380000000  0.5623400000000  0.5286540000000 1.0
C      1  0.5004640000000  0.5602880000000  0.4473790000000 1.0
END
