TITL C-2441167-4473-924 0.0347381099303018 125000 -13431.4486375027 0 0 97 (C1) n - 1
REM
REM in /home/bkarasulu/work/CARBON/AIRSS/Generating-Clusters/ReaxFF-fromJPCA2015/Units_Real/with-SteepDescent/Higher-Symm
REM
REM
REM
REM
REM
REM ./C.cell (1df0a924f5614ab8850e4351716899ee)
REM
REM compiler GCC version 9.2.1 20190827 (Red Hat 9.2.1-1)
REM options -cpp -mtune=generic -march=x86-64 -g -O0 -fpre-include=/usr/include/finclude/math-vector-fortran.h
REM seed -865019471 2031910043 -598015067 -730479069 -4762104 -126944695 1691609162 -1541173014 -960815043 1087954956 1951865806 1651829802 1253044938 -1481442242 1828089075 1128795737 -1584055428 -1983487612 1962886608 1914132154 1519519863 -56061744 2123275023 1104851714 1303965160 166356330 1480768012 246348588 -2093645747 2077957517 84161290 -2039830579 -1335802991
REM
CELL 1.54180   50.00000   50.00000   50.00000   90.00000   90.00000   90.00000
LATT -1
SFAC C  
C      1  0.4786620000000  0.5280500000000  0.4836920000000 1.0
C      1  0.5271570000000  0.5223590000000  0.4834140000000 1.0
C      1  0.5005010000000  0.5265180000000  0.5275860000000 1.0
C      1  0.5440250000000  0.5617790000000  0.4658090000000 1.0
C      1  0.5073520000000  0.5653600000000  0.5563740000000 1.0
C      1  0.4485580000000  0.5633880000000  0.4831850000000 1.0
C      1  0.5534450000000  0.5152770000000  0.5184510000000 1.0
C      1  0.4569930000000  0.5160600000000  0.5256870000000 1.0
C      1  0.4830420000000  0.5179410000000  0.4372140000000 1.0
C      1  0.4752420000000  0.5715390000000  0.4929430000000 1.0
C      1  0.5239840000000  0.5761950000000  0.4839960000000 1.0
C      1  0.5028050000000  0.5801570000000  0.5311120000000 1.0
C      1  0.5524620000000  0.4432940000000  0.5038470000000 1.0
C      1  0.4703040000000  0.4438560000000  0.5467190000000 1.0
C      1  0.4796270000000  0.4443320000000  0.4527340000000 1.0
C      1  0.5536950000000  0.5351560000000  0.4715160000000 1.0
C      1  0.4952420000000  0.5391630000000  0.5561440000000 1.0
C      1  0.4528430000000  0.5394590000000  0.4675770000000 1.0
C      1  0.4438170000000  0.4366260000000  0.5001850000000 1.0
C      1  0.5310370000000  0.4325450000000  0.4525780000000 1.0
C      1  0.5284910000000  0.4363790000000  0.5491760000000 1.0
C      1  0.5121960000000  0.4666250000000  0.4108470000000 1.0
C      1  0.5737980000000  0.4708760000000  0.5475820000000 1.0
C      1  0.4248380000000  0.4771410000000  0.5367410000000 1.0
C      1  0.4347620000000  0.4732690000000  0.4614180000000 1.0
C      1  0.5695700000000  0.4667560000000  0.4716870000000 1.0
C      1  0.4919520000000  0.4707500000000  0.5713410000000 1.0
C      1  0.5735690000000  0.5547660000000  0.5253980000000 1.0
C      1  0.4436900000000  0.5435400000000  0.5539680000000 1.0
C      1  0.4837530000000  0.5482170000000  0.4319150000000 1.0
C      1  0.4543180000000  0.5108170000000  0.4380680000000 1.0
C      1  0.5802600000000  0.5067650000000  0.5091170000000 1.0
C      1  0.4512470000000  0.5150540000000  0.5677220000000 1.0
C      1  0.5303830000000  0.4237720000000  0.5007340000000 1.0
C      1  0.4859610000000  0.4269500000000  0.5266660000000 1.0
C      1  0.4866090000000  0.4265250000000  0.4758060000000 1.0
C      1  0.5365620000000  0.4883030000000  0.4157770000000 1.0
C      1  0.5596890000000  0.4825420000000  0.5691520000000 1.0
C      1  0.4212870000000  0.4872260000000  0.5110730000000 1.0
C      1  0.5362770000000  0.4914820000000  0.5226590000000 1.0
C      1  0.4661730000000  0.4901620000000  0.5187810000000 1.0
C      1  0.5056310000000  0.4940340000000  0.4494100000000 1.0
C      1  0.5019840000000  0.4697870000000  0.5254710000000 1.0
C      1  0.4763230000000  0.4688510000000  0.4853190000000 1.0
C      1  0.5258750000000  0.4713690000000  0.4837570000000 1.0
C      1  0.5431040000000  0.4624320000000  0.5230050000000 1.0
C      1  0.4605110000000  0.4621740000000  0.5259350000000 1.0
C      1  0.5013050000000  0.4632180000000  0.4493230000000 1.0
C      1  0.4712570000000  0.4252490000000  0.5014710000000 1.0
C      1  0.5160650000000  0.4215380000000  0.4753720000000 1.0
C      1  0.5151000000000  0.4235060000000  0.5260320000000 1.0
C      1  0.4792910000000  0.4959400000000  0.4934870000000 1.0
C      1  0.5110930000000  0.4963090000000  0.4787710000000 1.0
C      1  0.5105250000000  0.4971400000000  0.5265770000000 1.0
C      1  0.5434960000000  0.5328950000000  0.5603000000000 1.0
C      1  0.4186790000000  0.5379720000000  0.5108590000000 1.0
C      1  0.5263590000000  0.5341610000000  0.4271390000000 1.0
C      1  0.5215990000000  0.5359200000000  0.5088160000000 1.0
C      1  0.4745000000000  0.5348930000000  0.5124300000000 1.0
C      1  0.5064120000000  0.5402330000000  0.4846820000000 1.0
C      1  0.4338950000000  0.5211440000000  0.4559010000000 1.0
C      1  0.5744390000000  0.5167290000000  0.4802810000000 1.0
C      1  0.4795040000000  0.5213350000000  0.5733030000000 1.0
C      1  0.5818180000000  0.4792600000000  0.5191370000000 1.0
C      1  0.4445490000000  0.4875660000000  0.5592660000000 1.0
C      1  0.4836110000000  0.4705270000000  0.4136020000000 1.0
C      1  0.4350540000000  0.5614670000000  0.5093580000000 1.0
C      1  0.5273480000000  0.5590430000000  0.4422820000000 1.0
C      1  0.5359240000000  0.5597290000000  0.5545850000000 1.0
C      1  0.4330810000000  0.4509330000000  0.5244630000000 1.0
C      1  0.5156840000000  0.4455520000000  0.4314830000000 1.0
C      1  0.5550970000000  0.4480710000000  0.5450050000000 1.0
C      1  0.5262300000000  0.5802270000000  0.5132340000000 1.0
C      1  0.4754720000000  0.5770760000000  0.5220850000000 1.0
C      1  0.4965890000000  0.5778810000000  0.4731770000000 1.0
C      1  0.4512820000000  0.5645150000000  0.5342010000000 1.0
C      1  0.4994440000000  0.5679710000000  0.4460040000000 1.0
C      1  0.5489400000000  0.5710580000000  0.5296830000000 1.0
C      1  0.4999410000000  0.5310940000000  0.4189150000000 1.0
C      1  0.5658950000000  0.5300070000000  0.5414940000000 1.0
C      1  0.4288090000000  0.5271150000000  0.5355230000000 1.0
C      1  0.4499240000000  0.4575720000000  0.4810720000000 1.0
C      1  0.5424890000000  0.4572680000000  0.4634400000000 1.0
C      1  0.5097080000000  0.4583280000000  0.5510940000000 1.0
C      1  0.4987420000000  0.4996910000000  0.5715050000000 1.0
C      1  0.4533920000000  0.4844350000000  0.4461710000000 1.0
C      1  0.5596740000000  0.4934180000000  0.4738040000000 1.0
C      1  0.4635140000000  0.4614860000000  0.4346200000000 1.0
C      1  0.5770910000000  0.4584260000000  0.4991260000000 1.0
C      1  0.4636920000000  0.4659630000000  0.5657960000000 1.0
C      1  0.4212750000000  0.4987780000000  0.4706710000000 1.0
C      1  0.5616980000000  0.4879210000000  0.4254280000000 1.0
C      1  0.5443240000000  0.4923340000000  0.5856870000000 1.0
C      1  0.5309320000000  0.5071970000000  0.4385470000000 1.0
C      1  0.5272400000000  0.5091140000000  0.5706140000000 1.0
C      1  0.4216090000000  0.5107480000000  0.4971040000000 1.0
C      1  0.5017270000000  0.4591930000000  0.4972420000000 1.0
END
