TITL C-2441157-2117-913 0.0911446110731218 125000 -17087.8834696408 0 0 132 (C1) n - 1
REM
REM in /home/bkarasulu/work/CARBON/AIRSS/Generating-Clusters/ReaxFF-fromJPCA2015/Units_Real/with-SteepDescent/Higher-Symm
REM
REM
REM
REM
REM
REM ./C.cell (1df0a924f5614ab8850e4351716899ee)
REM
REM compiler GCC version 9.2.1 20190827 (Red Hat 9.2.1-1)
REM options -cpp -mtune=generic -march=x86-64 -g -O0 -fpre-include=/usr/include/finclude/math-vector-fortran.h
REM seed -1191291296 1797056320 2033026536 -18504471 -948515521 862144060 -590488604 1742504699 2015715093 -851272806 1431328164 1524421832 1202432853 1750967230 -1805322584 -173984031 -2114378120 -312423494 42087336 -1156725012 -559142456 1144879858 1339112281 -1411833079 -901820563 -656336923 677308109 -234766014 930370396 -999598795 949398635 -1545089743 -854720067
REM
CELL 1.54180   50.00000   50.00000   50.00000   90.00000   90.00000   90.00000
LATT -1
SFAC C  
C      1  0.4842500000000  0.5405180000000  0.4111880000000 1.0
C      1  0.5654190000000  0.5199660000000  0.5508260000000 1.0
C      1  0.5374160000000  0.4518510000000  0.5450770000000 1.0
C      1  0.4080830000000  0.4917570000000  0.5027270000000 1.0
C      1  0.4912310000000  0.5147240000000  0.4446840000000 1.0
C      1  0.5432850000000  0.5296290000000  0.5669930000000 1.0
C      1  0.5122230000000  0.4459490000000  0.4376030000000 1.0
C      1  0.4196510000000  0.5362600000000  0.4468830000000 1.0
C      1  0.4890850000000  0.5353270000000  0.4916080000000 1.0
C      1  0.4724890000000  0.4621720000000  0.4656250000000 1.0
C      1  0.4478370000000  0.5340950000000  0.5318580000000 1.0
C      1  0.4108190000000  0.4999120000000  0.5508960000000 1.0
C      1  0.4121360000000  0.4660140000000  0.4568730000000 1.0
C      1  0.4926170000000  0.5839080000000  0.4508940000000 1.0
C      1  0.5027200000000  0.4245310000000  0.4550750000000 1.0
C      1  0.4978620000000  0.4342100000000  0.5561190000000 1.0
C      1  0.5461340000000  0.4984640000000  0.4691810000000 1.0
C      1  0.4750880000000  0.4194410000000  0.4536200000000 1.0
C      1  0.4697160000000  0.5678670000000  0.4504840000000 1.0
C      1  0.4958540000000  0.4719350000000  0.4717590000000 1.0
C      1  0.4035990000000  0.4674210000000  0.4856820000000 1.0
C      1  0.4890830000000  0.4708590000000  0.4440360000000 1.0
C      1  0.5508120000000  0.4424650000000  0.5232970000000 1.0
C      1  0.5571140000000  0.5251500000000  0.4258200000000 1.0
C      1  0.5342600000000  0.4630170000000  0.5929230000000 1.0
C      1  0.5024930000000  0.5483700000000  0.5811780000000 1.0
C      1  0.4965950000000  0.5625690000000  0.4971850000000 1.0
C      1  0.5169740000000  0.4638510000000  0.4869930000000 1.0
C      1  0.5621050000000  0.5788180000000  0.4643580000000 1.0
C      1  0.5181260000000  0.4904830000000  0.4970630000000 1.0
C      1  0.5310840000000  0.5302920000000  0.4143650000000 1.0
C      1  0.5540200000000  0.5255870000000  0.4760420000000 1.0
C      1  0.5298960000000  0.5365630000000  0.5164740000000 1.0
C      1  0.4574890000000  0.5768240000000  0.5012810000000 1.0
C      1  0.4674290000000  0.4171960000000  0.4832470000000 1.0
C      1  0.4314430000000  0.4642530000000  0.5678030000000 1.0
C      1  0.4182950000000  0.4512040000000  0.5035020000000 1.0
C      1  0.4573930000000  0.4191940000000  0.5109730000000 1.0
C      1  0.5155550000000  0.4756940000000  0.4014670000000 1.0
C      1  0.5475930000000  0.5164670000000  0.5264710000000 1.0
C      1  0.5896130000000  0.4547860000000  0.4912630000000 1.0
C      1  0.5531570000000  0.4349390000000  0.4748970000000 1.0
C      1  0.4287520000000  0.4904880000000  0.4531770000000 1.0
C      1  0.5036590000000  0.4511610000000  0.4095670000000 1.0
C      1  0.4936210000000  0.4223970000000  0.5822580000000 1.0
C      1  0.4608710000000  0.4961130000000  0.4978570000000 1.0
C      1  0.5794770000000  0.5548790000000  0.4588140000000 1.0
C      1  0.5018840000000  0.4962630000000  0.5458140000000 1.0
C      1  0.5009710000000  0.5196010000000  0.5858850000000 1.0
C      1  0.4147030000000  0.5138910000000  0.4640690000000 1.0
C      1  0.4903810000000  0.4025530000000  0.4936270000000 1.0
C      1  0.4826660000000  0.5886080000000  0.5013550000000 1.0
C      1  0.5040060000000  0.5264400000000  0.4681500000000 1.0
C      1  0.5849100000000  0.5438040000000  0.5290830000000 1.0
C      1  0.4702040000000  0.4424370000000  0.5885120000000 1.0
C      1  0.4983740000000  0.5973440000000  0.4760170000000 1.0
C      1  0.4579800000000  0.5617300000000  0.5252450000000 1.0
C      1  0.4199540000000  0.5350880000000  0.5176150000000 1.0
C      1  0.4742300000000  0.4882700000000  0.5509300000000 1.0
C      1  0.4549600000000  0.5360920000000  0.5615720000000 1.0
C      1  0.4659570000000  0.5205330000000  0.4813130000000 1.0
C      1  0.4746840000000  0.5740480000000  0.5455300000000 1.0
C      1  0.5393700000000  0.4168950000000  0.4938550000000 1.0
C      1  0.4482030000000  0.4737550000000  0.4747800000000 1.0
C      1  0.5079490000000  0.5360120000000  0.5339070000000 1.0
C      1  0.5379080000000  0.4915240000000  0.5171960000000 1.0
C      1  0.5549150000000  0.5403610000000  0.4505040000000 1.0
C      1  0.5308130000000  0.4890470000000  0.4226000000000 1.0
C      1  0.5495470000000  0.5507820000000  0.5021880000000 1.0
C      1  0.5881970000000  0.5055750000000  0.4626080000000 1.0
C      1  0.4521650000000  0.4993430000000  0.5273210000000 1.0
C      1  0.4067170000000  0.5257420000000  0.5403340000000 1.0
C      1  0.5718520000000  0.5029500000000  0.4378240000000 1.0
C      1  0.4437000000000  0.5372680000000  0.4823130000000 1.0
C      1  0.4345020000000  0.4493850000000  0.4647800000000 1.0
C      1  0.5447690000000  0.5740990000000  0.4875710000000 1.0
C      1  0.5615230000000  0.5605190000000  0.5274480000000 1.0
C      1  0.5449690000000  0.4868370000000  0.5638460000000 1.0
C      1  0.4788900000000  0.4698560000000  0.5922680000000 1.0
C      1  0.5721230000000  0.4914370000000  0.5557330000000 1.0
C      1  0.5887910000000  0.4840850000000  0.4837540000000 1.0
C      1  0.5259510000000  0.4775410000000  0.5391890000000 1.0
C      1  0.4788370000000  0.4594730000000  0.5450430000000 1.0
C      1  0.4630620000000  0.5498660000000  0.4291940000000 1.0
C      1  0.4290460000000  0.4924870000000  0.5728800000000 1.0
C      1  0.5692450000000  0.4369170000000  0.4513870000000 1.0
C      1  0.5787890000000  0.4522210000000  0.5189270000000 1.0
C      1  0.4827280000000  0.4078820000000  0.5203340000000 1.0
C      1  0.5355590000000  0.4189590000000  0.5224800000000 1.0
C      1  0.4854020000000  0.4735630000000  0.4026980000000 1.0
C      1  0.5154870000000  0.5747150000000  0.4328920000000 1.0
C      1  0.4264470000000  0.5543330000000  0.4680060000000 1.0
C      1  0.5166800000000  0.5126370000000  0.4314630000000 1.0
C      1  0.5064630000000  0.4453130000000  0.5055690000000 1.0
C      1  0.4756720000000  0.4993260000000  0.5826480000000 1.0
C      1  0.5976920000000  0.5392200000000  0.5016060000000 1.0
C      1  0.4249990000000  0.4879510000000  0.5270660000000 1.0
C      1  0.5202910000000  0.5047480000000  0.4756500000000 1.0
C      1  0.5943110000000  0.5336680000000  0.4730370000000 1.0
C      1  0.4913990000000  0.5145110000000  0.5253970000000 1.0
C      1  0.4096420000000  0.5193400000000  0.4930200000000 1.0
C      1  0.5157200000000  0.5184640000000  0.5593140000000 1.0
C      1  0.5111420000000  0.5515890000000  0.4144300000000 1.0
C      1  0.4780300000000  0.5134000000000  0.4198310000000 1.0
C      1  0.5516020000000  0.4583670000000  0.5699190000000 1.0
C      1  0.4659370000000  0.4753440000000  0.4236610000000 1.0
C      1  0.5116090000000  0.4186760000000  0.4845360000000 1.0
C      1  0.4371080000000  0.4378920000000  0.5190510000000 1.0
C      1  0.4877820000000  0.4625790000000  0.5175410000000 1.0
C      1  0.5902560000000  0.4930650000000  0.5111950000000 1.0
C      1  0.5841790000000  0.4771500000000  0.5333690000000 1.0
C      1  0.5067670000000  0.4701130000000  0.5877720000000 1.0
C      1  0.5195600000000  0.5835700000000  0.5377010000000 1.0
C      1  0.4489930000000  0.4256150000000  0.4605070000000 1.0
C      1  0.4476200000000  0.4518800000000  0.5465570000000 1.0
C      1  0.4945490000000  0.5909220000000  0.5318340000000 1.0
C      1  0.5272200000000  0.4909770000000  0.5885690000000 1.0
C      1  0.5823390000000  0.5196660000000  0.5120460000000 1.0
C      1  0.5072550000000  0.4163830000000  0.5345920000000 1.0
C      1  0.4427070000000  0.5291420000000  0.4308760000000 1.0
C      1  0.4882420000000  0.4909540000000  0.5080280000000 1.0
C      1  0.5406310000000  0.5783390000000  0.4454650000000 1.0
C      1  0.5175050000000  0.5772520000000  0.4850250000000 1.0
C      1  0.4507250000000  0.5688830000000  0.4743600000000 1.0
C      1  0.5422660000000  0.5710340000000  0.5472440000000 1.0
C      1  0.5303260000000  0.5542750000000  0.5703100000000 1.0
C      1  0.5505590000000  0.4841780000000  0.4432610000000 1.0
C      1  0.4766330000000  0.5550590000000  0.5676540000000 1.0
C      1  0.4494750000000  0.5003670000000  0.4253610000000 1.0
C      1  0.4458060000000  0.4408320000000  0.5729650000000 1.0
C      1  0.4494760000000  0.5129330000000  0.5782420000000 1.0
C      1  0.5430890000000  0.4346880000000  0.4467890000000 1.0
END
