TITL C-2441167-4473-416 0.141077734408096 125000 -23832.6489530074 0 0 183 (C1) n - 1
REM
REM in /home/bkarasulu/work/CARBON/AIRSS/Generating-Clusters/ReaxFF-fromJPCA2015/Units_Real/with-SteepDescent/Higher-Symm
REM
REM
REM
REM
REM
REM ./C.cell (1df0a924f5614ab8850e4351716899ee)
REM
REM compiler GCC version 9.2.1 20190827 (Red Hat 9.2.1-1)
REM options -cpp -mtune=generic -march=x86-64 -g -O0 -fpre-include=/usr/include/finclude/math-vector-fortran.h
REM seed 1771234635 1912365751 911822364 -1609790951 -43055268 -454837172 -601541388 -1340875515 -151243551 -1852060511 999613070 -1750634737 -1902492545 -870304557 -1984324419 396517151 1724694498 1778714452 -2056458410 2123065098 -1611727288 -929622768 -814929791 1743002444 -812284513 827991328 -1778677444 1735340511 -671937924 -1277750828 1673185447 -1682728827 -1957242962
REM
CELL 1.54180   50.00000   50.00000   50.00000   90.00000   90.00000   90.00000
LATT -1
SFAC C  
C      1  0.5295050000000  0.6054790000000  0.5283320000000 1.0
C      1  0.5044480000000  0.3941260000000  0.4679680000000 1.0
C      1  0.5004950000000  0.6066290000000  0.5307250000000 1.0
C      1  0.4744840000000  0.3912300000000  0.4755800000000 1.0
C      1  0.4351640000000  0.4233500000000  0.4433780000000 1.0
C      1  0.4453180000000  0.5724130000000  0.5575980000000 1.0
C      1  0.5716090000000  0.4261560000000  0.4396410000000 1.0
C      1  0.5640290000000  0.5745350000000  0.5538020000000 1.0
C      1  0.4755150000000  0.4696300000000  0.4598870000000 1.0
C      1  0.4730500000000  0.5339850000000  0.5392740000000 1.0
C      1  0.5324810000000  0.4783980000000  0.4657340000000 1.0
C      1  0.5256040000000  0.5286960000000  0.5402390000000 1.0
C      1  0.5709670000000  0.4691690000000  0.4499080000000 1.0
C      1  0.5770780000000  0.5270760000000  0.5508830000000 1.0
C      1  0.4252810000000  0.4715770000000  0.4479710000000 1.0
C      1  0.4226220000000  0.5286840000000  0.5533900000000 1.0
C      1  0.4462070000000  0.5279780000000  0.4939700000000 1.0
C      1  0.4513640000000  0.4852210000000  0.5139890000000 1.0
C      1  0.5551260000000  0.5375400000000  0.5002200000000 1.0
C      1  0.5495170000000  0.4810440000000  0.5061390000000 1.0
C      1  0.5325350000000  0.5222980000000  0.4885390000000 1.0
C      1  0.5228010000000  0.4767520000000  0.5096580000000 1.0
C      1  0.4769520000000  0.5187510000000  0.4911300000000 1.0
C      1  0.4802450000000  0.4796810000000  0.5124860000000 1.0
C      1  0.4870480000000  0.4693850000000  0.4863730000000 1.0
C      1  0.4865980000000  0.5345900000000  0.5136380000000 1.0
C      1  0.5135040000000  0.4652670000000  0.4845410000000 1.0
C      1  0.5126230000000  0.5251480000000  0.5144250000000 1.0
C      1  0.5757070000000  0.5117040000000  0.4183990000000 1.0
C      1  0.5719900000000  0.4829670000000  0.5879990000000 1.0
C      1  0.4273840000000  0.5155190000000  0.4101730000000 1.0
C      1  0.4262610000000  0.4874480000000  0.5829690000000 1.0
C      1  0.3996450000000  0.4531570000000  0.5057900000000 1.0
C      1  0.3972680000000  0.5491930000000  0.4928030000000 1.0
C      1  0.6085220000000  0.4492060000000  0.5045670000000 1.0
C      1  0.6056370000000  0.5488330000000  0.4947330000000 1.0
C      1  0.5901590000000  0.4293290000000  0.4611570000000 1.0
C      1  0.5864910000000  0.5737740000000  0.5348190000000 1.0
C      1  0.4154820000000  0.4241670000000  0.4658270000000 1.0
C      1  0.4167690000000  0.5678880000000  0.5289680000000 1.0
C      1  0.5546050000000  0.5234350000000  0.5310280000000 1.0
C      1  0.5507610000000  0.4540400000000  0.4641600000000 1.0
C      1  0.4455840000000  0.5254530000000  0.5381610000000 1.0
C      1  0.4462400000000  0.4666510000000  0.4677220000000 1.0
C      1  0.4384560000000  0.5111060000000  0.5168190000000 1.0
C      1  0.4382090000000  0.4822090000000  0.4885710000000 1.0
C      1  0.5633280000000  0.4973640000000  0.5239160000000 1.0
C      1  0.5489850000000  0.4971980000000  0.4821790000000 1.0
C      1  0.4441530000000  0.4932410000000  0.4034290000000 1.0
C      1  0.4463810000000  0.5003350000000  0.5941610000000 1.0
C      1  0.5569630000000  0.4975950000000  0.4047750000000 1.0
C      1  0.5572940000000  0.5059430000000  0.5963210000000 1.0
C      1  0.5562990000000  0.5830400000000  0.4595540000000 1.0
C      1  0.5508230000000  0.4211680000000  0.5395490000000 1.0
C      1  0.4420950000000  0.5791500000000  0.4602870000000 1.0
C      1  0.4331000000000  0.4288150000000  0.5362630000000 1.0
C      1  0.4899090000000  0.4351610000000  0.4232940000000 1.0
C      1  0.4815280000000  0.5660800000000  0.5770280000000 1.0
C      1  0.5186850000000  0.4368590000000  0.4236340000000 1.0
C      1  0.5106970000000  0.5641870000000  0.5779270000000 1.0
C      1  0.4890790000000  0.4613010000000  0.5336490000000 1.0
C      1  0.4874600000000  0.5377750000000  0.4720550000000 1.0
C      1  0.5175680000000  0.4552080000000  0.5292030000000 1.0
C      1  0.5150230000000  0.5396460000000  0.4667030000000 1.0
C      1  0.4132060000000  0.4968180000000  0.4833340000000 1.0
C      1  0.4069400000000  0.5000160000000  0.5168640000000 1.0
C      1  0.5813980000000  0.5002210000000  0.4826270000000 1.0
C      1  0.5901650000000  0.4998430000000  0.5138950000000 1.0
C      1  0.5685580000000  0.4112830000000  0.4648470000000 1.0
C      1  0.5635480000000  0.5876650000000  0.5276370000000 1.0
C      1  0.4404620000000  0.4104080000000  0.4688240000000 1.0
C      1  0.4387890000000  0.5826930000000  0.5321770000000 1.0
C      1  0.4272200000000  0.5238940000000  0.4715750000000 1.0
C      1  0.4127140000000  0.4714260000000  0.5225850000000 1.0
C      1  0.5748840000000  0.5298770000000  0.4740920000000 1.0
C      1  0.5862140000000  0.4639580000000  0.5131150000000 1.0
C      1  0.4016140000000  0.5234510000000  0.5340110000000 1.0
C      1  0.4026510000000  0.4748330000000  0.4655430000000 1.0
C      1  0.5980070000000  0.5229860000000  0.5320130000000 1.0
C      1  0.5927870000000  0.4776070000000  0.4667290000000 1.0
C      1  0.4828610000000  0.6032810000000  0.4832820000000 1.0
C      1  0.4792420000000  0.3947320000000  0.5241260000000 1.0
C      1  0.5120610000000  0.6054050000000  0.4815130000000 1.0
C      1  0.5086080000000  0.4025420000000  0.5246750000000 1.0
C      1  0.4459120000000  0.4747820000000  0.5442720000000 1.0
C      1  0.4464700000000  0.5274870000000  0.4500170000000 1.0
C      1  0.5407870000000  0.4646270000000  0.5454860000000 1.0
C      1  0.5570230000000  0.5326040000000  0.4509330000000 1.0
C      1  0.5265430000000  0.4078070000000  0.5478090000000 1.0
C      1  0.5263810000000  0.5882400000000  0.4569300000000 1.0
C      1  0.4711530000000  0.4152210000000  0.5431020000000 1.0
C      1  0.4712760000000  0.5861760000000  0.4590350000000 1.0
C      1  0.5125700000000  0.4698490000000  0.5771240000000 1.0
C      1  0.5153890000000  0.5355460000000  0.4367190000000 1.0
C      1  0.4855400000000  0.4661570000000  0.5618680000000 1.0
C      1  0.4870920000000  0.5298140000000  0.4254590000000 1.0
C      1  0.5508940000000  0.5335280000000  0.5861570000000 1.0
C      1  0.5531740000000  0.4677200000000  0.4095520000000 1.0
C      1  0.4494410000000  0.5315660000000  0.5890600000000 1.0
C      1  0.4500590000000  0.4653580000000  0.4133720000000 1.0
C      1  0.5149830000000  0.5576040000000  0.5490180000000 1.0
C      1  0.5289000000000  0.4364270000000  0.4513940000000 1.0
C      1  0.4829380000000  0.5611130000000  0.5480250000000 1.0
C      1  0.4881750000000  0.4427430000000  0.4511680000000 1.0
C      1  0.4586450000000  0.4399970000000  0.4953740000000 1.0
C      1  0.4530200000000  0.5573010000000  0.4964700000000 1.0
C      1  0.5600020000000  0.4521540000000  0.4972530000000 1.0
C      1  0.5403000000000  0.5642480000000  0.4994590000000 1.0
C      1  0.5550690000000  0.4268240000000  0.5104640000000 1.0
C      1  0.5573090000000  0.5885950000000  0.4879470000000 1.0
C      1  0.4427040000000  0.4195870000000  0.5090630000000 1.0
C      1  0.4393370000000  0.5823480000000  0.4903650000000 1.0
C      1  0.4642450000000  0.4772820000000  0.5965140000000 1.0
C      1  0.4563640000000  0.5198040000000  0.4001100000000 1.0
C      1  0.5446960000000  0.4789220000000  0.6004770000000 1.0
C      1  0.5368110000000  0.5190330000000  0.4052080000000 1.0
C      1  0.4602080000000  0.3951650000000  0.5014660000000 1.0
C      1  0.4617230000000  0.5975760000000  0.5029670000000 1.0
C      1  0.5497060000000  0.4097900000000  0.4869950000000 1.0
C      1  0.5363370000000  0.6071930000000  0.4990490000000 1.0
C      1  0.4752050000000  0.4308650000000  0.4737450000000 1.0
C      1  0.4782260000000  0.5855680000000  0.5286140000000 1.0
C      1  0.5269870000000  0.4128490000000  0.4682230000000 1.0
C      1  0.5238130000000  0.5739990000000  0.5246540000000 1.0
C      1  0.5514930000000  0.4424630000000  0.5602270000000 1.0
C      1  0.5553260000000  0.5590460000000  0.4419360000000 1.0
C      1  0.4450720000000  0.4478410000000  0.5548520000000 1.0
C      1  0.4463810000000  0.5560290000000  0.4423740000000 1.0
C      1  0.4063700000000  0.4786590000000  0.5703730000000 1.0
C      1  0.4100070000000  0.5224170000000  0.4320760000000 1.0
C      1  0.5894500000000  0.4753770000000  0.5648610000000 1.0
C      1  0.5956970000000  0.5194890000000  0.4324410000000 1.0
C      1  0.5295390000000  0.4861430000000  0.5597540000000 1.0
C      1  0.5347930000000  0.5151910000000  0.4372490000000 1.0
C      1  0.4682650000000  0.4878220000000  0.5574370000000 1.0
C      1  0.4712670000000  0.5140280000000  0.4434760000000 1.0
C      1  0.4746840000000  0.4533280000000  0.4052680000000 1.0
C      1  0.4730130000000  0.5438290000000  0.5958990000000 1.0
C      1  0.5283120000000  0.4563350000000  0.4036120000000 1.0
C      1  0.5260670000000  0.5456530000000  0.5946060000000 1.0
C      1  0.4889730000000  0.4930860000000  0.4480530000000 1.0
C      1  0.4847940000000  0.5102180000000  0.5543310000000 1.0
C      1  0.5170760000000  0.4935230000000  0.4465790000000 1.0
C      1  0.5129710000000  0.5088110000000  0.5554480000000 1.0
C      1  0.4040860000000  0.5446030000000  0.4675930000000 1.0
C      1  0.4058640000000  0.4453700000000  0.5325210000000 1.0
C      1  0.6023020000000  0.5442620000000  0.4691630000000 1.0
C      1  0.6019780000000  0.4530490000000  0.5324640000000 1.0
C      1  0.5137670000000  0.5770760000000  0.4301490000000 1.0
C      1  0.5130720000000  0.4231200000000  0.5695850000000 1.0
C      1  0.4856180000000  0.5759620000000  0.4318180000000 1.0
C      1  0.4836690000000  0.4240610000000  0.5679650000000 1.0
C      1  0.6028720000000  0.5498890000000  0.5219860000000 1.0
C      1  0.6010380000000  0.4516500000000  0.4766500000000 1.0
C      1  0.3955620000000  0.5497580000000  0.5210650000000 1.0
C      1  0.4016530000000  0.4486900000000  0.4776840000000 1.0
C      1  0.5678110000000  0.5484650000000  0.5678640000000 1.0
C      1  0.5701940000000  0.4519730000000  0.4272270000000 1.0
C      1  0.4347530000000  0.5496990000000  0.5715890000000 1.0
C      1  0.4326520000000  0.4498330000000  0.4301930000000 1.0
C      1  0.5135540000000  0.4781480000000  0.3894220000000 1.0
C      1  0.5148980000000  0.5217060000000  0.6077220000000 1.0
C      1  0.4857600000000  0.4770250000000  0.3929060000000 1.0
C      1  0.4870230000000  0.5214350000000  0.6097050000000 1.0
C      1  0.4689500000000  0.5541350000000  0.4227680000000 1.0
C      1  0.4667290000000  0.4476780000000  0.5764340000000 1.0
C      1  0.5318880000000  0.5555970000000  0.4233790000000 1.0
C      1  0.5296260000000  0.4452250000000  0.5804290000000 1.0
C      1  0.6186770000000  0.5272760000000  0.4481570000000 1.0
C      1  0.6152180000000  0.4744030000000  0.5505270000000 1.0
C      1  0.3859350000000  0.5299600000000  0.4453510000000 1.0
C      1  0.3892160000000  0.4657020000000  0.5550900000000 1.0
C      1  0.5174120000000  0.4906670000000  0.6041180000000 1.0
C      1  0.5141230000000  0.5077970000000  0.3907480000000 1.0
C      1  0.4857160000000  0.4912100000000  0.6085950000000 1.0
C      1  0.4842080000000  0.5090050000000  0.3978170000000 1.0
C      1  0.5219280000000  0.5659990000000  0.4761960000000 1.0
C      1  0.5073170000000  0.4297770000000  0.5165740000000 1.0
C      1  0.4742080000000  0.5610600000000  0.4779390000000 1.0
C      1  0.4790530000000  0.4374400000000  0.5214760000000 1.0
C      1  0.4905410000000  0.4110300000000  0.4817040000000 1.0
C      1  0.4997990000000  0.5826990000000  0.5159000000000 1.0
C      1  0.5033250000000  0.4983710000000  0.5130610000000 1.0
END
