TITL C-2441164-471-976 0.0339907946053329 125000 -24917.4408979937 0 0 171 (C1) n - 1
REM
REM in /home/bkarasulu/work/CARBON/AIRSS/Generating-Clusters/ReaxFF-fromJPCA2015/Units_Real/with-SteepDescent/Higher-Symm
REM
REM
REM
REM
REM
REM ./C.cell (1df0a924f5614ab8850e4351716899ee)
REM
REM compiler GCC version 9.2.1 20190827 (Red Hat 9.2.1-1)
REM options -cpp -mtune=generic -march=x86-64 -g -O0 -fpre-include=/usr/include/finclude/math-vector-fortran.h
REM seed -1307377146 1313531793 -2107747752 841231779 -1296517416 1758461799 -888978594 -487400922 -2144892376 1078658828 861505162 450638116 -536221513 -1095764512 1054984083 -1139304035 -1038783633 1213836398 513265410 -1771234363 -1180277138 2025951901 -1616631017 802411026 1482391024 599624544 1772756817 -717291788 -1288209318 -355181104 -888662757 1048364617 -1461915577
REM
CELL 1.54180   50.00000   50.00000   50.00000   90.00000   90.00000   90.00000
LATT -1
SFAC C  
C      1  0.4674960000000  0.4420270000000  0.6031310000000 1.0
C      1  0.4270040000000  0.4419440000000  0.5708590000000 1.0
C      1  0.4198510000000  0.4515770000000  0.4938610000000 1.0
C      1  0.4214770000000  0.4410030000000  0.4421940000000 1.0
C      1  0.4709380000000  0.4419190000000  0.3994760000000 1.0
C      1  0.5238690000000  0.4435320000000  0.4048870000000 1.0
C      1  0.5694120000000  0.4496720000000  0.4563370000000 1.0
C      1  0.5906930000000  0.4442350000000  0.5049380000000 1.0
C      1  0.5818760000000  0.4497280000000  0.5590940000000 1.0
C      1  0.5326690000000  0.4449990000000  0.5903290000000 1.0
C      1  0.4221810000000  0.4988000000000  0.4988760000000 1.0
C      1  0.4240060000000  0.4918470000000  0.4488280000000 1.0
C      1  0.4749340000000  0.5048830000000  0.4304390000000 1.0
C      1  0.5279960000000  0.4929070000000  0.4162590000000 1.0
C      1  0.5774110000000  0.4990900000000  0.4473040000000 1.0
C      1  0.5787940000000  0.5043910000000  0.4977100000000 1.0
C      1  0.5561490000000  0.4957280000000  0.5402510000000 1.0
C      1  0.5282780000000  0.4998040000000  0.5789620000000 1.0
C      1  0.4784440000000  0.4941640000000  0.5634490000000 1.0
C      1  0.4285600000000  0.4971700000000  0.5497340000000 1.0
C      1  0.5384700000000  0.5892760000000  0.5300500000000 1.0
C      1  0.5141170000000  0.5898730000000  0.5463120000000 1.0
C      1  0.4854270000000  0.5907330000000  0.5437540000000 1.0
C      1  0.4617270000000  0.5915420000000  0.5276820000000 1.0
C      1  0.4550610000000  0.5928110000000  0.4998470000000 1.0
C      1  0.4626100000000  0.5944970000000  0.4723000000000 1.0
C      1  0.4865610000000  0.5932670000000  0.4570910000000 1.0
C      1  0.5148450000000  0.5930880000000  0.4561280000000 1.0
C      1  0.5365020000000  0.5947340000000  0.4751530000000 1.0
C      1  0.5470190000000  0.5906190000000  0.5019410000000 1.0
C      1  0.4939850000000  0.4866120000000  0.3936150000000 1.0
C      1  0.5703290000000  0.4950120000000  0.4063550000000 1.0
C      1  0.6145080000000  0.4841240000000  0.4831570000000 1.0
C      1  0.6047380000000  0.4883450000000  0.5374720000000 1.0
C      1  0.5785940000000  0.4938500000000  0.5795060000000 1.0
C      1  0.4986870000000  0.4859810000000  0.6093850000000 1.0
C      1  0.4428790000000  0.4867810000000  0.5951570000000 1.0
C      1  0.3857970000000  0.4976760000000  0.5306880000000 1.0
C      1  0.3851410000000  0.4961470000000  0.4755590000000 1.0
C      1  0.4396570000000  0.4862420000000  0.4108790000000 1.0
C      1  0.4587310000000  0.4216000000000  0.4183920000000 1.0
C      1  0.4973840000000  0.4304630000000  0.4046270000000 1.0
C      1  0.5558900000000  0.4405050000000  0.4324910000000 1.0
C      1  0.5868800000000  0.4346660000000  0.4775610000000 1.0
C      1  0.5866380000000  0.4350950000000  0.5339100000000 1.0
C      1  0.5584460000000  0.4377890000000  0.5729220000000 1.0
C      1  0.4912400000000  0.4349770000000  0.5919800000000 1.0
C      1  0.4500690000000  0.4270280000000  0.5840420000000 1.0
C      1  0.4159230000000  0.4412070000000  0.5209910000000 1.0
C      1  0.4126310000000  0.4330090000000  0.4680990000000 1.0
C      1  0.5796450000000  0.5235410000000  0.5811350000000 1.0
C      1  0.5084700000000  0.5185850000000  0.6105310000000 1.0
C      1  0.4445530000000  0.5200740000000  0.5971710000000 1.0
C      1  0.3925190000000  0.5247880000000  0.5427770000000 1.0
C      1  0.3904580000000  0.5265240000000  0.4737670000000 1.0
C      1  0.4293930000000  0.5190440000000  0.4138760000000 1.0
C      1  0.4911720000000  0.5185520000000  0.3899380000000 1.0
C      1  0.5594150000000  0.5239300000000  0.4025910000000 1.0
C      1  0.6182600000000  0.5119410000000  0.4790430000000 1.0
C      1  0.6117400000000  0.5185650000000  0.5418060000000 1.0
C      1  0.5525660000000  0.4894540000000  0.5672060000000 1.0
C      1  0.5006840000000  0.4891280000000  0.5799110000000 1.0
C      1  0.4514540000000  0.4877730000000  0.5665090000000 1.0
C      1  0.4134360000000  0.4879760000000  0.5267280000000 1.0
C      1  0.4126240000000  0.4854160000000  0.4746820000000 1.0
C      1  0.4522870000000  0.4878180000000  0.4373790000000 1.0
C      1  0.4980190000000  0.4900400000000  0.4229990000000 1.0
C      1  0.5546740000000  0.4867310000000  0.4305120000000 1.0
C      1  0.5858650000000  0.4876280000000  0.4749560000000 1.0
C      1  0.5787270000000  0.4942410000000  0.5246750000000 1.0
C      1  0.4643460000000  0.5078050000000  0.5208580000000 1.0
C      1  0.4535880000000  0.4952430000000  0.4977670000000 1.0
C      1  0.4687990000000  0.5090390000000  0.4761050000000 1.0
C      1  0.4912330000000  0.4950930000000  0.4661640000000 1.0
C      1  0.5141000000000  0.5093580000000  0.4577420000000 1.0
C      1  0.5389800000000  0.4971090000000  0.4656610000000 1.0
C      1  0.5372250000000  0.5092330000000  0.4925280000000 1.0
C      1  0.5341620000000  0.4918000000000  0.5261600000000 1.0
C      1  0.5110870000000  0.5079630000000  0.5313410000000 1.0
C      1  0.4842250000000  0.4934500000000  0.5354480000000 1.0
C      1  0.5207910000000  0.5740860000000  0.5714090000000 1.0
C      1  0.4762940000000  0.5672590000000  0.5639030000000 1.0
C      1  0.4383550000000  0.5754170000000  0.5420210000000 1.0
C      1  0.4348320000000  0.5682790000000  0.4970980000000 1.0
C      1  0.4420270000000  0.5785630000000  0.4537900000000 1.0
C      1  0.4807570000000  0.5689220000000  0.4361560000000 1.0
C      1  0.5235870000000  0.5769890000000  0.4303620000000 1.0
C      1  0.5558490000000  0.5754390000000  0.4592200000000 1.0
C      1  0.5728720000000  0.5759350000000  0.5011450000000 1.0
C      1  0.5580520000000  0.5733380000000  0.5451000000000 1.0
C      1  0.5934890000000  0.5431420000000  0.4667720000000 1.0
C      1  0.5948570000000  0.5402980000000  0.5330350000000 1.0
C      1  0.5553930000000  0.5388150000000  0.5862380000000 1.0
C      1  0.4929470000000  0.5428270000000  0.6055800000000 1.0
C      1  0.4320080000000  0.5384230000000  0.5774660000000 1.0
C      1  0.4011190000000  0.5432330000000  0.5218350000000 1.0
C      1  0.4076300000000  0.5424890000000  0.4560310000000 1.0
C      1  0.4465520000000  0.5425060000000  0.4128810000000 1.0
C      1  0.5091600000000  0.5394050000000  0.3993670000000 1.0
C      1  0.5643990000000  0.5424790000000  0.4246830000000 1.0
C      1  0.4063870000000  0.5260930000000  0.4980540000000 1.0
C      1  0.4148050000000  0.5200060000000  0.4380800000000 1.0
C      1  0.4702120000000  0.5243440000000  0.4087880000000 1.0
C      1  0.5316530000000  0.5206950000000  0.3991340000000 1.0
C      1  0.5796760000000  0.5289880000000  0.4452510000000 1.0
C      1  0.5979830000000  0.5266310000000  0.4912470000000 1.0
C      1  0.5996650000000  0.5341850000000  0.5623490000000 1.0
C      1  0.5343350000000  0.5207740000000  0.5982810000000 1.0
C      1  0.4684750000000  0.5296990000000  0.6024410000000 1.0
C      1  0.4145590000000  0.5203220000000  0.5608960000000 1.0
C      1  0.5405690000000  0.4668610000000  0.4693680000000 1.0
C      1  0.5352950000000  0.4626190000000  0.4972030000000 1.0
C      1  0.5310790000000  0.4629670000000  0.5236210000000 1.0
C      1  0.5088530000000  0.4496220000000  0.5342400000000 1.0
C      1  0.4854150000000  0.4636440000000  0.5299140000000 1.0
C      1  0.4631180000000  0.4516580000000  0.5185710000000 1.0
C      1  0.4527730000000  0.4643440000000  0.4953310000000 1.0
C      1  0.4689390000000  0.4534870000000  0.4741660000000 1.0
C      1  0.4921600000000  0.4669730000000  0.4664520000000 1.0
C      1  0.5161970000000  0.4532370000000  0.4626570000000 1.0
C      1  0.5423030000000  0.5407050000000  0.4953810000000 1.0
C      1  0.5277410000000  0.5447010000000  0.5184530000000 1.0
C      1  0.5116060000000  0.5386790000000  0.5397220000000 1.0
C      1  0.4837410000000  0.5463380000000  0.5424870000000 1.0
C      1  0.4647420000000  0.5354740000000  0.5231020000000 1.0
C      1  0.4564220000000  0.5477340000000  0.4981320000000 1.0
C      1  0.4677550000000  0.5370100000000  0.4753260000000 1.0
C      1  0.4857720000000  0.5488720000000  0.4579820000000 1.0
C      1  0.5129410000000  0.5387340000000  0.4576410000000 1.0
C      1  0.5352490000000  0.5527210000000  0.4700860000000 1.0
C      1  0.5796510000000  0.5646840000000  0.5275530000000 1.0
C      1  0.5477440000000  0.5621740000000  0.5703870000000 1.0
C      1  0.4979130000000  0.5641190000000  0.5849060000000 1.0
C      1  0.4447520000000  0.5619490000000  0.5661490000000 1.0
C      1  0.4188820000000  0.5660900000000  0.5233000000000 1.0
C      1  0.4222020000000  0.5648590000000  0.4678130000000 1.0
C      1  0.4510960000000  0.5662140000000  0.4293180000000 1.0
C      1  0.5039980000000  0.5635730000000  0.4157380000000 1.0
C      1  0.5503030000000  0.5670290000000  0.4316240000000 1.0
C      1  0.5802290000000  0.5677540000000  0.4749090000000 1.0
C      1  0.5344340000000  0.4107860000000  0.5329550000000 1.0
C      1  0.5079750000000  0.4230220000000  0.5443880000000 1.0
C      1  0.4787380000000  0.4118230000000  0.5396430000000 1.0
C      1  0.4570510000000  0.4234740000000  0.5213170000000 1.0
C      1  0.4511370000000  0.4148130000000  0.4935810000000 1.0
C      1  0.4661780000000  0.4240630000000  0.4694580000000 1.0
C      1  0.4913430000000  0.4140300000000  0.4549890000000 1.0
C      1  0.5189610000000  0.4242170000000  0.4601920000000 1.0
C      1  0.5416100000000  0.4153140000000  0.4795490000000 1.0
C      1  0.5475940000000  0.4143130000000  0.5069570000000 1.0
C      1  0.5940940000000  0.4758360000000  0.5630150000000 1.0
C      1  0.5220710000000  0.4661630000000  0.6072390000000 1.0
C      1  0.4674750000000  0.4725830000000  0.6107580000000 1.0
C      1  0.4203750000000  0.4666550000000  0.5844230000000 1.0
C      1  0.3793420000000  0.4937010000000  0.5033500000000 1.0
C      1  0.4175720000000  0.4682440000000  0.4258510000000 1.0
C      1  0.4641750000000  0.4719570000000  0.3941700000000 1.0
C      1  0.5212510000000  0.4713870000000  0.3955230000000 1.0
C      1  0.5947060000000  0.4874890000000  0.4192760000000 1.0
C      1  0.6146260000000  0.4694490000000  0.5103970000000 1.0
C      1  0.5516480000000  0.4216500000000  0.5519510000000 1.0
C      1  0.5118250000000  0.4288060000000  0.5766400000000 1.0
C      1  0.4632620000000  0.4168910000000  0.5612340000000 1.0
C      1  0.4291140000000  0.4318670000000  0.5417020000000 1.0
C      1  0.4253320000000  0.4205270000000  0.4883060000000 1.0
C      1  0.4448180000000  0.4250940000000  0.4432050000000 1.0
C      1  0.4862060000000  0.4134380000000  0.4268550000000 1.0
C      1  0.5329880000000  0.4295050000000  0.4294890000000 1.0
C      1  0.5653680000000  0.4213450000000  0.4668630000000 1.0
C      1  0.5749350000000  0.4209470000000  0.5138250000000 1.0
C      1  0.5085500000000  0.5084190000000  0.5002600000000 1.0
END
