TITL C-2441156-4686-970 0.0837806401975831 125000 -25048.6204382838 0 0 182 (C1) n - 1
REM
REM in /home/bkarasulu/work/CARBON/AIRSS/Generating-Clusters/ReaxFF-fromJPCA2015/Units_Real/with-SteepDescent/Higher-Symm
REM
REM
REM
REM
REM
REM ./C.cell (1df0a924f5614ab8850e4351716899ee)
REM
REM compiler GCC version 9.2.1 20190827 (Red Hat 9.2.1-1)
REM options -cpp -mtune=generic -march=x86-64 -g -O0 -fpre-include=/usr/include/finclude/math-vector-fortran.h
REM seed -2069438816 1118092724 886482465 425040253 508182817 1364381609 1511588017 94659739 -1047752345 -708712000 -1480153438 -1319531968 -1072785338 -1486942123 886576247 -1881054299 -497459140 -46297928 250174438 547241288 1290198904 -1067430817 -1261111356 1328507135 975044500 1584088796 -2116989926 -695966230 -248836105 -1411101309 207832424 -1413023141 2028230810
REM
CELL 1.54180   50.00000   50.00000   50.00000   90.00000   90.00000   90.00000
LATT -1
SFAC C  
C      1  0.5347600000000  0.5965190000000  0.5255760000000 1.0
C      1  0.4628760000000  0.4040180000000  0.5212690000000 1.0
C      1  0.5382650000000  0.5951130000000  0.4789360000000 1.0
C      1  0.4647930000000  0.4022760000000  0.4739760000000 1.0
C      1  0.4621450000000  0.5958430000000  0.5223050000000 1.0
C      1  0.5348180000000  0.4060720000000  0.5219110000000 1.0
C      1  0.4648540000000  0.5979520000000  0.4749890000000 1.0
C      1  0.5334160000000  0.4033610000000  0.4752030000000 1.0
C      1  0.5156860000000  0.4662450000000  0.5963620000000 1.0
C      1  0.4843510000000  0.5360220000000  0.6020260000000 1.0
C      1  0.5154340000000  0.4640760000000  0.3970590000000 1.0
C      1  0.4847330000000  0.5350500000000  0.3993210000000 1.0
C      1  0.4845680000000  0.4639670000000  0.6008590000000 1.0
C      1  0.5142570000000  0.5364260000000  0.6023730000000 1.0
C      1  0.4853400000000  0.4639970000000  0.3979040000000 1.0
C      1  0.5145740000000  0.5354310000000  0.3996810000000 1.0
C      1  0.5487760000000  0.4556370000000  0.4878290000000 1.0
C      1  0.4509950000000  0.5445540000000  0.4837530000000 1.0
C      1  0.5460800000000  0.4570110000000  0.5180960000000 1.0
C      1  0.4463190000000  0.5418590000000  0.5169070000000 1.0
C      1  0.4490200000000  0.4553440000000  0.4882260000000 1.0
C      1  0.5483120000000  0.5510300000000  0.4842410000000 1.0
C      1  0.4558990000000  0.4449030000000  0.5149900000000 1.0
C      1  0.5507800000000  0.5449330000000  0.5129590000000 1.0
C      1  0.4712660000000  0.4556110000000  0.4706390000000 1.0
C      1  0.5319610000000  0.5365950000000  0.4675790000000 1.0
C      1  0.4763160000000  0.4568810000000  0.5319290000000 1.0
C      1  0.5269350000000  0.5447330000000  0.5299240000000 1.0
C      1  0.5242980000000  0.4502610000000  0.4751560000000 1.0
C      1  0.4774110000000  0.5529270000000  0.4755490000000 1.0
C      1  0.5172290000000  0.4514980000000  0.5266060000000 1.0
C      1  0.4687790000000  0.5387970000000  0.5330210000000 1.0
C      1  0.5158730000000  0.4830610000000  0.4358970000000 1.0
C      1  0.4853990000000  0.5138020000000  0.4366200000000 1.0
C      1  0.5135750000000  0.4814940000000  0.5659510000000 1.0
C      1  0.4871700000000  0.5132260000000  0.5670630000000 1.0
C      1  0.4863670000000  0.4842330000000  0.4336710000000 1.0
C      1  0.5140850000000  0.5127860000000  0.4329660000000 1.0
C      1  0.4838870000000  0.4858890000000  0.5621280000000 1.0
C      1  0.5137130000000  0.5116620000000  0.5694410000000 1.0
C      1  0.5580500000000  0.4831750000000  0.5282970000000 1.0
C      1  0.4314490000000  0.5175500000000  0.5219840000000 1.0
C      1  0.5609550000000  0.4808030000000  0.4736340000000 1.0
C      1  0.4414520000000  0.5164490000000  0.4746070000000 1.0
C      1  0.4374000000000  0.4890290000000  0.5198920000000 1.0
C      1  0.5652280000000  0.5140220000000  0.5140580000000 1.0
C      1  0.4358690000000  0.4849680000000  0.4892110000000 1.0
C      1  0.5695850000000  0.5070290000000  0.4862730000000 1.0
C      1  0.4110680000000  0.4755920000000  0.4766250000000 1.0
C      1  0.5907190000000  0.5214450000000  0.4735280000000 1.0
C      1  0.4108680000000  0.4774910000000  0.5278090000000 1.0
C      1  0.5905440000000  0.5255530000000  0.5259130000000 1.0
C      1  0.5900530000000  0.4713440000000  0.4704770000000 1.0
C      1  0.4132200000000  0.5260290000000  0.4726980000000 1.0
C      1  0.5876950000000  0.4768130000000  0.5290910000000 1.0
C      1  0.4042750000000  0.5240350000000  0.5274660000000 1.0
C      1  0.4018960000000  0.5500830000000  0.5145300000000 1.0
C      1  0.5955390000000  0.4524880000000  0.5154750000000 1.0
C      1  0.4057630000000  0.5510080000000  0.4857840000000 1.0
C      1  0.5948870000000  0.4479870000000  0.4865270000000 1.0
C      1  0.5962970000000  0.5514960000000  0.5139610000000 1.0
C      1  0.4045170000000  0.4518360000000  0.5162260000000 1.0
C      1  0.5968350000000  0.5478540000000  0.4851870000000 1.0
C      1  0.4048470000000  0.4491850000000  0.4871430000000 1.0
C      1  0.5986970000000  0.4864830000000  0.5541390000000 1.0
C      1  0.4009940000000  0.5145770000000  0.5537430000000 1.0
C      1  0.5992920000000  0.4843650000000  0.4459780000000 1.0
C      1  0.4027160000000  0.5132650000000  0.4486100000000 1.0
C      1  0.4020130000000  0.4864740000000  0.5540720000000 1.0
C      1  0.5979440000000  0.5158450000000  0.5525280000000 1.0
C      1  0.4039490000000  0.4852340000000  0.4509180000000 1.0
C      1  0.5976960000000  0.5133480000000  0.4462400000000 1.0
C      1  0.5581690000000  0.4885090000000  0.5790720000000 1.0
C      1  0.4447290000000  0.5150260000000  0.5759430000000 1.0
C      1  0.5585310000000  0.4871260000000  0.4199720000000 1.0
C      1  0.4421750000000  0.5119250000000  0.4212330000000 1.0
C      1  0.4449660000000  0.4852430000000  0.5752630000000 1.0
C      1  0.5571840000000  0.5179380000000  0.5794200000000 1.0
C      1  0.4426050000000  0.4828650000000  0.4215840000000 1.0
C      1  0.5595200000000  0.5157760000000  0.4177900000000 1.0
C      1  0.5140230000000  0.5759020000000  0.5192170000000 1.0
C      1  0.4842300000000  0.4186490000000  0.5087220000000 1.0
C      1  0.5161550000000  0.5839590000000  0.4910750000000 1.0
C      1  0.4841120000000  0.4246290000000  0.4802420000000 1.0
C      1  0.4843390000000  0.5800050000000  0.5153270000000 1.0
C      1  0.5110850000000  0.4247700000000  0.5163130000000 1.0
C      1  0.4881240000000  0.5802260000000  0.4850420000000 1.0
C      1  0.5133920000000  0.4248500000000  0.4820440000000 1.0
C      1  0.4725090000000  0.5598360000000  0.5883790000000 1.0
C      1  0.5271060000000  0.4390480000000  0.5873180000000 1.0
C      1  0.4735360000000  0.5587200000000  0.4126460000000 1.0
C      1  0.5266430000000  0.4409270000000  0.4113930000000 1.0
C      1  0.5260630000000  0.5594810000000  0.5887330000000 1.0
C      1  0.4739030000000  0.4403120000000  0.5879780000000 1.0
C      1  0.5264760000000  0.5592040000000  0.4124680000000 1.0
C      1  0.4731630000000  0.4408140000000  0.4113850000000 1.0
C      1  0.4653610000000  0.4855000000000  0.6002980000000 1.0
C      1  0.5349080000000  0.5154950000000  0.6033580000000 1.0
C      1  0.4655130000000  0.4850800000000  0.3977340000000 1.0
C      1  0.5347710000000  0.5142050000000  0.3979390000000 1.0
C      1  0.5363010000000  0.4875080000000  0.6026550000000 1.0
C      1  0.4656290000000  0.5139640000000  0.6016500000000 1.0
C      1  0.5345900000000  0.4858700000000  0.3969580000000 1.0
C      1  0.4648900000000  0.5133200000000  0.3982360000000 1.0
C      1  0.5372290000000  0.5855210000000  0.4506610000000 1.0
C      1  0.4630080000000  0.4118410000000  0.4464980000000 1.0
C      1  0.5361780000000  0.5872890000000  0.5527610000000 1.0
C      1  0.4631830000000  0.4140390000000  0.5495560000000 1.0
C      1  0.4630370000000  0.5866620000000  0.4485460000000 1.0
C      1  0.5363930000000  0.4128770000000  0.4478800000000 1.0
C      1  0.4623830000000  0.5854200000000  0.5499100000000 1.0
C      1  0.5375020000000  0.4138850000000  0.5495260000000 1.0
C      1  0.5710570000000  0.4361730000000  0.5189350000000 1.0
C      1  0.4265740000000  0.5654750000000  0.5187570000000 1.0
C      1  0.5686370000000  0.4309420000000  0.4891090000000 1.0
C      1  0.4309060000000  0.5689870000000  0.4889330000000 1.0
C      1  0.4280640000000  0.4339450000000  0.5179470000000 1.0
C      1  0.5713720000000  0.5706400000000  0.5123820000000 1.0
C      1  0.4288770000000  0.4303060000000  0.4878830000000 1.0
C      1  0.5736330000000  0.5658000000000  0.4824410000000 1.0
C      1  0.5553160000000  0.5649230000000  0.4140460000000 1.0
C      1  0.4444550000000  0.4363280000000  0.4146950000000 1.0
C      1  0.5547880000000  0.5644370000000  0.5857440000000 1.0
C      1  0.4449430000000  0.4351510000000  0.5862170000000 1.0
C      1  0.4447320000000  0.5635660000000  0.4153740000000 1.0
C      1  0.5551380000000  0.4356860000000  0.4150720000000 1.0
C      1  0.4443070000000  0.5655610000000  0.5844690000000 1.0
C      1  0.5553650000000  0.4346840000000  0.5844040000000 1.0
C      1  0.5368710000000  0.5210290000000  0.5546120000000 1.0
C      1  0.4604720000000  0.4769660000000  0.5473930000000 1.0
C      1  0.5390570000000  0.5200260000000  0.4450620000000 1.0
C      1  0.4611240000000  0.4782100000000  0.4462430000000 1.0
C      1  0.4652320000000  0.5288780000000  0.5586540000000 1.0
C      1  0.5437730000000  0.4912510000000  0.5523360000000 1.0
C      1  0.4581110000000  0.5090370000000  0.4487210000000 1.0
C      1  0.5430110000000  0.4889450000000  0.4469800000000 1.0
C      1  0.5138140000000  0.5218550000000  0.4841520000000 1.0
C      1  0.4842680000000  0.4775780000000  0.4850290000000 1.0
C      1  0.5151010000000  0.5244640000000  0.5150640000000 1.0
C      1  0.4838440000000  0.4794170000000  0.5135570000000 1.0
C      1  0.4875040000000  0.5296650000000  0.4880670000000 1.0
C      1  0.5147450000000  0.4742200000000  0.4851480000000 1.0
C      1  0.4859800000000  0.5258110000000  0.5154870000000 1.0
C      1  0.5124890000000  0.4759240000000  0.5136750000000 1.0
C      1  0.4228070000000  0.4451170000000  0.5735350000000 1.0
C      1  0.5781460000000  0.5563930000000  0.5736440000000 1.0
C      1  0.4213940000000  0.4441860000000  0.4274240000000 1.0
C      1  0.5792480000000  0.5552640000000  0.4271030000000 1.0
C      1  0.5775350000000  0.4459740000000  0.5737470000000 1.0
C      1  0.4217220000000  0.5550820000000  0.5738170000000 1.0
C      1  0.5777480000000  0.4448300000000  0.4269460000000 1.0
C      1  0.4222690000000  0.5537860000000  0.4274840000000 1.0
C      1  0.5621680000000  0.5756110000000  0.4403180000000 1.0
C      1  0.4385660000000  0.4259460000000  0.4408820000000 1.0
C      1  0.5607730000000  0.5738670000000  0.5592950000000 1.0
C      1  0.4385810000000  0.4244600000000  0.5606240000000 1.0
C      1  0.4384500000000  0.5731230000000  0.4414220000000 1.0
C      1  0.5609650000000  0.4264310000000  0.4414430000000 1.0
C      1  0.4365020000000  0.5733140000000  0.5571480000000 1.0
C      1  0.5625080000000  0.4278730000000  0.5566870000000 1.0
C      1  0.4853220000000  0.4233350000000  0.5666320000000 1.0
C      1  0.5136860000000  0.5765440000000  0.5688200000000 1.0
C      1  0.4853650000000  0.4229330000000  0.4305160000000 1.0
C      1  0.5149120000000  0.5760270000000  0.4334600000000 1.0
C      1  0.5149150000000  0.4224510000000  0.5673020000000 1.0
C      1  0.4845890000000  0.5759370000000  0.5675190000000 1.0
C      1  0.5145050000000  0.4232910000000  0.4307550000000 1.0
C      1  0.4856950000000  0.5762800000000  0.4322190000000 1.0
C      1  0.4159490000000  0.4717970000000  0.4290610000000 1.0
C      1  0.5834810000000  0.5276270000000  0.4262120000000 1.0
C      1  0.4187770000000  0.4728240000000  0.5736690000000 1.0
C      1  0.5829140000000  0.5292970000000  0.5735540000000 1.0
C      1  0.5830170000000  0.4721630000000  0.4252310000000 1.0
C      1  0.4173370000000  0.5261660000000  0.4270490000000 1.0
C      1  0.5830660000000  0.4731510000000  0.5747330000000 1.0
C      1  0.4174600000000  0.5274160000000  0.5727220000000 1.0
C      1  0.5515530000000  0.4056340000000  0.4977910000000 1.0
C      1  0.4463540000000  0.5946820000000  0.4967340000000 1.0
C      1  0.4464820000000  0.4040640000000  0.4964310000000 1.0
C      1  0.5543950000000  0.5949650000000  0.5044130000000 1.0
C      1  0.5028920000000  0.5012800000000  0.5266200000000 1.0
C      1  0.5031480000000  0.4968270000000  0.4743000000000 1.0
END
