TITL C-2441168-9922-754 0.0299144065590178 125000 -24666.2599071394 0 0 167 (C1) n - 1
REM
REM in /home/bkarasulu/work/CARBON/AIRSS/Generating-Clusters/ReaxFF-fromJPCA2015/Units_Real/with-SteepDescent/Higher-Symm
REM
REM
REM
REM
REM
REM ./C.cell (1df0a924f5614ab8850e4351716899ee)
REM
REM compiler GCC version 9.2.1 20190827 (Red Hat 9.2.1-1)
REM options -cpp -mtune=generic -march=x86-64 -g -O0 -fpre-include=/usr/include/finclude/math-vector-fortran.h
REM seed -70261138 -1331217131 2095476321 -1660648480 -1375669603 -956554385 26791985 2135918441 1972183006 1358315111 378524052 1396802528 -906402670 780649447 -1932651574 1078987 792313742 -1865600711 2076292186 -1312780316 1252817427 1572461357 -1600848408 -1292911394 -692490731 256466041 1603365438 -2079883723 -1209613918 -1117398960 -1223961666 -442737540 -314008730
REM
CELL 1.54180   50.00000   50.00000   50.00000   90.00000   90.00000   90.00000
LATT -1
SFAC C  
C      1  0.4837660000000  0.5428770000000  0.5512350000000 1.0
C      1  0.4730530000000  0.4518820000000  0.5458440000000 1.0
C      1  0.5541810000000  0.4910760000000  0.5451970000000 1.0
C      1  0.5935050000000  0.5250600000000  0.4464660000000 1.0
C      1  0.4337090000000  0.5608240000000  0.4461640000000 1.0
C      1  0.4827020000000  0.4154500000000  0.4511010000000 1.0
C      1  0.4789290000000  0.5561260000000  0.4982200000000 1.0
C      1  0.4533800000000  0.4523800000000  0.4997140000000 1.0
C      1  0.5628210000000  0.4893930000000  0.5133440000000 1.0
C      1  0.4891210000000  0.4600970000000  0.5872450000000 1.0
C      1  0.5338610000000  0.5106280000000  0.5858520000000 1.0
C      1  0.4757010000000  0.5190250000000  0.5927700000000 1.0
C      1  0.5432600000000  0.4601000000000  0.5841710000000 1.0
C      1  0.5252780000000  0.5609290000000  0.5883600000000 1.0
C      1  0.4502690000000  0.4968490000000  0.5622470000000 1.0
C      1  0.5190990000000  0.4478680000000  0.5467310000000 1.0
C      1  0.5357030000000  0.5403220000000  0.5402950000000 1.0
C      1  0.4459640000000  0.5218220000000  0.5225570000000 1.0
C      1  0.5221970000000  0.3970280000000  0.4861180000000 1.0
C      1  0.5743620000000  0.5586350000000  0.4842420000000 1.0
C      1  0.4061600000000  0.5373610000000  0.4816370000000 1.0
C      1  0.5011690000000  0.5215990000000  0.5214710000000 1.0
C      1  0.4707990000000  0.4861420000000  0.5139120000000 1.0
C      1  0.5161790000000  0.4822890000000  0.5258810000000 1.0
C      1  0.5150110000000  0.4454880000000  0.4915160000000 1.0
C      1  0.5474880000000  0.5461990000000  0.4789010000000 1.0
C      1  0.4324730000000  0.5245900000000  0.4812450000000 1.0
C      1  0.4620980000000  0.4694940000000  0.5967470000000 1.0
C      1  0.5296420000000  0.4833640000000  0.5953500000000 1.0
C      1  0.4945390000000  0.5381460000000  0.6006300000000 1.0
C      1  0.4761300000000  0.4538060000000  0.4089770000000 1.0
C      1  0.5529920000000  0.5007850000000  0.4109520000000 1.0
C      1  0.4722470000000  0.5432310000000  0.4095050000000 1.0
C      1  0.4098530000000  0.4710070000000  0.4499050000000 1.0
C      1  0.5690980000000  0.4368060000000  0.4497270000000 1.0
C      1  0.5207530000000  0.5905190000000  0.4514070000000 1.0
C      1  0.4309260000000  0.5834290000000  0.4718170000000 1.0
C      1  0.4623000000000  0.3996030000000  0.4736770000000 1.0
C      1  0.6064260000000  0.5180060000000  0.4743630000000 1.0
C      1  0.5999830000000  0.4789000000000  0.5384790000000 1.0
C      1  0.4658560000000  0.5864690000000  0.5413310000000 1.0
C      1  0.4363730000000  0.4238990000000  0.5391960000000 1.0
C      1  0.5297120000000  0.4510420000000  0.4126630000000 1.0
C      1  0.5272900000000  0.5473400000000  0.4168770000000 1.0
C      1  0.4432680000000  0.4980950000000  0.4136230000000 1.0
C      1  0.6075520000000  0.4906190000000  0.4661970000000 1.0
C      1  0.4540880000000  0.5949470000000  0.4609990000000 1.0
C      1  0.4411790000000  0.4138480000000  0.4610160000000 1.0
C      1  0.5847190000000  0.5237310000000  0.5524300000000 1.0
C      1  0.4364920000000  0.5628080000000  0.5456500000000 1.0
C      1  0.4830610000000  0.4054520000000  0.5507920000000 1.0
C      1  0.5509310000000  0.4216530000000  0.5234030000000 1.0
C      1  0.5448260000000  0.5876770000000  0.5276850000000 1.0
C      1  0.4023400000000  0.4969060000000  0.5300100000000 1.0
C      1  0.4715360000000  0.5285090000000  0.5088580000000 1.0
C      1  0.4733670000000  0.4589080000000  0.5179700000000 1.0
C      1  0.5481980000000  0.5096960000000  0.4982710000000 1.0
C      1  0.4328370000000  0.4749360000000  0.4999160000000 1.0
C      1  0.5528630000000  0.4675370000000  0.4972900000000 1.0
C      1  0.5064120000000  0.5616100000000  0.5048980000000 1.0
C      1  0.5344340000000  0.5143880000000  0.5559100000000 1.0
C      1  0.4799030000000  0.5166700000000  0.5621100000000 1.0
C      1  0.4959250000000  0.4639680000000  0.5587510000000 1.0
C      1  0.4970330000000  0.4685560000000  0.4488690000000 1.0
C      1  0.5209350000000  0.5116480000000  0.4504190000000 1.0
C      1  0.4727290000000  0.5123480000000  0.4552330000000 1.0
C      1  0.5714480000000  0.4864650000000  0.4281980000000 1.0
C      1  0.4749210000000  0.5681140000000  0.4238730000000 1.0
C      1  0.4539600000000  0.4443110000000  0.4248660000000 1.0
C      1  0.4210480000000  0.5663870000000  0.5211430000000 1.0
C      1  0.4832200000000  0.3957780000000  0.5213410000000 1.0
C      1  0.5932660000000  0.5328470000000  0.5252080000000 1.0
C      1  0.5225590000000  0.5335760000000  0.6004440000000 1.0
C      1  0.4761570000000  0.4934600000000  0.6080200000000 1.0
C      1  0.5019640000000  0.4787830000000  0.6059020000000 1.0
C      1  0.4656500000000  0.4528000000000  0.4737710000000 1.0
C      1  0.5582820000000  0.5044180000000  0.4724810000000 1.0
C      1  0.4736630000000  0.5522840000000  0.4710790000000 1.0
C      1  0.5292940000000  0.5994900000000  0.5062460000000 1.0
C      1  0.4053590000000  0.4748380000000  0.5096890000000 1.0
C      1  0.5723640000000  0.4246580000000  0.5030280000000 1.0
C      1  0.4048890000000  0.4456640000000  0.5140280000000 1.0
C      1  0.5928060000000  0.4444520000000  0.5071710000000 1.0
C      1  0.5013100000000  0.6055390000000  0.5114020000000 1.0
C      1  0.4750370000000  0.4861700000000  0.4411810000000 1.0
C      1  0.5208580000000  0.4835370000000  0.4410790000000 1.0
C      1  0.4965440000000  0.5249470000000  0.4432530000000 1.0
C      1  0.4175930000000  0.4641460000000  0.5626390000000 1.0
C      1  0.5766820000000  0.4421450000000  0.5577720000000 1.0
C      1  0.5097780000000  0.5921050000000  0.5611280000000 1.0
C      1  0.5544790000000  0.5590350000000  0.5285480000000 1.0
C      1  0.4167340000000  0.5215640000000  0.5221540000000 1.0
C      1  0.5217610000000  0.4274700000000  0.5178230000000 1.0
C      1  0.5387950000000  0.4012140000000  0.4649190000000 1.0
C      1  0.5665120000000  0.5802060000000  0.4667560000000 1.0
C      1  0.3951380000000  0.5175250000000  0.4628800000000 1.0
C      1  0.5047860000000  0.4150880000000  0.5661070000000 1.0
C      1  0.5690120000000  0.5440220000000  0.5647010000000 1.0
C      1  0.4313520000000  0.5395740000000  0.5582850000000 1.0
C      1  0.5726740000000  0.5412050000000  0.4331010000000 1.0
C      1  0.4251080000000  0.5394020000000  0.4274170000000 1.0
C      1  0.5033610000000  0.4162150000000  0.4295930000000 1.0
C      1  0.5260140000000  0.5642490000000  0.4844880000000 1.0
C      1  0.4288030000000  0.4959250000000  0.4812600000000 1.0
C      1  0.5439400000000  0.4481680000000  0.4830010000000 1.0
C      1  0.4471160000000  0.4547350000000  0.4527210000000 1.0
C      1  0.5630190000000  0.4814670000000  0.4560470000000 1.0
C      1  0.4875680000000  0.5662640000000  0.4512820000000 1.0
C      1  0.4178260000000  0.4321470000000  0.4913490000000 1.0
C      1  0.6004050000000  0.4650460000000  0.4851230000000 1.0
C      1  0.4817010000000  0.6008770000000  0.4900940000000 1.0
C      1  0.5792240000000  0.5552720000000  0.5132130000000 1.0
C      1  0.4042500000000  0.5448450000000  0.5099940000000 1.0
C      1  0.5103680000000  0.3994160000000  0.5111470000000 1.0
C      1  0.4437860000000  0.4698250000000  0.5741940000000 1.0
C      1  0.5686170000000  0.4648790000000  0.5739070000000 1.0
C      1  0.4993360000000  0.5729590000000  0.5800500000000 1.0
C      1  0.4935720000000  0.5933570000000  0.4626400000000 1.0
C      1  0.4213380000000  0.4440100000000  0.4637350000000 1.0
C      1  0.5792460000000  0.4596450000000  0.4642630000000 1.0
C      1  0.4618350000000  0.3999580000000  0.5025990000000 1.0
C      1  0.6035470000000  0.5159770000000  0.5038420000000 1.0
C      1  0.4345340000000  0.5822840000000  0.5006690000000 1.0
C      1  0.5548320000000  0.4241340000000  0.5518670000000 1.0
C      1  0.5382350000000  0.5869890000000  0.5559110000000 1.0
C      1  0.4086630000000  0.4917820000000  0.5574520000000 1.0
C      1  0.4470550000000  0.5272520000000  0.4124900000000 1.0
C      1  0.5023990000000  0.4399490000000  0.4123390000000 1.0
C      1  0.5510780000000  0.5299440000000  0.4164480000000 1.0
C      1  0.4926140000000  0.4442320000000  0.4664790000000 1.0
C      1  0.5439820000000  0.5249560000000  0.4603450000000 1.0
C      1  0.4519190000000  0.5352630000000  0.4622390000000 1.0
C      1  0.5201150000000  0.5155140000000  0.4988270000000 1.0
C      1  0.4757300000000  0.5037360000000  0.4902090000000 1.0
C      1  0.5099080000000  0.4731450000000  0.5002150000000 1.0
C      1  0.5473600000000  0.4344190000000  0.4298800000000 1.0
C      1  0.5337650000000  0.5713740000000  0.4325590000000 1.0
C      1  0.4197020000000  0.4909130000000  0.4302750000000 1.0
C      1  0.5371930000000  0.4687920000000  0.5386100000000 1.0
C      1  0.5093880000000  0.5478250000000  0.5307550000000 1.0
C      1  0.4530950000000  0.4965010000000  0.5325880000000 1.0
C      1  0.4400620000000  0.4207640000000  0.5090200000000 1.0
C      1  0.5974750000000  0.4878690000000  0.5102100000000 1.0
C      1  0.4631780000000  0.5847740000000  0.5083210000000 1.0
C      1  0.5977090000000  0.4972260000000  0.4389640000000 1.0
C      1  0.4512600000000  0.5825480000000  0.4350320000000 1.0
C      1  0.4558760000000  0.4172120000000  0.4364440000000 1.0
C      1  0.4257720000000  0.5140130000000  0.5681180000000 1.0
C      1  0.5307450000000  0.4307810000000  0.5702630000000 1.0
C      1  0.5496810000000  0.5650350000000  0.5719860000000 1.0
C      1  0.5315620000000  0.4805920000000  0.4136070000000 1.0
C      1  0.4998690000000  0.5347680000000  0.4161860000000 1.0
C      1  0.4684990000000  0.4823690000000  0.4129100000000 1.0
C      1  0.4080840000000  0.5174200000000  0.4366280000000 1.0
C      1  0.5307110000000  0.4120900000000  0.4382910000000 1.0
C      1  0.5620430000000  0.5679130000000  0.4406050000000 1.0
C      1  0.5821590000000  0.4917000000000  0.5585770000000 1.0
C      1  0.4734610000000  0.5669590000000  0.5630850000000 1.0
C      1  0.4612880000000  0.4260610000000  0.5537940000000 1.0
C      1  0.4012320000000  0.4897520000000  0.4707880000000 1.0
C      1  0.5616700000000  0.4211010000000  0.4741230000000 1.0
C      1  0.5386980000000  0.5910050000000  0.4763810000000 1.0
C      1  0.4914420000000  0.5993120000000  0.5392290000000 1.0
C      1  0.4149310000000  0.4427560000000  0.5419980000000 1.0
C      1  0.5952800000000  0.4508320000000  0.5355710000000 1.0
C      1  0.5056550000000  0.5023070000000  0.5452520000000 1.0
C      1  0.5037730000000  0.4963790000000  0.4850760000000 1.0
END
