TITL C-2441154-10-323 0.0934436146040724 125000 -27576.2703416264 0 0 200 (C1) n - 1
REM
REM in /home/bkarasulu/work/CARBON/AIRSS/Generating-Clusters/ReaxFF-fromJPCA2015/Units_Real/with-SteepDescent/Higher-Symm
REM
REM
REM
REM
REM
REM ./C.cell (1df0a924f5614ab8850e4351716899ee)
REM
REM compiler GCC version 9.2.1 20190827 (Red Hat 9.2.1-1)
REM options -cpp -mtune=generic -march=x86-64 -g -O0 -fpre-include=/usr/include/finclude/math-vector-fortran.h
REM seed 1113454373 -1969086970 -764572067 2079554405 1640701223 -773825468 -1028529579 -1428807854 -6181849 -762647112 -853208741 1808046320 -715382155 914624480 1812854659 -931319859 -1530816078 1853019822 -332564940 -1214660518 -580616956 -820237064 -1642016158 -94155643 -1642060739 147397977 485109575 -399930935 -557850311 -181798692 -909413274 802931375 883247992
REM
CELL 1.54180   50.00000   50.00000   50.00000   90.00000   90.00000   90.00000
LATT -1
SFAC C  
C      1  0.4090710000000  0.5659430000000  0.4854850000000 1.0
C      1  0.5307820000000  0.5677330000000  0.5857960000000 1.0
C      1  0.5568460000000  0.5715370000000  0.4305890000000 1.0
C      1  0.4046830000000  0.4262510000000  0.5098760000000 1.0
C      1  0.5312870000000  0.4131600000000  0.4224950000000 1.0
C      1  0.5598870000000  0.4296060000000  0.5724840000000 1.0
C      1  0.5898740000000  0.4279530000000  0.5181250000000 1.0
C      1  0.4618020000000  0.4416190000000  0.4078070000000 1.0
C      1  0.4426420000000  0.4289110000000  0.5716590000000 1.0
C      1  0.5874480000000  0.5747280000000  0.4941220000000 1.0
C      1  0.4711290000000  0.5752530000000  0.5870990000000 1.0
C      1  0.4445090000000  0.5739760000000  0.4292620000000 1.0
C      1  0.4133820000000  0.5385660000000  0.4422110000000 1.0
C      1  0.4845630000000  0.5521860000000  0.5990740000000 1.0
C      1  0.5965350000000  0.5439080000000  0.4534160000000 1.0
C      1  0.4214750000000  0.4471100000000  0.5643540000000 1.0
C      1  0.4814580000000  0.4589670000000  0.3938070000000 1.0
C      1  0.5966580000000  0.4491920000000  0.5361310000000 1.0
C      1  0.5775070000000  0.4543520000000  0.5607800000000 1.0
C      1  0.5105890000000  0.4636050000000  0.3991800000000 1.0
C      1  0.4131680000000  0.4481940000000  0.5304970000000 1.0
C      1  0.5801490000000  0.5511890000000  0.4302270000000 1.0
C      1  0.5139420000000  0.5474030000000  0.5989730000000 1.0
C      1  0.4010370000000  0.5414690000000  0.4683470000000 1.0
C      1  0.5482200000000  0.4132560000000  0.5524650000000 1.0
C      1  0.5058470000000  0.4206510000000  0.4189900000000 1.0
C      1  0.4232210000000  0.4080970000000  0.5229120000000 1.0
C      1  0.5539750000000  0.5862180000000  0.4567210000000 1.0
C      1  0.5200090000000  0.5884830000000  0.5672040000000 1.0
C      1  0.4299730000000  0.5862560000000  0.4808690000000 1.0
C      1  0.4456570000000  0.5905600000000  0.4532010000000 1.0
C      1  0.4885610000000  0.5847630000000  0.5666190000000 1.0
C      1  0.5641800000000  0.5901660000000  0.4884310000000 1.0
C      1  0.4434300000000  0.4159090000000  0.5458140000000 1.0
C      1  0.4777250000000  0.4067720000000  0.4245820000000 1.0
C      1  0.5616580000000  0.4172410000000  0.5226510000000 1.0
C      1  0.3962220000000  0.5330020000000  0.5451390000000 1.0
C      1  0.5881130000000  0.5087230000000  0.5660640000000 1.0
C      1  0.5150720000000  0.5157150000000  0.3944130000000 1.0
C      1  0.4008340000000  0.4859250000000  0.4616840000000 1.0
C      1  0.5858580000000  0.4719940000000  0.4294290000000 1.0
C      1  0.5145130000000  0.4897560000000  0.6034780000000 1.0
C      1  0.5943720000000  0.4881920000000  0.4520660000000 1.0
C      1  0.4134960000000  0.4885980000000  0.4353920000000 1.0
C      1  0.4914140000000  0.4701640000000  0.6078400000000 1.0
C      1  0.5957580000000  0.5241440000000  0.5420570000000 1.0
C      1  0.4148380000000  0.5352860000000  0.5688520000000 1.0
C      1  0.4865070000000  0.5115510000000  0.3925590000000 1.0
C      1  0.4703780000000  0.4557740000000  0.4913260000000 1.0
C      1  0.5021160000000  0.4582150000000  0.5258750000000 1.0
C      1  0.5178410000000  0.4430780000000  0.4833540000000 1.0
C      1  0.4557610000000  0.5579960000000  0.5009540000000 1.0
C      1  0.5169870000000  0.5454010000000  0.4610180000000 1.0
C      1  0.5244320000000  0.5597890000000  0.5338800000000 1.0
C      1  0.5271380000000  0.5420370000000  0.5125570000000 1.0
C      1  0.4991710000000  0.5583830000000  0.4785740000000 1.0
C      1  0.4764630000000  0.5452980000000  0.5169900000000 1.0
C      1  0.5440720000000  0.4518810000000  0.4922400000000 1.0
C      1  0.4847130000000  0.4387150000000  0.5375540000000 1.0
C      1  0.4748830000000  0.4424340000000  0.4651550000000 1.0
C      1  0.4682610000000  0.4060550000000  0.5001830000000 1.0
C      1  0.5116300000000  0.3988980000000  0.5240240000000 1.0
C      1  0.5129970000000  0.4159370000000  0.4776790000000 1.0
C      1  0.4702570000000  0.6021660000000  0.4998520000000 1.0
C      1  0.5133860000000  0.6000090000000  0.4725730000000 1.0
C      1  0.5102780000000  0.5917480000000  0.5254650000000 1.0
C      1  0.5232690000000  0.6004330000000  0.4996850000000 1.0
C      1  0.4881260000000  0.5860030000000  0.4769510000000 1.0
C      1  0.4770980000000  0.6021740000000  0.5276270000000 1.0
C      1  0.5253570000000  0.3995270000000  0.4975720000000 1.0
C      1  0.4854340000000  0.4092760000000  0.5237860000000 1.0
C      1  0.4843250000000  0.4119740000000  0.4733680000000 1.0
C      1  0.5673740000000  0.5573720000000  0.5237010000000 1.0
C      1  0.4867830000000  0.5719120000000  0.4334450000000 1.0
C      1  0.4530380000000  0.5548650000000  0.5512090000000 1.0
C      1  0.5687130000000  0.4452280000000  0.4760210000000 1.0
C      1  0.4901760000000  0.4460220000000  0.5678500000000 1.0
C      1  0.4471670000000  0.4420010000000  0.4545900000000 1.0
C      1  0.4309040000000  0.4465710000000  0.4785850000000 1.0
C      1  0.5194200000000  0.4498200000000  0.5722760000000 1.0
C      1  0.5644480000000  0.4412190000000  0.4464600000000 1.0
C      1  0.4375280000000  0.5601350000000  0.5226570000000 1.0
C      1  0.5109490000000  0.5553040000000  0.4348540000000 1.0
C      1  0.5502950000000  0.5634560000000  0.5438960000000 1.0
C      1  0.4936390000000  0.4861280000000  0.4351220000000 1.0
C      1  0.4524450000000  0.4866380000000  0.5545810000000 1.0
C      1  0.5797500000000  0.4875080000000  0.5288120000000 1.0
C      1  0.4923700000000  0.5116510000000  0.5759640000000 1.0
C      1  0.4538390000000  0.5097820000000  0.4569900000000 1.0
C      1  0.5818170000000  0.5255390000000  0.4897490000000 1.0
C      1  0.5146710000000  0.5223920000000  0.5615800000000 1.0
C      1  0.5575870000000  0.5162820000000  0.4656680000000 1.0
C      1  0.4431900000000  0.5200160000000  0.4816480000000 1.0
C      1  0.5195380000000  0.5030730000000  0.4396380000000 1.0
C      1  0.5544230000000  0.4883480000000  0.5412920000000 1.0
C      1  0.4428440000000  0.4857510000000  0.5272260000000 1.0
C      1  0.3932970000000  0.5138020000000  0.4732690000000 1.0
C      1  0.5229030000000  0.5193040000000  0.6057260000000 1.0
C      1  0.5784390000000  0.5241570000000  0.4242600000000 1.0
C      1  0.4006140000000  0.4737290000000  0.5374770000000 1.0
C      1  0.5272130000000  0.4864520000000  0.3936600000000 1.0
C      1  0.5793460000000  0.4823960000000  0.5744390000000 1.0
C      1  0.6047740000000  0.4752800000000  0.5243720000000 1.0
C      1  0.4719460000000  0.4863410000000  0.3902940000000 1.0
C      1  0.4134440000000  0.4753240000000  0.5653820000000 1.0
C      1  0.6053220000000  0.5156030000000  0.4553760000000 1.0
C      1  0.4747640000000  0.5244180000000  0.5942100000000 1.0
C      1  0.4179010000000  0.5154260000000  0.4243980000000 1.0
C      1  0.5418390000000  0.5143170000000  0.5513720000000 1.0
C      1  0.5024440000000  0.5175550000000  0.4581680000000 1.0
C      1  0.4360270000000  0.5128130000000  0.5141970000000 1.0
C      1  0.5446780000000  0.4910800000000  0.4560340000000 1.0
C      1  0.5071730000000  0.4794480000000  0.5442810000000 1.0
C      1  0.4541720000000  0.4787080000000  0.4841750000000 1.0
C      1  0.4523530000000  0.4825870000000  0.4559470000000 1.0
C      1  0.4839980000000  0.4875280000000  0.5631450000000 1.0
C      1  0.5515600000000  0.4808110000000  0.4836980000000 1.0
C      1  0.4608460000000  0.5232880000000  0.5291110000000 1.0
C      1  0.4781430000000  0.5132700000000  0.4406820000000 1.0
C      1  0.5460130000000  0.5212230000000  0.5198360000000 1.0
C      1  0.5126020000000  0.4495100000000  0.4259530000000 1.0
C      1  0.4411740000000  0.4579450000000  0.5193530000000 1.0
C      1  0.5515810000000  0.4591760000000  0.5447110000000 1.0
C      1  0.5068070000000  0.5463430000000  0.5516920000000 1.0
C      1  0.4482310000000  0.5468930000000  0.4749680000000 1.0
C      1  0.5476410000000  0.5399060000000  0.4685130000000 1.0
C      1  0.4819940000000  0.5603190000000  0.5509650000000 1.0
C      1  0.5787800000000  0.5506130000000  0.4762780000000 1.0
C      1  0.4405420000000  0.5502120000000  0.4463580000000 1.0
C      1  0.4937910000000  0.4602530000000  0.4455760000000 1.0
C      1  0.5488050000000  0.4436060000000  0.5214400000000 1.0
C      1  0.4566570000000  0.4395350000000  0.5340820000000 1.0
C      1  0.4748060000000  0.4235610000000  0.5829720000000 1.0
C      1  0.5897640000000  0.4278360000000  0.4880860000000 1.0
C      1  0.4410780000000  0.4330550000000  0.4268840000000 1.0
C      1  0.4694490000000  0.5722890000000  0.4112300000000 1.0
C      1  0.5929230000000  0.5705660000000  0.5226780000000 1.0
C      1  0.4454630000000  0.5792480000000  0.5666140000000 1.0
C      1  0.5310870000000  0.5662280000000  0.4162260000000 1.0
C      1  0.4112740000000  0.5680510000000  0.5150000000000 1.0
C      1  0.5570590000000  0.5685830000000  0.5716000000000 1.0
C      1  0.5345360000000  0.4306650000000  0.5891530000000 1.0
C      1  0.4067970000000  0.4301240000000  0.4805450000000 1.0
C      1  0.5547830000000  0.4129630000000  0.4375840000000 1.0
C      1  0.5534650000000  0.4834100000000  0.4056980000000 1.0
C      1  0.3997430000000  0.4819800000000  0.5091240000000 1.0
C      1  0.5548850000000  0.4859740000000  0.5895590000000 1.0
C      1  0.5498540000000  0.5134010000000  0.5985260000000 1.0
C      1  0.3893280000000  0.5086290000000  0.5015040000000 1.0
C      1  0.5561880000000  0.5128790000000  0.4113200000000 1.0
C      1  0.4469450000000  0.5163970000000  0.5884250000000 1.0
C      1  0.6076870000000  0.5114430000000  0.4846910000000 1.0
C      1  0.4418770000000  0.5161970000000  0.4076730000000 1.0
C      1  0.4471400000000  0.4881270000000  0.4052100000000 1.0
C      1  0.6060730000000  0.4842710000000  0.4957290000000 1.0
C      1  0.4361470000000  0.4904480000000  0.5778350000000 1.0
C      1  0.4071290000000  0.5221890000000  0.5204060000000 1.0
C      1  0.5651360000000  0.5260320000000  0.5738990000000 1.0
C      1  0.5277680000000  0.5222110000000  0.4188100000000 1.0
C      1  0.4161220000000  0.4736820000000  0.4845250000000 1.0
C      1  0.5559040000000  0.4709100000000  0.4329570000000 1.0
C      1  0.5270830000000  0.4772130000000  0.5797820000000 1.0
C      1  0.5843260000000  0.4753410000000  0.4778100000000 1.0
C      1  0.4390400000000  0.4745550000000  0.4311040000000 1.0
C      1  0.4792900000000  0.4678490000000  0.5816010000000 1.0
C      1  0.5740740000000  0.5296940000000  0.5181450000000 1.0
C      1  0.4436230000000  0.5289970000000  0.5620270000000 1.0
C      1  0.4699810000000  0.5275780000000  0.4110920000000 1.0
C      1  0.4407510000000  0.4091740000000  0.5022070000000 1.0
C      1  0.5189110000000  0.4039200000000  0.5525240000000 1.0
C      1  0.5501680000000  0.4046950000000  0.4648740000000 1.0
C      1  0.4439010000000  0.5978160000000  0.5037330000000 1.0
C      1  0.5297080000000  0.5915030000000  0.4523660000000 1.0
C      1  0.5315570000000  0.5992640000000  0.5429320000000 1.0
C      1  0.5483770000000  0.5994490000000  0.5103960000000 1.0
C      1  0.4746490000000  0.5887080000000  0.4523670000000 1.0
C      1  0.4552840000000  0.5942250000000  0.5426770000000 1.0
C      1  0.5533510000000  0.4025000000000  0.4927410000000 1.0
C      1  0.4947110000000  0.4068030000000  0.5689120000000 1.0
C      1  0.4711060000000  0.3952400000000  0.4504010000000 1.0
C      1  0.4112030000000  0.4397580000000  0.4335600000000 1.0
C      1  0.4879970000000  0.4405790000000  0.6095900000000 1.0
C      1  0.6066260000000  0.4342530000000  0.4640880000000 1.0
C      1  0.4154600000000  0.5641990000000  0.5649130000000 1.0
C      1  0.4862850000000  0.5531370000000  0.3968350000000 1.0
C      1  0.5994440000000  0.5525140000000  0.5470160000000 1.0
C      1  0.5814720000000  0.5518630000000  0.5704570000000 1.0
C      1  0.5155840000000  0.5518050000000  0.3945690000000 1.0
C      1  0.3975560000000  0.5625490000000  0.5421610000000 1.0
C      1  0.5935590000000  0.4446470000000  0.4394970000000 1.0
C      1  0.5157960000000  0.4361870000000  0.6101590000000 1.0
C      1  0.3974750000000  0.4467990000000  0.4571640000000 1.0
C      1  0.5033860000000  0.5013570000000  0.5265380000000 1.0
C      1  0.5157520000000  0.4990410000000  0.5018350000000 1.0
C      1  0.4985660000000  0.4976090000000  0.4793720000000 1.0
C      1  0.5420720000000  0.4985640000000  0.5026290000000 1.0
C      1  0.4772070000000  0.5039660000000  0.5202650000000 1.0
C      1  0.4729710000000  0.4992850000000  0.4930610000000 1.0
C      1  0.5009960000000  0.5424810000000  0.5014750000000 1.0
C      1  0.4986340000000  0.4606700000000  0.4970020000000 1.0
END
