TITL C-2441162-9305-1360 0.0304501089128372 125000 -12325.7983009504 0 0 88 (C1) n - 1
REM
REM in /home/bkarasulu/work/CARBON/AIRSS/Generating-Clusters/ReaxFF-fromJPCA2015/Units_Real/with-SteepDescent/Higher-Symm
REM
REM
REM
REM
REM
REM ./C.cell (1df0a924f5614ab8850e4351716899ee)
REM
REM compiler GCC version 9.2.1 20190827 (Red Hat 9.2.1-1)
REM options -cpp -mtune=generic -march=x86-64 -g -O0 -fpre-include=/usr/include/finclude/math-vector-fortran.h
REM seed 950765942 1630591878 -619966306 -1467118067 918401880 -330552773 -121573342 550637883 1708483079 -195380443 -1523776883 -1809928812 1543492636 231541425 1754566280 1956173686 -904896289 2134781803 2133076513 1815672745 -1064976640 -1779794285 -1967761037 669658960 -747102367 -1946949742 -1180900305 365504859 -1349507763 260712113 1544271588 457366720 -513882462
REM
CELL 1.54180   50.00000   50.00000   50.00000   90.00000   90.00000   90.00000
LATT -1
SFAC C  
C      1  0.5456700000000  0.5733010000000  0.5150000000000 1.0
C      1  0.5461090000000  0.4264360000000  0.4847240000000 1.0
C      1  0.5459730000000  0.4264040000000  0.5151980000000 1.0
C      1  0.5456190000000  0.5735390000000  0.4845530000000 1.0
C      1  0.5143600000000  0.4852840000000  0.4288230000000 1.0
C      1  0.5145990000000  0.5147040000000  0.5710700000000 1.0
C      1  0.5145720000000  0.5149370000000  0.4287800000000 1.0
C      1  0.5145550000000  0.4849170000000  0.5708390000000 1.0
C      1  0.4948480000000  0.4187080000000  0.5153070000000 1.0
C      1  0.4945790000000  0.5811510000000  0.4848040000000 1.0
C      1  0.4937140000000  0.5811910000000  0.5147850000000 1.0
C      1  0.4941380000000  0.4190960000000  0.4852030000000 1.0
C      1  0.5680500000000  0.5587570000000  0.5269230000000 1.0
C      1  0.5684410000000  0.4413610000000  0.4729450000000 1.0
C      1  0.5682760000000  0.4415200000000  0.5271920000000 1.0
C      1  0.5681690000000  0.5583940000000  0.4729640000000 1.0
C      1  0.4728980000000  0.4743380000000  0.5236670000000 1.0
C      1  0.4825980000000  0.5230190000000  0.4741500000000 1.0
C      1  0.4738670000000  0.5259100000000  0.5256340000000 1.0
C      1  0.4829020000000  0.4771190000000  0.4746900000000 1.0
C      1  0.5499430000000  0.5143010000000  0.4637470000000 1.0
C      1  0.5511640000000  0.4855360000000  0.5365420000000 1.0
C      1  0.5499920000000  0.4856180000000  0.4637660000000 1.0
C      1  0.5513530000000  0.5145690000000  0.5366670000000 1.0
C      1  0.5331190000000  0.4705440000000  0.5540600000000 1.0
C      1  0.5330150000000  0.5294760000000  0.4455040000000 1.0
C      1  0.5332320000000  0.5293990000000  0.5547230000000 1.0
C      1  0.5330880000000  0.4706090000000  0.4451080000000 1.0
C      1  0.4189300000000  0.4882270000000  0.5115820000000 1.0
C      1  0.4188690000000  0.5283230000000  0.4840750000000 1.0
C      1  0.4206230000000  0.5169980000000  0.5119420000000 1.0
C      1  0.4199240000000  0.4740920000000  0.4863270000000 1.0
C      1  0.5951360000000  0.4889510000000  0.4737890000000 1.0
C      1  0.5951530000000  0.5110570000000  0.5263450000000 1.0
C      1  0.5951760000000  0.5110200000000  0.4738050000000 1.0
C      1  0.5951970000000  0.4889830000000  0.5263220000000 1.0
C      1  0.4675580000000  0.5178600000000  0.5539660000000 1.0
C      1  0.4679680000000  0.4829310000000  0.4483540000000 1.0
C      1  0.4672440000000  0.4830850000000  0.5540050000000 1.0
C      1  0.4680980000000  0.5173530000000  0.4476430000000 1.0
C      1  0.4387680000000  0.5271520000000  0.4404200000000 1.0
C      1  0.4393530000000  0.4742880000000  0.5565860000000 1.0
C      1  0.4387470000000  0.4719770000000  0.4420130000000 1.0
C      1  0.4377780000000  0.5281350000000  0.5604660000000 1.0
C      1  0.5194220000000  0.4262010000000  0.4714080000000 1.0
C      1  0.5185960000000  0.5718720000000  0.5274840000000 1.0
C      1  0.5196910000000  0.5745070000000  0.4711540000000 1.0
C      1  0.5200420000000  0.4250870000000  0.5286210000000 1.0
C      1  0.4988460000000  0.4654020000000  0.5157010000000 1.0
C      1  0.5013600000000  0.5383100000000  0.4887830000000 1.0
C      1  0.5001720000000  0.5370650000000  0.5177960000000 1.0
C      1  0.5032880000000  0.4602860000000  0.4871080000000 1.0
C      1  0.4898050000000  0.4688220000000  0.5700160000000 1.0
C      1  0.4893190000000  0.5303960000000  0.4303170000000 1.0
C      1  0.4895460000000  0.5303100000000  0.5698910000000 1.0
C      1  0.4888860000000  0.4700840000000  0.4305780000000 1.0
C      1  0.4892250000000  0.4444450000000  0.4444620000000 1.0
C      1  0.4900090000000  0.5558940000000  0.5563520000000 1.0
C      1  0.4894170000000  0.5559330000000  0.4441830000000 1.0
C      1  0.4899800000000  0.4434710000000  0.5561700000000 1.0
C      1  0.5184540000000  0.4439610000000  0.5510530000000 1.0
C      1  0.5180180000000  0.5558790000000  0.4486470000000 1.0
C      1  0.5182010000000  0.5551260000000  0.5515510000000 1.0
C      1  0.5179200000000  0.4444540000000  0.4480040000000 1.0
C      1  0.5704650000000  0.4705780000000  0.4817990000000 1.0
C      1  0.5706170000000  0.5295190000000  0.5178430000000 1.0
C      1  0.5704650000000  0.5294600000000  0.4819320000000 1.0
C      1  0.5707460000000  0.4703450000000  0.5176810000000 1.0
C      1  0.5101980000000  0.4860960000000  0.4757010000000 1.0
C      1  0.5122560000000  0.5123230000000  0.5223680000000 1.0
C      1  0.5098750000000  0.5142560000000  0.4759530000000 1.0
C      1  0.5113840000000  0.4891880000000  0.5219390000000 1.0
C      1  0.4454200000000  0.5390950000000  0.4845420000000 1.0
C      1  0.4520260000000  0.4602880000000  0.5129960000000 1.0
C      1  0.4445820000000  0.4601860000000  0.4871880000000 1.0
C      1  0.4519560000000  0.5352790000000  0.5120360000000 1.0
C      1  0.4752060000000  0.4278590000000  0.5340270000000 1.0
C      1  0.4749310000000  0.5707250000000  0.4667310000000 1.0
C      1  0.4747580000000  0.5707960000000  0.5336030000000 1.0
C      1  0.4746230000000  0.4296010000000  0.4673240000000 1.0
C      1  0.4536110000000  0.4327850000000  0.5153090000000 1.0
C      1  0.4527890000000  0.5671390000000  0.4856270000000 1.0
C      1  0.4537260000000  0.5642790000000  0.5150200000000 1.0
C      1  0.4513740000000  0.4319050000000  0.4853450000000 1.0
C      1  0.4186450000000  0.5159320000000  0.4574010000000 1.0
C      1  0.4186230000000  0.4843950000000  0.5414930000000 1.0
C      1  0.4190870000000  0.4842360000000  0.4587280000000 1.0
C      1  0.4190780000000  0.5156570000000  0.5431270000000 1.0
END
