TITL C-2441167-4473-717 0.141640581781061 125000 -25433.5725742625 0 0 189 (C1) n - 1
REM
REM in /home/bkarasulu/work/CARBON/AIRSS/Generating-Clusters/ReaxFF-fromJPCA2015/Units_Real/with-SteepDescent/Higher-Symm
REM
REM
REM
REM
REM
REM ./C.cell (1df0a924f5614ab8850e4351716899ee)
REM
REM compiler GCC version 9.2.1 20190827 (Red Hat 9.2.1-1)
REM options -cpp -mtune=generic -march=x86-64 -g -O0 -fpre-include=/usr/include/finclude/math-vector-fortran.h
REM seed -661382583 1711992622 2133643537 716379941 -1577543877 788771601 -70992439 706594903 -1051689658 -264488853 -1601564381 -419887106 -1016436588 -1881977783 -702151334 -1303992627 1651872204 -770218687 -1850199257 2037362903 1674613710 -1375086911 -1420099206 401013134 -1460571140 -1154410154 -1655301651 1816001050 -1870903483 -1220984387 -1595854926 1107754210 -1391602108
REM
CELL 1.54180   50.00000   50.00000   50.00000   90.00000   90.00000   90.00000
LATT -1
SFAC C  
C      1  0.5539180000000  0.5806570000000  0.4514990000000 1.0
C      1  0.4626880000000  0.5954680000000  0.4446610000000 1.0
C      1  0.4351060000000  0.5864410000000  0.5129470000000 1.0
C      1  0.4902840000000  0.5851140000000  0.5583710000000 1.0
C      1  0.5546150000000  0.5867930000000  0.5308060000000 1.0
C      1  0.4273270000000  0.5725860000000  0.4734430000000 1.0
C      1  0.4507530000000  0.5769370000000  0.5619250000000 1.0
C      1  0.5311220000000  0.5748590000000  0.5730750000000 1.0
C      1  0.5768360000000  0.5777910000000  0.4937540000000 1.0
C      1  0.5025930000000  0.5782790000000  0.4284420000000 1.0
C      1  0.4965520000000  0.5246950000000  0.5624370000000 1.0
C      1  0.5517500000000  0.5312440000000  0.5206200000000 1.0
C      1  0.5380530000000  0.5398820000000  0.4657720000000 1.0
C      1  0.4693370000000  0.5290880000000  0.4477980000000 1.0
C      1  0.4383390000000  0.5377370000000  0.5030040000000 1.0
C      1  0.5163480000000  0.5968820000000  0.5192290000000 1.0
C      1  0.5249480000000  0.5937940000000  0.4915890000000 1.0
C      1  0.4998330000000  0.5949430000000  0.4776290000000 1.0
C      1  0.4776560000000  0.5984290000000  0.4944580000000 1.0
C      1  0.4873810000000  0.5991760000000  0.5208520000000 1.0
C      1  0.4661050000000  0.4662270000000  0.4975100000000 1.0
C      1  0.4949260000000  0.4659000000000  0.5052940000000 1.0
C      1  0.5101040000000  0.4645190000000  0.5290120000000 1.0
C      1  0.5358180000000  0.4717150000000  0.4873240000000 1.0
C      1  0.4931250000000  0.4790440000000  0.4629920000000 1.0
C      1  0.4361920000000  0.4113770000000  0.5058510000000 1.0
C      1  0.4857940000000  0.4125480000000  0.5651160000000 1.0
C      1  0.5582460000000  0.4101940000000  0.5355800000000 1.0
C      1  0.5493980000000  0.4110170000000  0.4555280000000 1.0
C      1  0.4726330000000  0.4099980000000  0.4376980000000 1.0
C      1  0.5362340000000  0.4355500000000  0.5117260000000 1.0
C      1  0.5131780000000  0.4341280000000  0.4709820000000 1.0
C      1  0.4834310000000  0.4368650000000  0.4677940000000 1.0
C      1  0.4608560000000  0.4431790000000  0.5158000000000 1.0
C      1  0.4934130000000  0.4481430000000  0.5452430000000 1.0
C      1  0.5361170000000  0.5080230000000  0.5164300000000 1.0
C      1  0.5286640000000  0.5134300000000  0.4692080000000 1.0
C      1  0.4832880000000  0.5067310000000  0.4632790000000 1.0
C      1  0.4654910000000  0.4938530000000  0.5050220000000 1.0
C      1  0.4947070000000  0.5074670000000  0.5401760000000 1.0
C      1  0.4381490000000  0.4738780000000  0.5723410000000 1.0
C      1  0.5555380000000  0.4766280000000  0.5814210000000 1.0
C      1  0.5920610000000  0.4744820000000  0.4788750000000 1.0
C      1  0.5074560000000  0.4746850000000  0.4061240000000 1.0
C      1  0.4050310000000  0.4757010000000  0.4664870000000 1.0
C      1  0.4723650000000  0.4512730000000  0.5979110000000 1.0
C      1  0.5838600000000  0.4508880000000  0.5558340000000 1.0
C      1  0.5777690000000  0.4513960000000  0.4383790000000 1.0
C      1  0.4640480000000  0.4515710000000  0.4071170000000 1.0
C      1  0.4012010000000  0.4503330000000  0.5050940000000 1.0
C      1  0.5071230000000  0.5106320000000  0.4321230000000 1.0
C      1  0.4432170000000  0.4978630000000  0.4717770000000 1.0
C      1  0.4545760000000  0.5079210000000  0.5483060000000 1.0
C      1  0.5316280000000  0.5051960000000  0.5581910000000 1.0
C      1  0.5666010000000  0.5091870000000  0.4839120000000 1.0
C      1  0.5799860000000  0.5327900000000  0.5278120000000 1.0
C      1  0.5495970000000  0.5240920000000  0.4297420000000 1.0
C      1  0.4576580000000  0.5288420000000  0.4231980000000 1.0
C      1  0.4191110000000  0.5303120000000  0.5219620000000 1.0
C      1  0.4933390000000  0.5297990000000  0.5941290000000 1.0
C      1  0.4420800000000  0.4296200000000  0.5620540000000 1.0
C      1  0.5397150000000  0.4329410000000  0.5720460000000 1.0
C      1  0.5824320000000  0.4302480000000  0.4848460000000 1.0
C      1  0.5113180000000  0.4310390000000  0.4166450000000 1.0
C      1  0.4254380000000  0.4331410000000  0.4654460000000 1.0
C      1  0.6106380000000  0.5079830000000  0.5067620000000 1.0
C      1  0.5389410000000  0.5041100000000  0.3947120000000 1.0
C      1  0.4129250000000  0.5080260000000  0.4310980000000 1.0
C      1  0.4077560000000  0.5090650000000  0.5602030000000 1.0
C      1  0.5302830000000  0.5055160000000  0.6101000000000 1.0
C      1  0.4047370000000  0.4485200000000  0.4768290000000 1.0
C      1  0.4481730000000  0.4483500000000  0.5826750000000 1.0
C      1  0.5631990000000  0.4495090000000  0.5752860000000 1.0
C      1  0.5891140000000  0.4490170000000  0.4644300000000 1.0
C      1  0.4928210000000  0.4491190000000  0.4036650000000 1.0
C      1  0.4638180000000  0.4888700000000  0.5683870000000 1.0
C      1  0.5577580000000  0.4933880000000  0.5575180000000 1.0
C      1  0.5743510000000  0.4924240000000  0.4646260000000 1.0
C      1  0.4889840000000  0.4922360000000  0.4203760000000 1.0
C      1  0.4204230000000  0.4908750000000  0.4869510000000 1.0
C      1  0.5486080000000  0.4089710000000  0.5080880000000 1.0
C      1  0.5207830000000  0.4081020000000  0.4559020000000 1.0
C      1  0.4682780000000  0.4121290000000  0.4664180000000 1.0
C      1  0.4639080000000  0.4129670000000  0.5206410000000 1.0
C      1  0.5050420000000  0.4152250000000  0.5434140000000 1.0
C      1  0.5574650000000  0.4306350000000  0.4349240000000 1.0
C      1  0.4557840000000  0.4319580000000  0.4271890000000 1.0
C      1  0.4161250000000  0.4285740000000  0.5179690000000 1.0
C      1  0.4915650000000  0.4324460000000  0.5864460000000 1.0
C      1  0.5797160000000  0.4302700000000  0.5364270000000 1.0
C      1  0.4474510000000  0.5513530000000  0.4829280000000 1.0
C      1  0.4600690000000  0.5358180000000  0.5471740000000 1.0
C      1  0.5229910000000  0.5339110000000  0.5548310000000 1.0
C      1  0.5648500000000  0.5366430000000  0.4767290000000 1.0
C      1  0.5095680000000  0.5365370000000  0.4258080000000 1.0
C      1  0.4494180000000  0.5924790000000  0.4922930000000 1.0
C      1  0.4750360000000  0.5790020000000  0.5386650000000 1.0
C      1  0.5333150000000  0.5872320000000  0.5439070000000 1.0
C      1  0.5516270000000  0.5855240000000  0.4797600000000 1.0
C      1  0.4878760000000  0.5804190000000  0.4547720000000 1.0
C      1  0.4858240000000  0.5658920000000  0.4076420000000 1.0
C      1  0.4045890000000  0.5587930000000  0.4861320000000 1.0
C      1  0.4600590000000  0.5640670000000  0.5863580000000 1.0
C      1  0.5681610000000  0.5593680000000  0.5636320000000 1.0
C      1  0.5786380000000  0.5663170000000  0.4449630000000 1.0
C      1  0.4752510000000  0.4602130000000  0.4542220000000 1.0
C      1  0.4426230000000  0.4609590000000  0.5185540000000 1.0
C      1  0.4873540000000  0.4700570000000  0.5630530000000 1.0
C      1  0.5499820000000  0.4602860000000  0.5099260000000 1.0
C      1  0.5330910000000  0.4580740000000  0.4612300000000 1.0
C      1  0.5879380000000  0.5015670000000  0.4403190000000 1.0
C      1  0.4665400000000  0.5041410000000  0.4042170000000 1.0
C      1  0.3960640000000  0.5011980000000  0.4992040000000 1.0
C      1  0.4704160000000  0.5036060000000  0.5979910000000 1.0
C      1  0.5854830000000  0.5032040000000  0.5618590000000 1.0
C      1  0.4407420000000  0.4128700000000  0.4780230000000 1.0
C      1  0.4609190000000  0.4128170000000  0.5509530000000 1.0
C      1  0.5347490000000  0.4143940000000  0.5514660000000 1.0
C      1  0.5620990000000  0.4102260000000  0.4821520000000 1.0
C      1  0.5020070000000  0.4093450000000  0.4339160000000 1.0
C      1  0.5316730000000  0.5508080000000  0.5122160000000 1.0
C      1  0.5165360000000  0.5478500000000  0.4879300000000 1.0
C      1  0.4746540000000  0.5505370000000  0.4684810000000 1.0
C      1  0.4823440000000  0.5499300000000  0.5261970000000 1.0
C      1  0.5112080000000  0.5486000000000  0.5318390000000 1.0
C      1  0.5217990000000  0.5317590000000  0.6028160000000 1.0
C      1  0.6019400000000  0.5359030000000  0.5090080000000 1.0
C      1  0.5426320000000  0.5329890000000  0.4014290000000 1.0
C      1  0.4167910000000  0.5348410000000  0.4436610000000 1.0
C      1  0.4171980000000  0.5354160000000  0.5508580000000 1.0
C      1  0.4725710000000  0.5004180000000  0.5287890000000 1.0
C      1  0.5187010000000  0.4950760000000  0.5346040000000 1.0
C      1  0.5403840000000  0.5001250000000  0.4905350000000 1.0
C      1  0.5059070000000  0.5177120000000  0.4584810000000 1.0
C      1  0.4656360000000  0.5117360000000  0.4858390000000 1.0
C      1  0.4501560000000  0.4775910000000  0.4044100000000 1.0
C      1  0.3929700000000  0.4775230000000  0.5160660000000 1.0
C      1  0.4815610000000  0.4779910000000  0.6079990000000 1.0
C      1  0.5967230000000  0.4778610000000  0.5513800000000 1.0
C      1  0.5773110000000  0.4782290000000  0.4258520000000 1.0
C      1  0.5766310000000  0.5140180000000  0.5879080000000 1.0
C      1  0.6058130000000  0.5170730000000  0.4575680000000 1.0
C      1  0.4898010000000  0.5148900000000  0.3862950000000 1.0
C      1  0.3866240000000  0.5119220000000  0.4737850000000 1.0
C      1  0.4435260000000  0.5156050000000  0.5933530000000 1.0
C      1  0.4013350000000  0.5368160000000  0.4681030000000 1.0
C      1  0.4515030000000  0.5380180000000  0.5752580000000 1.0
C      1  0.5651660000000  0.5422050000000  0.5842870000000 1.0
C      1  0.5920580000000  0.5454670000000  0.4646460000000 1.0
C      1  0.4970180000000  0.5395910000000  0.4009820000000 1.0
C      1  0.5978710000000  0.5579830000000  0.4897210000000 1.0
C      1  0.5327810000000  0.5599840000000  0.4070680000000 1.0
C      1  0.4251710000000  0.5623020000000  0.4453710000000 1.0
C      1  0.4254090000000  0.5639030000000  0.5560940000000 1.0
C      1  0.5387050000000  0.5535710000000  0.5915830000000 1.0
C      1  0.5857930000000  0.4412070000000  0.5109650000000 1.0
C      1  0.5358930000000  0.4431010000000  0.4224840000000 1.0
C      1  0.4375550000000  0.4462460000000  0.4447350000000 1.0
C      1  0.4214630000000  0.4379750000000  0.5451180000000 1.0
C      1  0.5163620000000  0.4464280000000  0.5822730000000 1.0
C      1  0.5036560000000  0.5770900000000  0.5786380000000 1.0
C      1  0.5800230000000  0.5818410000000  0.5223220000000 1.0
C      1  0.5317630000000  0.5777850000000  0.4292940000000 1.0
C      1  0.4452720000000  0.5765340000000  0.4302090000000 1.0
C      1  0.4163240000000  0.5763050000000  0.5306650000000 1.0
C      1  0.4231750000000  0.4986710000000  0.5825080000000 1.0
C      1  0.5577420000000  0.4970610000000  0.6021480000000 1.0
C      1  0.6121550000000  0.4997980000000  0.4789160000000 1.0
C      1  0.5124160000000  0.4967810000000  0.3857020000000 1.0
C      1  0.3933020000000  0.4962900000000  0.4495870000000 1.0
C      1  0.4028290000000  0.4864160000000  0.5415050000000 1.0
C      1  0.5096890000000  0.4847540000000  0.6044110000000 1.0
C      1  0.5978800000000  0.4875030000000  0.5245930000000 1.0
C      1  0.5511540000000  0.4909390000000  0.4201120000000 1.0
C      1  0.4324970000000  0.4867430000000  0.4248320000000 1.0
C      1  0.5852830000000  0.5583200000000  0.5416420000000 1.0
C      1  0.5679790000000  0.5452950000000  0.4310510000000 1.0
C      1  0.4590680000000  0.5565590000000  0.4134120000000 1.0
C      1  0.4028740000000  0.5547060000000  0.5146560000000 1.0
C      1  0.4874490000000  0.5590210000000  0.5940710000000 1.0
C      1  0.5135910000000  0.4756870000000  0.5763830000000 1.0
C      1  0.5790360000000  0.4684070000000  0.5083120000000 1.0
C      1  0.5327980000000  0.4682690000000  0.4343470000000 1.0
C      1  0.4463700000000  0.4748080000000  0.4502190000000 1.0
C      1  0.4262030000000  0.4670220000000  0.5434130000000 1.0
C      1  0.5112730000000  0.4274040000000  0.5007270000000 1.0
C      1  0.4942950000000  0.4120620000000  0.5162480000000 1.0
C      1  0.5078440000000  0.4744810000000  0.4862570000000 1.0
C      1  0.4888680000000  0.5425300000000  0.4942190000000 1.0
END
