TITL C-2441164-471-291 0.0818713041032109 125000 -27550.8241978109 0 0 194 (C1) n - 1
REM
REM in /home/bkarasulu/work/CARBON/AIRSS/Generating-Clusters/ReaxFF-fromJPCA2015/Units_Real/with-SteepDescent/Higher-Symm
REM
REM
REM
REM
REM
REM ./C.cell (1df0a924f5614ab8850e4351716899ee)
REM
REM compiler GCC version 9.2.1 20190827 (Red Hat 9.2.1-1)
REM options -cpp -mtune=generic -march=x86-64 -g -O0 -fpre-include=/usr/include/finclude/math-vector-fortran.h
REM seed 2140046610 -255896955 478159695 -2136747630 -763047829 545077059 -350017975 -634831014 2025352329 -1694866701 2126661302 -1586777683 1179088100 -192714383 1356142744 871203719 -237061170 1414448776 -60814552 692049241 -1071016931 -1559479868 -121353686 905073337 1164510880 409844589 1866471651 1590057476 -1841444933 438180192 -1476096803 969550640 52147429
REM
CELL 1.54180   50.00000   50.00000   50.00000   90.00000   90.00000   90.00000
LATT -1
SFAC C  
C      1  0.5495310000000  0.5903950000000  0.5692450000000 1.0
C      1  0.5482020000000  0.3935000000000  0.5405780000000 1.0
C      1  0.5467960000000  0.5097650000000  0.3946540000000 1.0
C      1  0.5187630000000  0.4657710000000  0.6029950000000 1.0
C      1  0.5204550000000  0.4381250000000  0.4078750000000 1.0
C      1  0.5205120000000  0.6096230000000  0.4840130000000 1.0
C      1  0.4248110000000  0.5558050000000  0.4298100000000 1.0
C      1  0.4256190000000  0.5348370000000  0.5816390000000 1.0
C      1  0.4195610000000  0.4156210000000  0.4889270000000 1.0
C      1  0.4970180000000  0.4264400000000  0.4173200000000 1.0
C      1  0.5016040000000  0.6034350000000  0.4623500000000 1.0
C      1  0.5028270000000  0.4890740000000  0.6099790000000 1.0
C      1  0.4791830000000  0.4476330000000  0.4487770000000 1.0
C      1  0.4767330000000  0.5677400000000  0.4793940000000 1.0
C      1  0.4799900000000  0.4746850000000  0.5746690000000 1.0
C      1  0.5097200000000  0.4459410000000  0.4874990000000 1.0
C      1  0.5081810000000  0.5404700000000  0.4526950000000 1.0
C      1  0.5008810000000  0.5194570000000  0.5618420000000 1.0
C      1  0.5995000000000  0.4841320000000  0.5449100000000 1.0
C      1  0.5996810000000  0.4645620000000  0.4685440000000 1.0
C      1  0.5988580000000  0.5427850000000  0.4840150000000 1.0
C      1  0.4776990000000  0.4827380000000  0.4795630000000 1.0
C      1  0.4746530000000  0.5241800000000  0.4998610000000 1.0
C      1  0.4689630000000  0.4841150000000  0.5238640000000 1.0
C      1  0.6048760000000  0.4572230000000  0.4963650000000 1.0
C      1  0.6015670000000  0.5253040000000  0.4615030000000 1.0
C      1  0.5912860000000  0.5112360000000  0.5422070000000 1.0
C      1  0.5028250000000  0.5675850000000  0.4925200000000 1.0
C      1  0.5023650000000  0.4911240000000  0.5604300000000 1.0
C      1  0.5030450000000  0.4587070000000  0.4407410000000 1.0
C      1  0.5209800000000  0.4949420000000  0.3894860000000 1.0
C      1  0.5227010000000  0.6009500000000  0.5593630000000 1.0
C      1  0.5233000000000  0.3967030000000  0.5564930000000 1.0
C      1  0.4696900000000  0.5020900000000  0.3994710000000 1.0
C      1  0.4724050000000  0.5878170000000  0.5483930000000 1.0
C      1  0.4775990000000  0.4163720000000  0.5586910000000 1.0
C      1  0.4962780000000  0.5318780000000  0.5146030000000 1.0
C      1  0.4779630000000  0.4597660000000  0.5262660000000 1.0
C      1  0.4964290000000  0.4950960000000  0.4644150000000 1.0
C      1  0.5182280000000  0.3903500000000  0.4972120000000 1.0
C      1  0.5245570000000  0.5534690000000  0.4018690000000 1.0
C      1  0.5227080000000  0.5639140000000  0.6015330000000 1.0
C      1  0.5402160000000  0.4801340000000  0.4314180000000 1.0
C      1  0.5385620000000  0.5661540000000  0.5198210000000 1.0
C      1  0.5428930000000  0.4568080000000  0.5432090000000 1.0
C      1  0.5333430000000  0.5546440000000  0.5457490000000 1.0
C      1  0.5379190000000  0.4358100000000  0.5238390000000 1.0
C      1  0.5365450000000  0.5085860000000  0.4340580000000 1.0
C      1  0.5214590000000  0.4998770000000  0.4745350000000 1.0
C      1  0.5201580000000  0.5163180000000  0.5175040000000 1.0
C      1  0.5254060000000  0.4917320000000  0.5017940000000 1.0
C      1  0.4013670000000  0.4937900000000  0.4508590000000 1.0
C      1  0.3997300000000  0.5441790000000  0.5165350000000 1.0
C      1  0.4014040000000  0.4503400000000  0.5401740000000 1.0
C      1  0.4087130000000  0.5003870000000  0.5642140000000 1.0
C      1  0.4180260000000  0.4426620000000  0.4473650000000 1.0
C      1  0.4071650000000  0.5639920000000  0.4668410000000 1.0
C      1  0.5114070000000  0.5379190000000  0.6106790000000 1.0
C      1  0.5142310000000  0.4002220000000  0.4704570000000 1.0
C      1  0.5105650000000  0.5766100000000  0.4163390000000 1.0
C      1  0.5952010000000  0.4298980000000  0.5004620000000 1.0
C      1  0.5933520000000  0.5279620000000  0.4345000000000 1.0
C      1  0.5870940000000  0.5283580000000  0.5639490000000 1.0
C      1  0.5921100000000  0.4949700000000  0.4711070000000 1.0
C      1  0.5932870000000  0.5242590000000  0.5066680000000 1.0
C      1  0.5989170000000  0.4778500000000  0.5164550000000 1.0
C      1  0.5628700000000  0.5039600000000  0.5354290000000 1.0
C      1  0.5368590000000  0.4551000000000  0.4789860000000 1.0
C      1  0.5328940000000  0.5466040000000  0.4677200000000 1.0
C      1  0.4302260000000  0.5563930000000  0.5642070000000 1.0
C      1  0.4271840000000  0.4135240000000  0.5174880000000 1.0
C      1  0.4308740000000  0.5283840000000  0.4243270000000 1.0
C      1  0.5012790000000  0.4550830000000  0.5309330000000 1.0
C      1  0.4913710000000  0.4997940000000  0.4358710000000 1.0
C      1  0.4939370000000  0.5558050000000  0.5297110000000 1.0
C      1  0.5303660000000  0.6099700000000  0.5336610000000 1.0
C      1  0.5274850000000  0.4182230000000  0.5752800000000 1.0
C      1  0.5177150000000  0.4649560000000  0.3895020000000 1.0
C      1  0.4994160000000  0.4249770000000  0.5805510000000 1.0
C      1  0.4897560000000  0.4661660000000  0.3943880000000 1.0
C      1  0.5108400000000  0.6085370000000  0.5125730000000 1.0
C      1  0.4349930000000  0.4992660000000  0.4778760000000 1.0
C      1  0.4198950000000  0.5004290000000  0.5011890000000 1.0
C      1  0.4214870000000  0.4737000000000  0.5118540000000 1.0
C      1  0.5274500000000  0.5536320000000  0.4959060000000 1.0
C      1  0.5169670000000  0.4716730000000  0.5454840000000 1.0
C      1  0.5277430000000  0.4637940000000  0.4520180000000 1.0
C      1  0.5828930000000  0.5012490000000  0.4285900000000 1.0
C      1  0.5779630000000  0.5550070000000  0.5487780000000 1.0
C      1  0.5815150000000  0.4245160000000  0.5253410000000 1.0
C      1  0.5118890000000  0.5211150000000  0.4324900000000 1.0
C      1  0.5091340000000  0.5445870000000  0.5511280000000 1.0
C      1  0.5123010000000  0.4367830000000  0.5147690000000 1.0
C      1  0.4295330000000  0.4571800000000  0.5747410000000 1.0
C      1  0.4339290000000  0.4572240000000  0.4272690000000 1.0
C      1  0.4283100000000  0.5815590000000  0.5021030000000 1.0
C      1  0.4388990000000  0.5177690000000  0.5403040000000 1.0
C      1  0.4367680000000  0.4547920000000  0.4953110000000 1.0
C      1  0.4379930000000  0.5249300000000  0.4678780000000 1.0
C      1  0.4636860000000  0.5004550000000  0.4312540000000 1.0
C      1  0.4660690000000  0.5617000000000  0.5326890000000 1.0
C      1  0.4611230000000  0.4411900000000  0.5393360000000 1.0
C      1  0.5464890000000  0.5140070000000  0.4612110000000 1.0
C      1  0.5480300000000  0.5237160000000  0.5226840000000 1.0
C      1  0.5511950000000  0.4779040000000  0.4994010000000 1.0
C      1  0.5823750000000  0.4264150000000  0.4735970000000 1.0
C      1  0.5674580000000  0.5694420000000  0.4392580000000 1.0
C      1  0.5728260000000  0.5072240000000  0.5782370000000 1.0
C      1  0.5706900000000  0.4987390000000  0.4546840000000 1.0
C      1  0.5727400000000  0.5432540000000  0.5169010000000 1.0
C      1  0.5582420000000  0.4765690000000  0.5273230000000 1.0
C      1  0.4846110000000  0.5648520000000  0.4089920000000 1.0
C      1  0.4841990000000  0.5478020000000  0.6041070000000 1.0
C      1  0.4728280000000  0.4078620000000  0.5019300000000 1.0
C      1  0.4520620000000  0.4670220000000  0.5577320000000 1.0
C      1  0.4555530000000  0.4707910000000  0.4434880000000 1.0
C      1  0.4531670000000  0.5630880000000  0.5026760000000 1.0
C      1  0.4277110000000  0.4804960000000  0.4098330000000 1.0
C      1  0.4287520000000  0.5896000000000  0.5297550000000 1.0
C      1  0.4291770000000  0.4278500000000  0.5699350000000 1.0
C      1  0.4580470000000  0.4106100000000  0.4525640000000 1.0
C      1  0.4546920000000  0.5886500000000  0.4477390000000 1.0
C      1  0.4514960000000  0.5034250000000  0.6036660000000 1.0
C      1  0.4159470000000  0.5026070000000  0.4261330000000 1.0
C      1  0.4181500000000  0.5638390000000  0.5389350000000 1.0
C      1  0.4162910000000  0.4254900000000  0.5420290000000 1.0
C      1  0.4988670000000  0.5410440000000  0.3961860000000 1.0
C      1  0.4964720000000  0.5717250000000  0.5899330000000 1.0
C      1  0.4939140000000  0.3950350000000  0.5156840000000 1.0
C      1  0.4044660000000  0.5655480000000  0.4966680000000 1.0
C      1  0.4075410000000  0.4707440000000  0.5611010000000 1.0
C      1  0.4047120000000  0.4655450000000  0.4572660000000 1.0
C      1  0.4554790000000  0.5409080000000  0.5503640000000 1.0
C      1  0.4526340000000  0.4280370000000  0.5122360000000 1.0
C      1  0.4544680000000  0.5247600000000  0.4431200000000 1.0
C      1  0.4560840000000  0.6048980000000  0.5316730000000 1.0
C      1  0.4564510000000  0.4248950000000  0.5765640000000 1.0
C      1  0.4537360000000  0.4789210000000  0.3973360000000 1.0
C      1  0.4263850000000  0.5776300000000  0.4477510000000 1.0
C      1  0.4252830000000  0.5082490000000  0.5893880000000 1.0
C      1  0.4323890000000  0.4195340000000  0.4625510000000 1.0
C      1  0.5216010000000  0.5112700000000  0.6042890000000 1.0
C      1  0.5348960000000  0.4132080000000  0.4550780000000 1.0
C      1  0.5168630000000  0.5890420000000  0.4417170000000 1.0
C      1  0.5459770000000  0.4738810000000  0.5939530000000 1.0
C      1  0.5400850000000  0.4286270000000  0.4289800000000 1.0
C      1  0.5463230000000  0.5977460000000  0.4778530000000 1.0
C      1  0.4737290000000  0.5954670000000  0.4683460000000 1.0
C      1  0.4743050000000  0.4857720000000  0.6021110000000 1.0
C      1  0.4720970000000  0.4230160000000  0.4303320000000 1.0
C      1  0.5651990000000  0.4434210000000  0.4293590000000 1.0
C      1  0.5673590000000  0.5888980000000  0.4951400000000 1.0
C      1  0.5653320000000  0.4590160000000  0.5787240000000 1.0
C      1  0.4955400000000  0.4746330000000  0.4210880000000 1.0
C      1  0.4991700000000  0.5826850000000  0.5153040000000 1.0
C      1  0.4988460000000  0.4525830000000  0.5864970000000 1.0
C      1  0.3968210000000  0.5192650000000  0.5009040000000 1.0
C      1  0.3978400000000  0.4568600000000  0.5117330000000 1.0
C      1  0.3914440000000  0.5145260000000  0.4717980000000 1.0
C      1  0.4788920000000  0.5475030000000  0.4542920000000 1.0
C      1  0.4732460000000  0.5256460000000  0.5666670000000 1.0
C      1  0.4870340000000  0.4376570000000  0.4732590000000 1.0
C      1  0.5476590000000  0.5028150000000  0.5928780000000 1.0
C      1  0.5524490000000  0.4262180000000  0.4759780000000 1.0
C      1  0.5415570000000  0.5769810000000  0.4552900000000 1.0
C      1  0.4967460000000  0.5122060000000  0.3912000000000 1.0
C      1  0.4960610000000  0.5897380000000  0.5671280000000 1.0
C      1  0.4969690000000  0.3970940000000  0.5440390000000 1.0
C      1  0.5692230000000  0.5836890000000  0.5495970000000 1.0
C      1  0.5678390000000  0.4141050000000  0.5484140000000 1.0
C      1  0.5688210000000  0.4929540000000  0.4040730000000 1.0
C      1  0.4111500000000  0.5221680000000  0.5445400000000 1.0
C      1  0.4092970000000  0.4433710000000  0.4873420000000 1.0
C      1  0.4066340000000  0.5356070000000  0.4603840000000 1.0
C      1  0.4506530000000  0.4760700000000  0.4731620000000 1.0
C      1  0.4509740000000  0.5365560000000  0.4918200000000 1.0
C      1  0.4484050000000  0.4908640000000  0.5405900000000 1.0
C      1  0.5485320000000  0.5372050000000  0.4042770000000 1.0
C      1  0.5479720000000  0.5678520000000  0.5874910000000 1.0
C      1  0.5431500000000  0.3906630000000  0.5123090000000 1.0
C      1  0.5787010000000  0.5623760000000  0.4942700000000 1.0
C      1  0.5820110000000  0.4808110000000  0.5685060000000 1.0
C      1  0.5857140000000  0.4453670000000  0.4519830000000 1.0
C      1  0.4697740000000  0.5673170000000  0.4339930000000 1.0
C      1  0.4657740000000  0.5274470000000  0.5942500000000 1.0
C      1  0.4817740000000  0.4092140000000  0.4733300000000 1.0
C      1  0.5539530000000  0.4327340000000  0.5683250000000 1.0
C      1  0.5585990000000  0.4668100000000  0.4127060000000 1.0
C      1  0.5554290000000  0.5927010000000  0.5242310000000 1.0
C      1  0.5708170000000  0.5462270000000  0.4233620000000 1.0
C      1  0.5535820000000  0.5489760000000  0.5656270000000 1.0
C      1  0.5556260000000  0.4181310000000  0.5088610000000 1.0
C      1  0.5843590000000  0.4966680000000  0.4989360000000 1.0
C      1  0.4784390000000  0.4962960000000  0.5025970000000 1.0
END
