TITL C-2441169-1362-64 0.00623580676722586 125000 -10547.6951849747 0 0 70 (C1) n - 1
REM
REM in /home/bkarasulu/work/CARBON/AIRSS/Generating-Clusters/ReaxFF-fromJPCA2015/Units_Real/with-SteepDescent/Higher-Symm
REM
REM
REM
REM
REM
REM ./C.cell (1df0a924f5614ab8850e4351716899ee)
REM
REM compiler GCC version 9.2.1 20190827 (Red Hat 9.2.1-1)
REM options -cpp -mtune=generic -march=x86-64 -g -O0 -fpre-include=/usr/include/finclude/math-vector-fortran.h
REM seed -1357213105 -367622139 -1175647941 -1313791653 -1193740176 1727893054 1110317615 1350051397 -2073426545 132482560 -1692851029 209981840 -2053632531 -664115706 -732753616 -752692130 485065420 -1987140348 724659116 -2129529524 -915247559 -900796825 -1921036852 186748831 -915718026 -1085809962 -467513178 753485290 -778276107 1497602193 -420519151 -1638675316 -719767886
REM
CELL 1.54180   50.00000   50.00000   50.00000   90.00000   90.00000   90.00000
LATT -1
SFAC C  
C      1  0.4833280000000  0.4830770000000  0.5657780000000 1.0
C      1  0.4786780000000  0.5113270000000  0.5651380000000 1.0
C      1  0.5038020000000  0.5251410000000  0.5644060000000 1.0
C      1  0.5241240000000  0.5049750000000  0.5650720000000 1.0
C      1  0.5119570000000  0.4793490000000  0.5655650000000 1.0
C      1  0.5429380000000  0.4930050000000  0.4523250000000 1.0
C      1  0.5066660000000  0.4570520000000  0.4524590000000 1.0
C      1  0.4610390000000  0.4802280000000  0.4518720000000 1.0
C      1  0.4684500000000  0.5318660000000  0.4507940000000 1.0
C      1  0.5202390000000  0.5393330000000  0.4521730000000 1.0
C      1  0.5022180000000  0.4741300000000  0.5100890000000 1.0
C      1  0.4764190000000  0.4895730000000  0.5103250000000 1.0
C      1  0.4828920000000  0.5188970000000  0.5103820000000 1.0
C      1  0.5130530000000  0.5211780000000  0.5101990000000 1.0
C      1  0.5251430000000  0.4935410000000  0.5098730000000 1.0
C      1  0.4555170000000  0.4369860000000  0.5157260000000 1.0
C      1  0.4261700000000  0.5224950000000  0.5154700000000 1.0
C      1  0.4964720000000  0.5782470000000  0.5157220000000 1.0
C      1  0.5740680000000  0.5246380000000  0.5156810000000 1.0
C      1  0.5464670000000  0.4381430000000  0.5155760000000 1.0
C      1  0.5735680000000  0.5246750000000  0.4855230000000 1.0
C      1  0.5464010000000  0.4379230000000  0.4854030000000 1.0
C      1  0.4554150000000  0.4368380000000  0.4855280000000 1.0
C      1  0.4262310000000  0.5227040000000  0.4852830000000 1.0
C      1  0.4986430000000  0.5769750000000  0.4859680000000 1.0
C      1  0.4924800000000  0.5488410000000  0.4456510000000 1.0
C      1  0.5440980000000  0.5222460000000  0.4457610000000 1.0
C      1  0.5348160000000  0.4649420000000  0.4454570000000 1.0
C      1  0.4774690000000  0.4559690000000  0.4454550000000 1.0
C      1  0.4513960000000  0.5080690000000  0.4453310000000 1.0
C      1  0.5082930000000  0.5493230000000  0.5487690000000 1.0
C      1  0.5481210000000  0.5075260000000  0.5505090000000 1.0
C      1  0.5222970000000  0.4573620000000  0.5504710000000 1.0
C      1  0.4660730000000  0.4657190000000  0.5507430000000 1.0
C      1  0.4569470000000  0.5217000000000  0.5505710000000 1.0
C      1  0.5017980000000  0.4294660000000  0.4659300000000 1.0
C      1  0.4336320000000  0.4765170000000  0.4654890000000 1.0
C      1  0.4568920000000  0.5561480000000  0.4654420000000 1.0
C      1  0.5398810000000  0.5576260000000  0.4665760000000 1.0
C      1  0.5677040000000  0.4797690000000  0.4657160000000 1.0
C      1  0.4854600000000  0.5617560000000  0.5365950000000 1.0
C      1  0.5554800000000  0.5312910000000  0.5367590000000 1.0
C      1  0.5470160000000  0.4581660000000  0.5364350000000 1.0
C      1  0.4747290000000  0.4426380000000  0.5366010000000 1.0
C      1  0.4376820000000  0.5062090000000  0.5364290000000 1.0
C      1  0.5765860000000  0.4955470000000  0.5145820000000 1.0
C      1  0.5198000000000  0.4263140000000  0.5147500000000 1.0
C      1  0.4358860000000  0.4585740000000  0.5146460000000 1.0
C      1  0.4403640000000  0.5479960000000  0.5145990000000 1.0
C      1  0.5248240000000  0.5707330000000  0.5173420000000 1.0
C      1  0.5533960000000  0.4555680000000  0.4642120000000 1.0
C      1  0.4743500000000  0.4355420000000  0.4643840000000 1.0
C      1  0.4308850000000  0.5045970000000  0.4641190000000 1.0
C      1  0.4830430000000  0.5673370000000  0.4646070000000 1.0
C      1  0.5587980000000  0.5369660000000  0.4647030000000 1.0
C      1  0.5529060000000  0.4866890000000  0.5297190000000 1.0
C      1  0.5037740000000  0.4458020000000  0.5299110000000 1.0
C      1  0.4495420000000  0.4797060000000  0.5298180000000 1.0
C      1  0.4647230000000  0.5413910000000  0.5298390000000 1.0
C      1  0.5295660000000  0.5445860000000  0.5293070000000 1.0
C      1  0.5207560000000  0.4248040000000  0.4866070000000 1.0
C      1  0.4350900000000  0.4571830000000  0.4864800000000 1.0
C      1  0.4390460000000  0.5482850000000  0.4863590000000 1.0
C      1  0.5272260000000  0.5727340000000  0.4879050000000 1.0
C      1  0.5779670000000  0.4962900000000  0.4864320000000 1.0
C      1  0.5034140000000  0.4761990000000  0.4770420000000 1.0
C      1  0.4780650000000  0.4888720000000  0.4773010000000 1.0
C      1  0.4825020000000  0.5179850000000  0.4777510000000 1.0
C      1  0.5117620000000  0.5213560000000  0.4774520000000 1.0
C      1  0.5235660000000  0.4953660000000  0.4771120000000 1.0
END
