TITL C-2441167-4473-52 4.61564695102367e-11 125000 -2755.36774380867 0 0 20 (Oh) n - 1
REM
REM in /home/bkarasulu/work/CARBON/AIRSS/Generating-Clusters/ReaxFF-fromJPCA2015/Units_Real/with-SteepDescent/Higher-Symm
REM
REM
REM
REM
REM
REM ./C.cell (1df0a924f5614ab8850e4351716899ee)
REM
REM compiler GCC version 9.2.1 20190827 (Red Hat 9.2.1-1)
REM options -cpp -mtune=generic -march=x86-64 -g -O0 -fpre-include=/usr/include/finclude/math-vector-fortran.h
REM seed -1960768096 -1319784500 -990745420 714791822 -153007411 1619938720 1600344732 -1428383661 1446297576 981655496 1530676396 687154870 -222341890 1194789894 -1974173175 -1220942149 -1265963045 -1347914947 -33151829 406219019 -1809325820 840759207 1280032639 478955187 -868452240 1991387238 1418422421 -35963626 296565223 -2025468961 -891559051 519794132 1882999446
REM
CELL 1.54180   50.00000   50.00000   50.00000   90.00000   90.00000   90.00000
LATT -1
SFAC C  
C      1  0.4988470000000  0.4650250000000  0.4638700000000 1.0
C      1  0.4629340000000  0.5009360000000  0.4638720000000 1.0
C      1  0.4988470000000  0.5368470000000  0.4638700000000 1.0
C      1  0.4988470000000  0.4650250000000  0.5356970000000 1.0
C      1  0.4988470000000  0.5368470000000  0.5356970000000 1.0
C      1  0.5347610000000  0.5009360000000  0.4638720000000 1.0
C      1  0.5347610000000  0.5009360000000  0.5356950000000 1.0
C      1  0.4629340000000  0.5009360000000  0.5356950000000 1.0
C      1  0.5347590000000  0.4650230000000  0.4997830000000 1.0
C      1  0.4629360000000  0.5368500000000  0.4997830000000 1.0
C      1  0.4629360000000  0.4650230000000  0.4997830000000 1.0
C      1  0.5347590000000  0.5368500000000  0.4997830000000 1.0
C      1  0.5259330000000  0.4738500000000  0.5268690000000 1.0
C      1  0.5259330000000  0.5280220000000  0.4726970000000 1.0
C      1  0.4717610000000  0.5280220000000  0.5268690000000 1.0
C      1  0.5259330000000  0.4738500000000  0.4726970000000 1.0
C      1  0.4717610000000  0.5280220000000  0.4726970000000 1.0
C      1  0.4717610000000  0.4738500000000  0.5268690000000 1.0
C      1  0.4717610000000  0.4738500000000  0.4726970000000 1.0
C      1  0.5259330000000  0.5280220000000  0.5268690000000 1.0
END
