TITL C-2441159-1093-145 0.0633291276806704 125000 -13716.8856175758 0 0 104 (C1) n - 1
REM
REM in /home/bkarasulu/work/CARBON/AIRSS/Generating-Clusters/ReaxFF-fromJPCA2015/Units_Real/with-SteepDescent/Higher-Symm
REM
REM
REM
REM
REM
REM ./C.cell (1df0a924f5614ab8850e4351716899ee)
REM
REM compiler GCC version 9.2.1 20190827 (Red Hat 9.2.1-1)
REM options -cpp -mtune=generic -march=x86-64 -g -O0 -fpre-include=/usr/include/finclude/math-vector-fortran.h
REM seed -1844228225 -98174635 164791603 -352826334 2050195709 873385383 2073068597 -1625020838 1042714134 594111022 -1706006133 1569599578 -1904755236 1248424793 -897507533 -779216966 -1722743298 -159286119 -173697625 -1368373866 1018958907 -371451483 1731169292 108516917 1829166314 -1540662889 -636603274 -1215398395 1175092317 -541727049 -987230743 -1758770400 1879755996
REM
CELL 1.54180   50.00000   50.00000   50.00000   90.00000   90.00000   90.00000
LATT -1
SFAC C  
C      1  0.4186850000000  0.4870340000000  0.4790110000000 1.0
C      1  0.4828620000000  0.4920380000000  0.4237320000000 1.0
C      1  0.5483800000000  0.4909360000000  0.4467910000000 1.0
C      1  0.5814350000000  0.4888690000000  0.5206730000000 1.0
C      1  0.5189370000000  0.4906810000000  0.5775830000000 1.0
C      1  0.4429470000000  0.4911380000000  0.5561130000000 1.0
C      1  0.5861300000000  0.5180540000000  0.4794870000000 1.0
C      1  0.5183440000000  0.5121160000000  0.4198810000000 1.0
C      1  0.4434490000000  0.5100910000000  0.4449370000000 1.0
C      1  0.4275700000000  0.5104600000000  0.5150410000000 1.0
C      1  0.4801500000000  0.5100580000000  0.5774910000000 1.0
C      1  0.5561870000000  0.5093150000000  0.5546790000000 1.0
C      1  0.5069510000000  0.4176890000000  0.4634570000000 1.0
C      1  0.5381650000000  0.4157360000000  0.4879510000000 1.0
C      1  0.5306390000000  0.4164750000000  0.5270120000000 1.0
C      1  0.4919590000000  0.4159610000000  0.5369540000000 1.0
C      1  0.4644210000000  0.4126920000000  0.5070140000000 1.0
C      1  0.4692360000000  0.4127180000000  0.4774510000000 1.0
C      1  0.4921480000000  0.5850260000000  0.4614410000000 1.0
C      1  0.4621870000000  0.5854930000000  0.4876570000000 1.0
C      1  0.4705880000000  0.5854730000000  0.5267270000000 1.0
C      1  0.5083060000000  0.5855560000000  0.5395030000000 1.0
C      1  0.5382500000000  0.5854930000000  0.5129380000000 1.0
C      1  0.5301220000000  0.5852770000000  0.4739330000000 1.0
C      1  0.4730700000000  0.5542820000000  0.5628550000000 1.0
C      1  0.4314640000000  0.5555040000000  0.5082980000000 1.0
C      1  0.4589920000000  0.5545940000000  0.4453650000000 1.0
C      1  0.5272160000000  0.5542090000000  0.4379090000000 1.0
C      1  0.5666440000000  0.5530760000000  0.4919200000000 1.0
C      1  0.5402060000000  0.5543170000000  0.5543670000000 1.0
C      1  0.5271690000000  0.4468090000000  0.5622990000000 1.0
C      1  0.5669770000000  0.4481990000000  0.5082900000000 1.0
C      1  0.5409790000000  0.4466480000000  0.4467130000000 1.0
C      1  0.4732590000000  0.4468450000000  0.4401910000000 1.0
C      1  0.4301550000000  0.4465550000000  0.4928320000000 1.0
C      1  0.4603440000000  0.4467700000000  0.5533780000000 1.0
C      1  0.5512280000000  0.4608620000000  0.5531290000000 1.0
C      1  0.4790730000000  0.4611990000000  0.5697820000000 1.0
C      1  0.4286660000000  0.4612340000000  0.5181720000000 1.0
C      1  0.4491800000000  0.4616570000000  0.4478170000000 1.0
C      1  0.5206440000000  0.4599490000000  0.4307040000000 1.0
C      1  0.5687430000000  0.4669800000000  0.4850970000000 1.0
C      1  0.4498010000000  0.5393280000000  0.5525080000000 1.0
C      1  0.5198640000000  0.5398960000000  0.5697100000000 1.0
C      1  0.5656950000000  0.5359430000000  0.5153290000000 1.0
C      1  0.5504100000000  0.5397060000000  0.4476690000000 1.0
C      1  0.4789510000000  0.5395960000000  0.4303000000000 1.0
C      1  0.4280260000000  0.5416410000000  0.4823140000000 1.0
C      1  0.5476300000000  0.4258310000000  0.5096170000000 1.0
C      1  0.5157020000000  0.4251290000000  0.5457480000000 1.0
C      1  0.4729500000000  0.4307100000000  0.5280680000000 1.0
C      1  0.4519100000000  0.4301110000000  0.4901500000000 1.0
C      1  0.4837280000000  0.4262880000000  0.4580870000000 1.0
C      1  0.5309950000000  0.4251050000000  0.4644600000000 1.0
C      1  0.4544980000000  0.5757000000000  0.5093820000000 1.0
C      1  0.4849080000000  0.5751760000000  0.5452530000000 1.0
C      1  0.5319780000000  0.5765760000000  0.5366500000000 1.0
C      1  0.5477470000000  0.5762100000000  0.4908500000000 1.0
C      1  0.5155900000000  0.5755050000000  0.4553910000000 1.0
C      1  0.4691510000000  0.5747110000000  0.4650710000000 1.0
C      1  0.4797290000000  0.4801370000000  0.4781900000000 1.0
C      1  0.5075150000000  0.4792060000000  0.4714160000000 1.0
C      1  0.5242070000000  0.4806150000000  0.4945180000000 1.0
C      1  0.5193610000000  0.4806160000000  0.5225770000000 1.0
C      1  0.4913100000000  0.4793800000000  0.5284960000000 1.0
C      1  0.4720160000000  0.4808700000000  0.5059010000000 1.0
C      1  0.5181760000000  0.5202220000000  0.4786250000000 1.0
C      1  0.4909800000000  0.5200520000000  0.4716990000000 1.0
C      1  0.4714330000000  0.5210770000000  0.4933440000000 1.0
C      1  0.4792230000000  0.5188690000000  0.5209680000000 1.0
C      1  0.5064660000000  0.5200170000000  0.5288270000000 1.0
C      1  0.5194060000000  0.5362400000000  0.5048170000000 1.0
C      1  0.4921950000000  0.4631830000000  0.4262550000000 1.0
C      1  0.5599060000000  0.4645070000000  0.4572540000000 1.0
C      1  0.5721930000000  0.4627940000000  0.5317090000000 1.0
C      1  0.5085600000000  0.4630250000000  0.5765450000000 1.0
C      1  0.4370450000000  0.4619090000000  0.5470810000000 1.0
C      1  0.4267840000000  0.4617430000000  0.4677890000000 1.0
C      1  0.5078360000000  0.5394990000000  0.4227640000000 1.0
C      1  0.4377920000000  0.5384160000000  0.4547910000000 1.0
C      1  0.4305740000000  0.5392170000000  0.5309330000000 1.0
C      1  0.4911780000000  0.5383800000000  0.5773360000000 1.0
C      1  0.5602260000000  0.5368380000000  0.5438470000000 1.0
C      1  0.5744180000000  0.5408360000000  0.4662180000000 1.0
C      1  0.4586860000000  0.5129570000000  0.5422410000000 1.0
C      1  0.4424230000000  0.5171710000000  0.4899560000000 1.0
C      1  0.4841310000000  0.5143230000000  0.4437310000000 1.0
C      1  0.5416300000000  0.5164460000000  0.4623900000000 1.0
C      1  0.5587870000000  0.5069970000000  0.5131800000000 1.0
C      1  0.5159260000000  0.5144410000000  0.5557510000000 1.0
C      1  0.5406690000000  0.4857230000000  0.5422490000000 1.0
C      1  0.5510850000000  0.4896480000000  0.4924550000000 1.0
C      1  0.5208050000000  0.4839090000000  0.4457410000000 1.0
C      1  0.4579210000000  0.4869180000000  0.4587230000000 1.0
C      1  0.4450210000000  0.4848580000000  0.5147640000000 1.0
C      1  0.4836180000000  0.4873190000000  0.5571240000000 1.0
C      1  0.4536360000000  0.5006010000000  0.5801460000000 1.0
C      1  0.5452600000000  0.5003220000000  0.5791040000000 1.0
C      1  0.5440710000000  0.5017660000000  0.4152400000000 1.0
C      1  0.5934760000000  0.4968070000000  0.4954760000000 1.0
C      1  0.4052830000000  0.5018690000000  0.4970010000000 1.0
C      1  0.4537110000000  0.5007130000000  0.4189400000000 1.0
C      1  0.5041770000000  0.5572370000000  0.5006390000000 1.0
C      1  0.4961630000000  0.4463400000000  0.5102510000000 1.0
END
