TITL C-2441166-8118-1023 0.0177647377076849 125000 -17349.2446159912 0 0 117 (C1) n - 1
REM
REM in /home/bkarasulu/work/CARBON/AIRSS/Generating-Clusters/ReaxFF-fromJPCA2015/Units_Real/with-SteepDescent/Higher-Symm
REM
REM
REM
REM
REM
REM ./C.cell (1df0a924f5614ab8850e4351716899ee)
REM
REM compiler GCC version 9.2.1 20190827 (Red Hat 9.2.1-1)
REM options -cpp -mtune=generic -march=x86-64 -g -O0 -fpre-include=/usr/include/finclude/math-vector-fortran.h
REM seed -1384132702 -430816041 -2108980225 -898164975 -461627897 -1005112054 684811165 735693591 40569305 -848453460 1756680086 -899236386 -448112324 286952841 -319158165 -1325388799 439495156 1736435253 -1997859947 1161724623 -2023856165 -1008869713 1233194112 -371051161 1720636084 327006231 819953810 1265814436 667807517 180233425 -939966773 1455492996 -1409150836
REM
CELL 1.54180   50.00000   50.00000   50.00000   90.00000   90.00000   90.00000
LATT -1
SFAC C  
C      1  0.5111640000000  0.4769720000000  0.5774920000000 1.0
C      1  0.5366670000000  0.5705090000000  0.4785040000000 1.0
C      1  0.5590980000000  0.5793010000000  0.4651630000000 1.0
C      1  0.5612460000000  0.5623220000000  0.4436000000000 1.0
C      1  0.5846580000000  0.5450730000000  0.4923680000000 1.0
C      1  0.5105930000000  0.4083110000000  0.4949980000000 1.0
C      1  0.4612840000000  0.5072470000000  0.4999380000000 1.0
C      1  0.4920650000000  0.5902860000000  0.4785310000000 1.0
C      1  0.4396620000000  0.5300470000000  0.5647920000000 1.0
C      1  0.4288830000000  0.5462910000000  0.4880710000000 1.0
C      1  0.5767830000000  0.4793260000000  0.5480020000000 1.0
C      1  0.4696970000000  0.4124640000000  0.4658470000000 1.0
C      1  0.5007180000000  0.5213770000000  0.5203120000000 1.0
C      1  0.4346860000000  0.4965620000000  0.4294860000000 1.0
C      1  0.4914620000000  0.4272660000000  0.5406820000000 1.0
C      1  0.5319320000000  0.5506150000000  0.5749890000000 1.0
C      1  0.5739900000000  0.4911580000000  0.4412640000000 1.0
C      1  0.4885550000000  0.5271330000000  0.4745690000000 1.0
C      1  0.4895510000000  0.4710150000000  0.4212250000000 1.0
C      1  0.5883490000000  0.4994810000000  0.4653200000000 1.0
C      1  0.4657870000000  0.5595330000000  0.4507350000000 1.0
C      1  0.4771190000000  0.5635850000000  0.5132090000000 1.0
C      1  0.5068130000000  0.5189380000000  0.5979810000000 1.0
C      1  0.4212850000000  0.5435260000000  0.5460510000000 1.0
C      1  0.4881650000000  0.5723600000000  0.5542640000000 1.0
C      1  0.4774980000000  0.5088630000000  0.4566810000000 1.0
C      1  0.4925240000000  0.4754670000000  0.5552680000000 1.0
C      1  0.4204910000000  0.5483870000000  0.5159340000000 1.0
C      1  0.5511550000000  0.5021720000000  0.5813380000000 1.0
C      1  0.5726790000000  0.5275040000000  0.5482820000000 1.0
C      1  0.4481680000000  0.4786870000000  0.5710370000000 1.0
C      1  0.5422000000000  0.4411480000000  0.5131130000000 1.0
C      1  0.5357690000000  0.4950010000000  0.5360490000000 1.0
C      1  0.5803710000000  0.5695060000000  0.4783980000000 1.0
C      1  0.4935650000000  0.4931890000000  0.5936070000000 1.0
C      1  0.5305890000000  0.5393850000000  0.5176860000000 1.0
C      1  0.4260550000000  0.5316670000000  0.4484290000000 1.0
C      1  0.5315350000000  0.5404940000000  0.4836640000000 1.0
C      1  0.4431420000000  0.4596720000000  0.4445300000000 1.0
C      1  0.4565570000000  0.4509740000000  0.5685490000000 1.0
C      1  0.5759260000000  0.5027990000000  0.5656300000000 1.0
C      1  0.4658440000000  0.4508020000000  0.4301660000000 1.0
C      1  0.5797420000000  0.4721680000000  0.4632160000000 1.0
C      1  0.4078000000000  0.5245240000000  0.5281880000000 1.0
C      1  0.4986180000000  0.5819890000000  0.5289700000000 1.0
C      1  0.4697800000000  0.5353730000000  0.4339220000000 1.0
C      1  0.4780290000000  0.4270610000000  0.4416450000000 1.0
C      1  0.4631510000000  0.4059040000000  0.5063670000000 1.0
C      1  0.4671710000000  0.5804260000000  0.4904900000000 1.0
C      1  0.4294690000000  0.4539310000000  0.5333040000000 1.0
C      1  0.5127420000000  0.4519020000000  0.4195230000000 1.0
C      1  0.4922980000000  0.5700930000000  0.4575300000000 1.0
C      1  0.4643150000000  0.4972380000000  0.5867140000000 1.0
C      1  0.4123310000000  0.4824720000000  0.5004320000000 1.0
C      1  0.5020990000000  0.5578230000000  0.5751120000000 1.0
C      1  0.4651060000000  0.4917470000000  0.5246770000000 1.0
C      1  0.4224770000000  0.4552420000000  0.5054440000000 1.0
C      1  0.5105790000000  0.4297880000000  0.5157980000000 1.0
C      1  0.5076310000000  0.5456990000000  0.4654230000000 1.0
C      1  0.4488070000000  0.4196430000000  0.4848920000000 1.0
C      1  0.4420570000000  0.4457460000000  0.4878080000000 1.0
C      1  0.4489340000000  0.5637940000000  0.4744970000000 1.0
C      1  0.5551180000000  0.4357610000000  0.5422080000000 1.0
C      1  0.4452050000000  0.4342620000000  0.5469900000000 1.0
C      1  0.4654180000000  0.4175270000000  0.5331900000000 1.0
C      1  0.4940270000000  0.5381810000000  0.4150960000000 1.0
C      1  0.5597590000000  0.4580380000000  0.5586470000000 1.0
C      1  0.4933090000000  0.4510780000000  0.5069470000000 1.0
C      1  0.5394540000000  0.4613470000000  0.4256680000000 1.0
C      1  0.4913770000000  0.4946930000000  0.4030090000000 1.0
C      1  0.5321250000000  0.4134110000000  0.4775890000000 1.0
C      1  0.5843570000000  0.4984440000000  0.5087070000000 1.0
C      1  0.4810500000000  0.5116390000000  0.5403510000000 1.0
C      1  0.5273490000000  0.4878020000000  0.4870740000000 1.0
C      1  0.4609140000000  0.5317410000000  0.5445940000000 1.0
C      1  0.5489600000000  0.4407320000000  0.4443760000000 1.0
C      1  0.5220120000000  0.5332070000000  0.4230550000000 1.0
C      1  0.4847460000000  0.4475240000000  0.5603930000000 1.0
C      1  0.4865510000000  0.5385600000000  0.5898900000000 1.0
C      1  0.5248460000000  0.5867420000000  0.5188410000000 1.0
C      1  0.5453290000000  0.5223940000000  0.5352170000000 1.0
C      1  0.5470300000000  0.4888360000000  0.4312520000000 1.0
C      1  0.4587310000000  0.4644010000000  0.4735950000000 1.0
C      1  0.5062300000000  0.4278210000000  0.4338590000000 1.0
C      1  0.4133350000000  0.4943890000000  0.4741740000000 1.0
C      1  0.4846130000000  0.4000900000000  0.4875670000000 1.0
C      1  0.5341290000000  0.5240830000000  0.5891170000000 1.0
C      1  0.4153370000000  0.4966080000000  0.5258600000000 1.0
C      1  0.4221000000000  0.4804530000000  0.4483430000000 1.0
C      1  0.4647460000000  0.5606350000000  0.5400180000000 1.0
C      1  0.5262930000000  0.5074230000000  0.4439700000000 1.0
C      1  0.5073830000000  0.4750160000000  0.4693930000000 1.0
C      1  0.5293690000000  0.4204420000000  0.4502530000000 1.0
C      1  0.5130540000000  0.4945940000000  0.5158680000000 1.0
C      1  0.4601710000000  0.4943540000000  0.4754390000000 1.0
C      1  0.4411550000000  0.5240720000000  0.4258010000000 1.0
C      1  0.4596590000000  0.5260720000000  0.5860910000000 1.0
C      1  0.4924190000000  0.4748210000000  0.5235390000000 1.0
C      1  0.5477260000000  0.4672010000000  0.5013540000000 1.0
C      1  0.5466040000000  0.5654900000000  0.5247630000000 1.0
C      1  0.5372970000000  0.4815980000000  0.5667840000000 1.0
C      1  0.4145360000000  0.5239480000000  0.4722490000000 1.0
C      1  0.4885970000000  0.4572600000000  0.4792740000000 1.0
C      1  0.5338210000000  0.5131550000000  0.4723590000000 1.0
C      1  0.5434770000000  0.5488930000000  0.4309580000000 1.0
C      1  0.5529360000000  0.4288950000000  0.4889310000000 1.0
C      1  0.5637440000000  0.4477210000000  0.4683940000000 1.0
C      1  0.5720530000000  0.5649640000000  0.5068890000000 1.0
C      1  0.5880760000000  0.5166970000000  0.4886250000000 1.0
C      1  0.4801410000000  0.5299370000000  0.5005050000000 1.0
C      1  0.4994930000000  0.4907200000000  0.4473620000000 1.0
C      1  0.4367830000000  0.4821940000000  0.5420950000000 1.0
C      1  0.4949540000000  0.5167630000000  0.3966650000000 1.0
C      1  0.5190630000000  0.5904490000000  0.4907630000000 1.0
C      1  0.5899790000000  0.5152740000000  0.5292340000000 1.0
C      1  0.5630540000000  0.4819960000000  0.5200670000000 1.0
C      1  0.5525900000000  0.5606720000000  0.5570390000000 1.0
END
