TITL C-2441161-5029-1158 0.0124443733105574 125000 -19488.5359313964 0 0 130 (C1) n - 1
REM
REM in /home/bkarasulu/work/CARBON/AIRSS/Generating-Clusters/ReaxFF-fromJPCA2015/Units_Real/with-SteepDescent/Higher-Symm
REM
REM
REM
REM
REM
REM ./C.cell (1df0a924f5614ab8850e4351716899ee)
REM
REM compiler GCC version 9.2.1 20190827 (Red Hat 9.2.1-1)
REM options -cpp -mtune=generic -march=x86-64 -g -O0 -fpre-include=/usr/include/finclude/math-vector-fortran.h
REM seed 834013027 1387120611 -521082207 1305010151 -2137614322 -864851624 982415717 2032977572 1805591841 -702607645 479716387 1040884488 48035012 -1274946606 210306783 -1644392342 -720350818 -322819322 -943557196 373269234 -485081405 -8659370 -594236707 -373909923 2113037211 659413740 -115032832 -642068777 1193073284 433470810 1395201351 2007401270 267456028
REM
CELL 1.54180   50.00000   50.00000   50.00000   90.00000   90.00000   90.00000
LATT -1
SFAC C  
C      1  0.5429360000000  0.4323800000000  0.5067240000000 1.0
C      1  0.4497640000000  0.4402770000000  0.5088850000000 1.0
C      1  0.4262560000000  0.5281920000000  0.5064230000000 1.0
C      1  0.5023640000000  0.5769190000000  0.5074400000000 1.0
C      1  0.5752230000000  0.5197490000000  0.5075310000000 1.0
C      1  0.5403980000000  0.5649140000000  0.4911000000000 1.0
C      1  0.4488280000000  0.5616320000000  0.4923450000000 1.0
C      1  0.4241320000000  0.4724490000000  0.4925590000000 1.0
C      1  0.5025250000000  0.4204040000000  0.4923750000000 1.0
C      1  0.5770150000000  0.4791490000000  0.4938550000000 1.0
C      1  0.5601350000000  0.4749700000000  0.5674280000000 1.0
C      1  0.4947600000000  0.4358290000000  0.5664950000000 1.0
C      1  0.4385380000000  0.4866160000000  0.5681690000000 1.0
C      1  0.4666780000000  0.5552400000000  0.5676100000000 1.0
C      1  0.5427210000000  0.5473860000000  0.5663290000000 1.0
C      1  0.5636100000000  0.5201410000000  0.4350410000000 1.0
C      1  0.4968260000000  0.5621020000000  0.4336370000000 1.0
C      1  0.4390310000000  0.5154500000000  0.4313560000000 1.0
C      1  0.4658530000000  0.4451770000000  0.4332660000000 1.0
C      1  0.5407580000000  0.4478480000000  0.4340190000000 1.0
C      1  0.5092170000000  0.4684910000000  0.5197890000000 1.0
C      1  0.4650230000000  0.4957130000000  0.5227900000000 1.0
C      1  0.4791590000000  0.5208290000000  0.5130350000000 1.0
C      1  0.5136220000000  0.5248480000000  0.5203030000000 1.0
C      1  0.5283140000000  0.4928630000000  0.5139980000000 1.0
C      1  0.5013770000000  0.5281590000000  0.4795040000000 1.0
C      1  0.4745240000000  0.5120110000000  0.4866680000000 1.0
C      1  0.4803840000000  0.4790900000000  0.4824000000000 1.0
C      1  0.5171940000000  0.4745440000000  0.4787520000000 1.0
C      1  0.5272060000000  0.5034390000000  0.4864530000000 1.0
C      1  0.5203640000000  0.5478110000000  0.4233600000000 1.0
C      1  0.5569940000000  0.4948070000000  0.4218530000000 1.0
C      1  0.5151590000000  0.4499700000000  0.4193550000000 1.0
C      1  0.4592150000000  0.4697150000000  0.4188010000000 1.0
C      1  0.4578110000000  0.5323030000000  0.4167890000000 1.0
C      1  0.5161100000000  0.4507000000000  0.5804160000000 1.0
C      1  0.5558430000000  0.4999450000000  0.5815030000000 1.0
C      1  0.5172090000000  0.5486170000000  0.5805690000000 1.0
C      1  0.4560840000000  0.5327150000000  0.5827180000000 1.0
C      1  0.4592900000000  0.4705030000000  0.5808740000000 1.0
C      1  0.5324080000000  0.5471750000000  0.5147840000000 1.0
C      1  0.5571870000000  0.4831080000000  0.5151820000000 1.0
C      1  0.5011470000000  0.4414120000000  0.5134460000000 1.0
C      1  0.4407310000000  0.4824080000000  0.5160390000000 1.0
C      1  0.4643490000000  0.5472820000000  0.5134390000000 1.0
C      1  0.5341320000000  0.4500810000000  0.4838110000000 1.0
C      1  0.5552860000000  0.5143430000000  0.4855490000000 1.0
C      1  0.4984600000000  0.5575580000000  0.4847230000000 1.0
C      1  0.4454710000000  0.5194600000000  0.4850710000000 1.0
C      1  0.4639480000000  0.4549700000000  0.4865950000000 1.0
C      1  0.4368240000000  0.4866600000000  0.4287330000000 1.0
C      1  0.4686180000000  0.5567650000000  0.4290240000000 1.0
C      1  0.5495300000000  0.5460010000000  0.4350180000000 1.0
C      1  0.5621350000000  0.4680680000000  0.4340170000000 1.0
C      1  0.4921230000000  0.4333320000000  0.4291110000000 1.0
C      1  0.4355740000000  0.5151710000000  0.5712440000000 1.0
C      1  0.4667210000000  0.4433850000000  0.5702600000000 1.0
C      1  0.5440100000000  0.4510080000000  0.5701810000000 1.0
C      1  0.5621520000000  0.5261730000000  0.5696840000000 1.0
C      1  0.4940330000000  0.5651260000000  0.5707510000000 1.0
C      1  0.5079420000000  0.4745830000000  0.4061940000000 1.0
C      1  0.4811170000000  0.4833700000000  0.4051700000000 1.0
C      1  0.4828630000000  0.5143160000000  0.4102320000000 1.0
C      1  0.5115640000000  0.5254640000000  0.4082050000000 1.0
C      1  0.5272110000000  0.4998100000000  0.4108230000000 1.0
C      1  0.5099340000000  0.5250820000000  0.5946940000000 1.0
C      1  0.4819560000000  0.5153990000000  0.5908260000000 1.0
C      1  0.4807380000000  0.4838440000000  0.5947840000000 1.0
C      1  0.5071330000000  0.4740280000000  0.5948980000000 1.0
C      1  0.5252600000000  0.4995500000000  0.5898000000000 1.0
C      1  0.5190360000000  0.5813660000000  0.5304090000000 1.0
C      1  0.5856170000000  0.5066110000000  0.5306550000000 1.0
C      1  0.5323300000000  0.4212540000000  0.5311320000000 1.0
C      1  0.4340870000000  0.4458920000000  0.5323770000000 1.0
C      1  0.4274750000000  0.5435310000000  0.5305510000000 1.0
C      1  0.5176340000000  0.4147430000000  0.4678420000000 1.0
C      1  0.5921490000000  0.4978030000000  0.4752160000000 1.0
C      1  0.5268790000000  0.5848630000000  0.4734590000000 1.0
C      1  0.4355190000000  0.5548990000000  0.4676880000000 1.0
C      1  0.4269220000000  0.4563750000000  0.4689360000000 1.0
C      1  0.5661300000000  0.5626290000000  0.4528620000000 1.0
C      1  0.5824340000000  0.4553580000000  0.4531740000000 1.0
C      1  0.4694430000000  0.4120380000000  0.4624750000000 1.0
C      1  0.4078840000000  0.5000110000000  0.4619230000000 1.0
C      1  0.4685910000000  0.5887850000000  0.4630190000000 1.0
C      1  0.5742810000000  0.4448730000000  0.5335770000000 1.0
C      1  0.5752040000000  0.5537700000000  0.5332820000000 1.0
C      1  0.4713720000000  0.5872520000000  0.5384820000000 1.0
C      1  0.4053980000000  0.4999910000000  0.5377070000000 1.0
C      1  0.4706860000000  0.4131490000000  0.5387330000000 1.0
C      1  0.4971870000000  0.5769090000000  0.4604240000000 1.0
C      1  0.5731400000000  0.5174020000000  0.4631290000000 1.0
C      1  0.5385130000000  0.4340030000000  0.4600110000000 1.0
C      1  0.4541900000000  0.4394110000000  0.4611590000000 1.0
C      1  0.4290320000000  0.5232530000000  0.4595290000000 1.0
C      1  0.5003320000000  0.4231490000000  0.5397560000000 1.0
C      1  0.5734400000000  0.4751770000000  0.5397870000000 1.0
C      1  0.5457270000000  0.5608320000000  0.5393130000000 1.0
C      1  0.4551240000000  0.5604560000000  0.5392180000000 1.0
C      1  0.4249530000000  0.4766760000000  0.5426030000000 1.0
C      1  0.5113770000000  0.4770790000000  0.4508510000000 1.0
C      1  0.4830040000000  0.4826950000000  0.4532410000000 1.0
C      1  0.4806890000000  0.5090380000000  0.4413870000000 1.0
C      1  0.5041940000000  0.5219490000000  0.4514900000000 1.0
C      1  0.5223410000000  0.5017610000000  0.4417100000000 1.0
C      1  0.5112280000000  0.5210860000000  0.5491370000000 1.0
C      1  0.4850450000000  0.5153220000000  0.5599190000000 1.0
C      1  0.4776070000000  0.4904170000000  0.5479010000000 1.0
C      1  0.5037390000000  0.4772550000000  0.5467280000000 1.0
C      1  0.5220210000000  0.4961270000000  0.5588690000000 1.0
C      1  0.5825020000000  0.5295910000000  0.5481000000000 1.0
C      1  0.5527000000000  0.4322920000000  0.5488240000000 1.0
C      1  0.4494030000000  0.4295000000000  0.5510330000000 1.0
C      1  0.4161990000000  0.5242730000000  0.5495960000000 1.0
C      1  0.4983120000000  0.5859280000000  0.5504230000000 1.0
C      1  0.5965710000000  0.4787050000000  0.4547080000000 1.0
C      1  0.5471720000000  0.5832750000000  0.4540770000000 1.0
C      1  0.4509300000000  0.5709140000000  0.4487490000000 1.0
C      1  0.4177640000000  0.4759220000000  0.4490340000000 1.0
C      1  0.4949380000000  0.4115830000000  0.4486370000000 1.0
C      1  0.5723350000000  0.4357100000000  0.5062850000000 1.0
C      1  0.4597600000000  0.4122580000000  0.5119110000000 1.0
C      1  0.4022700000000  0.5106630000000  0.5111200000000 1.0
C      1  0.4781480000000  0.5943860000000  0.5114200000000 1.0
C      1  0.5818430000000  0.5487510000000  0.5056730000000 1.0
C      1  0.5681660000000  0.5631590000000  0.4838500000000 1.0
C      1  0.4587500000000  0.5896960000000  0.4899420000000 1.0
C      1  0.4015960000000  0.4912900000000  0.4885110000000 1.0
C      1  0.4774350000000  0.4051850000000  0.4895820000000 1.0
C      1  0.5822420000000  0.4529050000000  0.4840680000000 1.0
END
