TITL C-2441166-8118-1351 0.055758286736972 125000 -13647.0117825095 0 0 103 (C1) n - 1
REM
REM in /home/bkarasulu/work/CARBON/AIRSS/Generating-Clusters/ReaxFF-fromJPCA2015/Units_Real/with-SteepDescent/Higher-Symm
REM
REM
REM
REM
REM
REM ./C.cell (1df0a924f5614ab8850e4351716899ee)
REM
REM compiler GCC version 9.2.1 20190827 (Red Hat 9.2.1-1)
REM options -cpp -mtune=generic -march=x86-64 -g -O0 -fpre-include=/usr/include/finclude/math-vector-fortran.h
REM seed 709863911 1822220872 -246935728 -1549628619 1334648793 1543255802 -1118422974 -1584333680 1262363914 -98456575 -1631992826 1695452398 -1419085937 -22979536 1104907471 -482273151 1241997819 -354206822 164187526 1405866969 -1184440141 906875175 -1580073516 1563183298 -1176354514 -99443366 -1014680379 1729257783 -1951108706 527063084 576258834 -1493457415 -1205272812
REM
CELL 1.54180   50.00000   50.00000   50.00000   90.00000   90.00000   90.00000
LATT -1
SFAC C  
C      1  0.5555780000000  0.4524340000000  0.5113610000000 1.0
C      1  0.5147800000000  0.5811120000000  0.4711730000000 1.0
C      1  0.4273410000000  0.4829660000000  0.5577550000000 1.0
C      1  0.5822930000000  0.4914450000000  0.5089530000000 1.0
C      1  0.4508000000000  0.4742640000000  0.4472130000000 1.0
C      1  0.5266440000000  0.4714130000000  0.5482830000000 1.0
C      1  0.4773060000000  0.4702860000000  0.4601040000000 1.0
C      1  0.5278390000000  0.4287520000000  0.4747190000000 1.0
C      1  0.4501720000000  0.5495410000000  0.4404960000000 1.0
C      1  0.4974950000000  0.5301050000000  0.4220300000000 1.0
C      1  0.4868860000000  0.4489610000000  0.4209580000000 1.0
C      1  0.5633970000000  0.4903510000000  0.5309620000000 1.0
C      1  0.5217240000000  0.4748310000000  0.4619710000000 1.0
C      1  0.5754830000000  0.4598720000000  0.4683310000000 1.0
C      1  0.5020540000000  0.5408380000000  0.5233910000000 1.0
C      1  0.5474610000000  0.5026440000000  0.4507230000000 1.0
C      1  0.4628790000000  0.5247610000000  0.4279730000000 1.0
C      1  0.4806850000000  0.5122950000000  0.5061410000000 1.0
C      1  0.4664870000000  0.5488120000000  0.5641930000000 1.0
C      1  0.5564140000000  0.5591080000000  0.5288530000000 1.0
C      1  0.5078020000000  0.5100280000000  0.5885000000000 1.0
C      1  0.5211620000000  0.5441980000000  0.4329030000000 1.0
C      1  0.5036820000000  0.5126980000000  0.4916900000000 1.0
C      1  0.4743870000000  0.5700020000000  0.4828330000000 1.0
C      1  0.4983100000000  0.4503490000000  0.5298030000000 1.0
C      1  0.4750580000000  0.4344520000000  0.5332370000000 1.0
C      1  0.5454340000000  0.5283880000000  0.4370370000000 1.0
C      1  0.4599330000000  0.4453990000000  0.4989690000000 1.0
C      1  0.4257330000000  0.4637430000000  0.5129210000000 1.0
C      1  0.4548050000000  0.4736570000000  0.5501300000000 1.0
C      1  0.4281920000000  0.4587670000000  0.4595990000000 1.0
C      1  0.5608210000000  0.4566130000000  0.4456510000000 1.0
C      1  0.5060210000000  0.4202970000000  0.4948760000000 1.0
C      1  0.5874640000000  0.5190870000000  0.5046820000000 1.0
C      1  0.5243890000000  0.5493980000000  0.5625850000000 1.0
C      1  0.4486430000000  0.5007650000000  0.4383220000000 1.0
C      1  0.4188040000000  0.5162240000000  0.5103230000000 1.0
C      1  0.5025750000000  0.4819580000000  0.5827010000000 1.0
C      1  0.4299160000000  0.5367880000000  0.5267660000000 1.0
C      1  0.5266520000000  0.4153710000000  0.5174570000000 1.0
C      1  0.5494670000000  0.5417800000000  0.5501290000000 1.0
C      1  0.4353120000000  0.5459100000000  0.4654840000000 1.0
C      1  0.4538140000000  0.4968130000000  0.5308950000000 1.0
C      1  0.4933650000000  0.5146860000000  0.5333920000000 1.0
C      1  0.4831910000000  0.5372220000000  0.4623620000000 1.0
C      1  0.5761080000000  0.5068140000000  0.4537370000000 1.0
C      1  0.5144670000000  0.4558190000000  0.4212430000000 1.0
C      1  0.5432660000000  0.5433950000000  0.4908420000000 1.0
C      1  0.5590300000000  0.5250900000000  0.5033470000000 1.0
C      1  0.4467480000000  0.5619080000000  0.4865630000000 1.0
C      1  0.4749740000000  0.4807590000000  0.5732430000000 1.0
C      1  0.4767500000000  0.4678250000000  0.4928270000000 1.0
C      1  0.4372390000000  0.5072420000000  0.5699560000000 1.0
C      1  0.5152340000000  0.5822620000000  0.5014780000000 1.0
C      1  0.5044560000000  0.5192100000000  0.4654730000000 1.0
C      1  0.5060260000000  0.4098200000000  0.4707600000000 1.0
C      1  0.4207880000000  0.4885350000000  0.5281140000000 1.0
C      1  0.5461420000000  0.4281890000000  0.4991270000000 1.0
C      1  0.5659990000000  0.4725820000000  0.4917450000000 1.0
C      1  0.5229940000000  0.4631110000000  0.5743670000000 1.0
C      1  0.5042500000000  0.5295220000000  0.5692670000000 1.0
C      1  0.4630200000000  0.5037970000000  0.5837810000000 1.0
C      1  0.5371220000000  0.5018090000000  0.5207940000000 1.0
C      1  0.4357720000000  0.4332240000000  0.4678180000000 1.0
C      1  0.5136060000000  0.5722220000000  0.5492570000000 1.0
C      1  0.5307010000000  0.5751290000000  0.5253540000000 1.0
C      1  0.5159870000000  0.5386430000000  0.4983900000000 1.0
C      1  0.5770420000000  0.5441530000000  0.5142960000000 1.0
C      1  0.5548790000000  0.5549740000000  0.4674680000000 1.0
C      1  0.5310640000000  0.4537160000000  0.4474790000000 1.0
C      1  0.4832640000000  0.5260070000000  0.5887860000000 1.0
C      1  0.4470560000000  0.5560040000000  0.5142240000000 1.0
C      1  0.5305400000000  0.5639970000000  0.4541150000000 1.0
C      1  0.4895240000000  0.4407400000000  0.5556050000000 1.0
C      1  0.5024210000000  0.5016420000000  0.4217960000000 1.0
C      1  0.4759760000000  0.5610430000000  0.5241900000000 1.0
C      1  0.5026100000000  0.4931210000000  0.4517530000000 1.0
C      1  0.4782160000000  0.5599720000000  0.4423620000000 1.0
C      1  0.5006220000000  0.4683470000000  0.5080430000000 1.0
C      1  0.4485140000000  0.4477950000000  0.5266440000000 1.0
C      1  0.4803960000000  0.4171400000000  0.4626410000000 1.0
C      1  0.4412990000000  0.4970800000000  0.4812750000000 1.0
C      1  0.4569100000000  0.4212790000000  0.4814340000000 1.0
C      1  0.5559080000000  0.5026960000000  0.5749870000000 1.0
C      1  0.5240680000000  0.4224100000000  0.5444590000000 1.0
C      1  0.5157690000000  0.4349270000000  0.5683410000000 1.0
C      1  0.4871670000000  0.5787360000000  0.5054750000000 1.0
C      1  0.5705550000000  0.5364790000000  0.4501320000000 1.0
C      1  0.5806740000000  0.4778900000000  0.4489150000000 1.0
C      1  0.5630490000000  0.5144910000000  0.5543830000000 1.0
C      1  0.5398990000000  0.4877760000000  0.4774380000000 1.0
C      1  0.4238360000000  0.4733850000000  0.4858330000000 1.0
C      1  0.4832820000000  0.5698390000000  0.5527920000000 1.0
C      1  0.4622920000000  0.4941870000000  0.5032940000000 1.0
C      1  0.5172280000000  0.4982330000000  0.5410070000000 1.0
C      1  0.4816180000000  0.4430100000000  0.4488450000000 1.0
C      1  0.5520640000000  0.4642260000000  0.5370990000000 1.0
C      1  0.4878530000000  0.5809720000000  0.4603670000000 1.0
C      1  0.4473300000000  0.5250500000000  0.5485180000000 1.0
C      1  0.5206320000000  0.4892240000000  0.5000770000000 1.0
C      1  0.4259580000000  0.5218840000000  0.4828440000000 1.0
C      1  0.4965450000000  0.4756560000000  0.4100690000000 1.0
C      1  0.4646150000000  0.5156300000000  0.4567000000000 1.0
END
