TITL C-2441169-1362-980 0.000144195361071041 125000 -8616.28901614882 0 0 56 (C1) n - 1
REM
REM in /home/bkarasulu/work/CARBON/AIRSS/Generating-Clusters/ReaxFF-fromJPCA2015/Units_Real/with-SteepDescent/Higher-Symm
REM
REM
REM
REM
REM
REM ./C.cell (1df0a924f5614ab8850e4351716899ee)
REM
REM compiler GCC version 9.2.1 20190827 (Red Hat 9.2.1-1)
REM options -cpp -mtune=generic -march=x86-64 -g -O0 -fpre-include=/usr/include/finclude/math-vector-fortran.h
REM seed 1328603913 -23513994 223345173 1579064502 -710016352 2006561562 -1012723517 606626580 -1920542921 239508159 -1913551010 -241922849 158716084 -1614672487 1623835661 -2028899797 -1248248873 19814227 -2026609387 740837064 -20342184 -243784737 -2145960130 685244569 611009235 -2111612994 -1609997979 -1326569272 1375087174 -1250829909 1011726805 1099256344 1059128519
REM
CELL 1.54180   50.00000   50.00000   50.00000   90.00000   90.00000   90.00000
LATT -1
SFAC C  
C      1  0.5473910000000  0.5279180000000  0.4611640000000 1.0
C      1  0.4778090000000  0.5294870000000  0.4425680000000 1.0
C      1  0.4375160000000  0.5289410000000  0.5028810000000 1.0
C      1  0.4835740000000  0.5274010000000  0.5608340000000 1.0
C      1  0.5442920000000  0.5236690000000  0.5315060000000 1.0
C      1  0.5440320000000  0.4649390000000  0.4582390000000 1.0
C      1  0.4740650000000  0.4660080000000  0.4444670000000 1.0
C      1  0.4354220000000  0.4647730000000  0.5055510000000 1.0
C      1  0.4926960000000  0.4844150000000  0.5324720000000 1.0
C      1  0.5433400000000  0.4732870000000  0.5294650000000 1.0
C      1  0.4526990000000  0.4547260000000  0.4851950000000 1.0
C      1  0.4733170000000  0.4623470000000  0.5296950000000 1.0
C      1  0.5245320000000  0.4553660000000  0.5444980000000 1.0
C      1  0.5442390000000  0.4566260000000  0.4867180000000 1.0
C      1  0.4989720000000  0.4563270000000  0.4537050000000 1.0
C      1  0.4537380000000  0.5429120000000  0.4836480000000 1.0
C      1  0.4695130000000  0.5418110000000  0.5393660000000 1.0
C      1  0.5244620000000  0.5429480000000  0.5419110000000 1.0
C      1  0.5457830000000  0.5428310000000  0.4860940000000 1.0
C      1  0.5010840000000  0.5434080000000  0.4517200000000 1.0
C      1  0.5582180000000  0.4736110000000  0.5047520000000 1.0
C      1  0.5202590000000  0.4721430000000  0.4435430000000 1.0
C      1  0.4541380000000  0.4730090000000  0.4628040000000 1.0
C      1  0.4468830000000  0.4727520000000  0.5298700000000 1.0
C      1  0.5174380000000  0.4742590000000  0.5652480000000 1.0
C      1  0.5571770000000  0.5245500000000  0.5051510000000 1.0
C      1  0.5229740000000  0.5255530000000  0.4460460000000 1.0
C      1  0.4562150000000  0.5255460000000  0.4608080000000 1.0
C      1  0.4479400000000  0.5249160000000  0.5297530000000 1.0
C      1  0.5124250000000  0.5261770000000  0.5619420000000 1.0
C      1  0.5227660000000  0.5588980000000  0.4938830000000 1.0
C      1  0.5000600000000  0.5593320000000  0.4759800000000 1.0
C      1  0.4759530000000  0.5593600000000  0.4921730000000 1.0
C      1  0.4832320000000  0.5591060000000  0.5203860000000 1.0
C      1  0.5122590000000  0.5593630000000  0.5211660000000 1.0
C      1  0.5221260000000  0.4413370000000  0.4961380000000 1.0
C      1  0.5000950000000  0.4403720000000  0.4774100000000 1.0
C      1  0.4753980000000  0.4379920000000  0.4922810000000 1.0
C      1  0.4837200000000  0.4395920000000  0.5194060000000 1.0
C      1  0.5119400000000  0.4400080000000  0.5235250000000 1.0
C      1  0.5636740000000  0.5048350000000  0.4654490000000 1.0
C      1  0.4868490000000  0.5073500000000  0.4270880000000 1.0
C      1  0.4259100000000  0.5070940000000  0.4884700000000 1.0
C      1  0.4697040000000  0.5018450000000  0.5635870000000 1.0
C      1  0.5530630000000  0.5070670000000  0.5533040000000 1.0
C      1  0.5571440000000  0.4832560000000  0.4519330000000 1.0
C      1  0.4749080000000  0.4859400000000  0.4300070000000 1.0
C      1  0.4229800000000  0.4853950000000  0.4996560000000 1.0
C      1  0.4891820000000  0.4797910000000  0.5625590000000 1.0
C      1  0.5596360000000  0.4848360000000  0.5438660000000 1.0
C      1  0.4493020000000  0.4992750000000  0.5431880000000 1.0
C      1  0.5297300000000  0.5015000000000  0.5669660000000 1.0
C      1  0.4424840000000  0.5004160000000  0.4665870000000 1.0
C      1  0.5654510000000  0.4995950000000  0.4934080000000 1.0
C      1  0.5130520000000  0.5005670000000  0.4347800000000 1.0
C      1  0.5165500000000  0.4950230000000  0.5219090000000 1.0
END
