TITL C-2441168-9922-1419 0.0519353410392127 125000 -17092.8833804968 0 0 121 (C1) n - 1
REM
REM in /home/bkarasulu/work/CARBON/AIRSS/Generating-Clusters/ReaxFF-fromJPCA2015/Units_Real/with-SteepDescent/Higher-Symm
REM
REM
REM
REM
REM
REM ./C.cell (1df0a924f5614ab8850e4351716899ee)
REM
REM compiler GCC version 9.2.1 20190827 (Red Hat 9.2.1-1)
REM options -cpp -mtune=generic -march=x86-64 -g -O0 -fpre-include=/usr/include/finclude/math-vector-fortran.h
REM seed 1449752664 584346742 -631370403 -1467925974 -1763214874 -2009487203 1633493921 1128155187 -649244409 -1616981993 -1869351208 2064243795 903963321 782549307 1334671595 138149672 870471877 1103608145 -234818856 -300612634 240333914 -1031759369 1848553628 -282125508 1227885998 -1189075361 -832618358 -1296975988 1932354795 -948551181 -1323841851 -377152541 1775657322
REM
CELL 1.54180   50.00000   50.00000   50.00000   90.00000   90.00000   90.00000
LATT -1
SFAC C  
C      1  0.4755630000000  0.4847220000000  0.5579820000000 1.0
C      1  0.5245610000000  0.5156610000000  0.5589780000000 1.0
C      1  0.4797130000000  0.4857130000000  0.4447170000000 1.0
C      1  0.5193530000000  0.5141860000000  0.4455390000000 1.0
C      1  0.4748310000000  0.5156890000000  0.5582560000000 1.0
C      1  0.5254390000000  0.4848990000000  0.5593170000000 1.0
C      1  0.4725330000000  0.5141420000000  0.4409480000000 1.0
C      1  0.5214290000000  0.4863610000000  0.4440900000000 1.0
C      1  0.5372100000000  0.4457480000000  0.5724680000000 1.0
C      1  0.4627230000000  0.5545760000000  0.5728330000000 1.0
C      1  0.5368580000000  0.4480550000000  0.4276960000000 1.0
C      1  0.4628650000000  0.5534730000000  0.4271270000000 1.0
C      1  0.5369710000000  0.5546430000000  0.5726560000000 1.0
C      1  0.4621010000000  0.4466780000000  0.5730460000000 1.0
C      1  0.5364050000000  0.5524550000000  0.4279540000000 1.0
C      1  0.4623660000000  0.4477980000000  0.4277880000000 1.0
C      1  0.4198860000000  0.4700410000000  0.4854380000000 1.0
C      1  0.5793870000000  0.5305210000000  0.4854480000000 1.0
C      1  0.4235540000000  0.4714140000000  0.5148350000000 1.0
C      1  0.5761770000000  0.5292930000000  0.5147860000000 1.0
C      1  0.4196520000000  0.5309450000000  0.4855640000000 1.0
C      1  0.5798220000000  0.4701100000000  0.4857210000000 1.0
C      1  0.4235700000000  0.5295860000000  0.5147600000000 1.0
C      1  0.5764450000000  0.4716120000000  0.5150500000000 1.0
C      1  0.5272730000000  0.5760010000000  0.5553460000000 1.0
C      1  0.4721640000000  0.4250390000000  0.5557350000000 1.0
C      1  0.5277930000000  0.5752300000000  0.4437960000000 1.0
C      1  0.4716130000000  0.4249930000000  0.4432290000000 1.0
C      1  0.5276080000000  0.4247360000000  0.5546730000000 1.0
C      1  0.4725040000000  0.5762870000000  0.5560280000000 1.0
C      1  0.5287690000000  0.4257660000000  0.4443730000000 1.0
C      1  0.4722580000000  0.5761180000000  0.4431070000000 1.0
C      1  0.4449620000000  0.5141080000000  0.5665910000000 1.0
C      1  0.5552500000000  0.4858980000000  0.5671650000000 1.0
C      1  0.4407460000000  0.5135190000000  0.4296980000000 1.0
C      1  0.5648390000000  0.4870020000000  0.4327190000000 1.0
C      1  0.4453640000000  0.4853060000000  0.5677030000000 1.0
C      1  0.5544370000000  0.5145670000000  0.5663030000000 1.0
C      1  0.4353420000000  0.4873530000000  0.4333300000000 1.0
C      1  0.5646790000000  0.5131770000000  0.4326030000000 1.0
C      1  0.5154560000000  0.4049020000000  0.4855060000000 1.0
C      1  0.4847590000000  0.5968240000000  0.4851140000000 1.0
C      1  0.5156530000000  0.4043470000000  0.5141380000000 1.0
C      1  0.4846550000000  0.5970480000000  0.5142070000000 1.0
C      1  0.5155880000000  0.5961630000000  0.4852320000000 1.0
C      1  0.4846270000000  0.4039610000000  0.4851130000000 1.0
C      1  0.5156860000000  0.5965050000000  0.5141570000000 1.0
C      1  0.4843800000000  0.4036740000000  0.5141560000000 1.0
C      1  0.4624360000000  0.5881960000000  0.5311950000000 1.0
C      1  0.5384160000000  0.4126450000000  0.5303430000000 1.0
C      1  0.4625040000000  0.5877740000000  0.4681340000000 1.0
C      1  0.5389460000000  0.4135660000000  0.4691280000000 1.0
C      1  0.4621250000000  0.4124080000000  0.5312380000000 1.0
C      1  0.5381350000000  0.5882180000000  0.5310320000000 1.0
C      1  0.4621650000000  0.4125540000000  0.4681280000000 1.0
C      1  0.5382850000000  0.5878960000000  0.4682150000000 1.0
C      1  0.4876930000000  0.5580470000000  0.5382670000000 1.0
C      1  0.5120430000000  0.4420490000000  0.5364570000000 1.0
C      1  0.4873580000000  0.5574140000000  0.4601230000000 1.0
C      1  0.5117510000000  0.4421230000000  0.4624540000000 1.0
C      1  0.4877280000000  0.4425010000000  0.5376610000000 1.0
C      1  0.5119570000000  0.5587370000000  0.5369500000000 1.0
C      1  0.4874650000000  0.4424890000000  0.4609230000000 1.0
C      1  0.5115890000000  0.5587030000000  0.4621570000000 1.0
C      1  0.5306380000000  0.5221120000000  0.4708420000000 1.0
C      1  0.4693720000000  0.4798340000000  0.4708580000000 1.0
C      1  0.5230790000000  0.5203830000000  0.5254000000000 1.0
C      1  0.4761250000000  0.4800730000000  0.5262370000000 1.0
C      1  0.5312060000000  0.4779020000000  0.4703270000000 1.0
C      1  0.4685480000000  0.5205840000000  0.4706900000000 1.0
C      1  0.5232340000000  0.4802580000000  0.5256800000000 1.0
C      1  0.4759090000000  0.5204170000000  0.5263250000000 1.0
C      1  0.5707540000000  0.4502620000000  0.5334160000000 1.0
C      1  0.4291010000000  0.5504150000000  0.5340580000000 1.0
C      1  0.5705120000000  0.4498140000000  0.4669260000000 1.0
C      1  0.4291130000000  0.5499110000000  0.4656910000000 1.0
C      1  0.5706610000000  0.5503170000000  0.5338570000000 1.0
C      1  0.4284920000000  0.4500900000000  0.5336840000000 1.0
C      1  0.5704940000000  0.5502830000000  0.4662090000000 1.0
C      1  0.4286330000000  0.4501880000000  0.4662860000000 1.0
C      1  0.4857120000000  0.4645860000000  0.5779040000000 1.0
C      1  0.5142450000000  0.5365070000000  0.5784150000000 1.0
C      1  0.4849410000000  0.4665640000000  0.4234820000000 1.0
C      1  0.5137950000000  0.5336050000000  0.4238640000000 1.0
C      1  0.4853830000000  0.5363520000000  0.5780520000000 1.0
C      1  0.5145610000000  0.4640460000000  0.5783910000000 1.0
C      1  0.4850110000000  0.5350030000000  0.4219840000000 1.0
C      1  0.5145810000000  0.4669390000000  0.4232440000000 1.0
C      1  0.5515200000000  0.4873580000000  0.5194440000000 1.0
C      1  0.4484010000000  0.5135720000000  0.5192680000000 1.0
C      1  0.5574080000000  0.4869550000000  0.4770910000000 1.0
C      1  0.4420480000000  0.5133370000000  0.4774820000000 1.0
C      1  0.5515460000000  0.5133240000000  0.5193300000000 1.0
C      1  0.4484010000000  0.4871270000000  0.5193850000000 1.0
C      1  0.5570310000000  0.5133860000000  0.4767940000000 1.0
C      1  0.4420430000000  0.4870900000000  0.4765310000000 1.0
C      1  0.5577370000000  0.4302760000000  0.4832890000000 1.0
C      1  0.4464920000000  0.5673060000000  0.4823800000000 1.0
C      1  0.5539570000000  0.4331490000000  0.5149450000000 1.0
C      1  0.4467770000000  0.5672890000000  0.5170320000000 1.0
C      1  0.5551420000000  0.5687790000000  0.4827390000000 1.0
C      1  0.4460860000000  0.4328530000000  0.4825090000000 1.0
C      1  0.5530190000000  0.5669910000000  0.5165070000000 1.0
C      1  0.4463190000000  0.4331070000000  0.5169670000000 1.0
C      1  0.5613670000000  0.5423090000000  0.5609150000000 1.0
C      1  0.4373800000000  0.4582960000000  0.5608390000000 1.0
C      1  0.5612760000000  0.5407780000000  0.4387400000000 1.0
C      1  0.4372600000000  0.4595250000000  0.4388890000000 1.0
C      1  0.5614670000000  0.4581580000000  0.5603900000000 1.0
C      1  0.4384090000000  0.5418550000000  0.5610090000000 1.0
C      1  0.5616140000000  0.4596450000000  0.4389280000000 1.0
C      1  0.4382970000000  0.5412380000000  0.4387230000000 1.0
C      1  0.5246450000000  0.5462470000000  0.4846240000000 1.0
C      1  0.4738920000000  0.4538980000000  0.4836870000000 1.0
C      1  0.5248280000000  0.5470800000000  0.5144860000000 1.0
C      1  0.4741350000000  0.4534380000000  0.5147680000000 1.0
C      1  0.5196230000000  0.4578290000000  0.4849740000000 1.0
C      1  0.4734620000000  0.5459230000000  0.4830010000000 1.0
C      1  0.5251170000000  0.4533980000000  0.5134090000000 1.0
C      1  0.4741920000000  0.5471640000000  0.5153550000000 1.0
C      1  0.5020280000000  0.5001210000000  0.5167750000000 1.0
END
