TITL C-2441163-1170-812 0.216859316867327 125000 -21238.789637695 0 0 177 (C1) n - 1
REM
REM in /home/bkarasulu/work/CARBON/AIRSS/Generating-Clusters/ReaxFF-fromJPCA2015/Units_Real/with-SteepDescent/Higher-Symm
REM
REM
REM
REM
REM
REM ./C.cell (1df0a924f5614ab8850e4351716899ee)
REM
REM compiler GCC version 9.2.1 20190827 (Red Hat 9.2.1-1)
REM options -cpp -mtune=generic -march=x86-64 -g -O0 -fpre-include=/usr/include/finclude/math-vector-fortran.h
REM seed -1634416971 -452148790 -975855453 765089930 -42699859 1867316280 2101374858 1946462601 1126164935 333221042 -1420725968 1698587559 93575234 1078260102 509237014 389651798 255317103 -1926424632 1471022979 -1848748362 236712792 -1261738562 -639698430 347535963 1831543588 -612849717 1205674493 1793431857 847394428 -1392975249 2077753905 -1946429527 247634632
REM
CELL 1.54180   50.00000   50.00000   50.00000   90.00000   90.00000   90.00000
LATT -1
SFAC C  
C      1  0.4851220000000  0.4969480000000  0.4078720000000 1.0
C      1  0.5151030000000  0.5020470000000  0.4101530000000 1.0
C      1  0.4186980000000  0.4574860000000  0.5534860000000 1.0
C      1  0.5810170000000  0.5429910000000  0.5538660000000 1.0
C      1  0.5610630000000  0.5646770000000  0.5561590000000 1.0
C      1  0.4384460000000  0.4364740000000  0.5575930000000 1.0
C      1  0.4291820000000  0.5008700000000  0.5088610000000 1.0
C      1  0.5721580000000  0.4930530000000  0.5077480000000 1.0
C      1  0.4392760000000  0.5296810000000  0.4985490000000 1.0
C      1  0.5618590000000  0.4660140000000  0.4962520000000 1.0
C      1  0.5300510000000  0.5887370000000  0.4692490000000 1.0
C      1  0.4764190000000  0.4174880000000  0.4656950000000 1.0
C      1  0.4619210000000  0.4542140000000  0.4058840000000 1.0
C      1  0.5308420000000  0.5499960000000  0.4097190000000 1.0
C      1  0.5893480000000  0.4547960000000  0.5579030000000 1.0
C      1  0.4143170000000  0.5442860000000  0.5485800000000 1.0
C      1  0.5440480000000  0.4034550000000  0.4588020000000 1.0
C      1  0.4567700000000  0.5968760000000  0.4684050000000 1.0
C      1  0.5428660000000  0.4606170000000  0.5621190000000 1.0
C      1  0.4618100000000  0.5403800000000  0.5611520000000 1.0
C      1  0.5245790000000  0.3922860000000  0.5105400000000 1.0
C      1  0.4861490000000  0.6112210000000  0.5212850000000 1.0
C      1  0.5397970000000  0.5604530000000  0.5755720000000 1.0
C      1  0.4607530000000  0.4441660000000  0.5751660000000 1.0
C      1  0.5809940000000  0.5254930000000  0.4493110000000 1.0
C      1  0.4240830000000  0.4734480000000  0.4495460000000 1.0
C      1  0.4747710000000  0.4319210000000  0.4179870000000 1.0
C      1  0.5168390000000  0.5727730000000  0.4232080000000 1.0
C      1  0.4659400000000  0.4870770000000  0.4812340000000 1.0
C      1  0.5350190000000  0.5144680000000  0.4782320000000 1.0
C      1  0.4507450000000  0.4806660000000  0.4394990000000 1.0
C      1  0.5568860000000  0.5192750000000  0.4359790000000 1.0
C      1  0.5832190000000  0.5591580000000  0.5100050000000 1.0
C      1  0.4090150000000  0.4354290000000  0.4939260000000 1.0
C      1  0.5071220000000  0.4895490000000  0.5110600000000 1.0
C      1  0.4969980000000  0.5147900000000  0.5029800000000 1.0
C      1  0.6000770000000  0.5414810000000  0.4942420000000 1.0
C      1  0.4035010000000  0.4633790000000  0.4920290000000 1.0
C      1  0.4771300000000  0.4859730000000  0.5959090000000 1.0
C      1  0.5242010000000  0.5128520000000  0.5965920000000 1.0
C      1  0.4253700000000  0.4190770000000  0.5116640000000 1.0
C      1  0.5716380000000  0.5858200000000  0.5116040000000 1.0
C      1  0.4491240000000  0.5190740000000  0.5848230000000 1.0
C      1  0.5505370000000  0.4813500000000  0.5871320000000 1.0
C      1  0.3920740000000  0.4830320000000  0.5091960000000 1.0
C      1  0.6104680000000  0.5187330000000  0.5095580000000 1.0
C      1  0.4069870000000  0.4970720000000  0.4452460000000 1.0
C      1  0.5967610000000  0.5024220000000  0.4452980000000 1.0
C      1  0.5461840000000  0.4040910000000  0.5269590000000 1.0
C      1  0.4593850000000  0.6012880000000  0.5234110000000 1.0
C      1  0.5077830000000  0.6048930000000  0.5410640000000 1.0
C      1  0.4884820000000  0.3931540000000  0.5465800000000 1.0
C      1  0.5368640000000  0.4335090000000  0.5739240000000 1.0
C      1  0.4659010000000  0.5657450000000  0.5746670000000 1.0
C      1  0.4648800000000  0.4315120000000  0.4880830000000 1.0
C      1  0.5290550000000  0.5622680000000  0.4838650000000 1.0
C      1  0.5087010000000  0.5215970000000  0.4792370000000 1.0
C      1  0.4861420000000  0.4732000000000  0.4699650000000 1.0
C      1  0.4832020000000  0.5305590000000  0.5449150000000 1.0
C      1  0.5186440000000  0.4643010000000  0.5486430000000 1.0
C      1  0.4002610000000  0.5319000000000  0.5183600000000 1.0
C      1  0.5984910000000  0.4633540000000  0.5315680000000 1.0
C      1  0.4303930000000  0.5555620000000  0.4452350000000 1.0
C      1  0.5699120000000  0.4457820000000  0.4433510000000 1.0
C      1  0.5400310000000  0.4714850000000  0.4766760000000 1.0
C      1  0.4601730000000  0.5293520000000  0.4781490000000 1.0
C      1  0.5669040000000  0.4235790000000  0.4617430000000 1.0
C      1  0.4337590000000  0.5800810000000  0.4614500000000 1.0
C      1  0.3920570000000  0.5116400000000  0.4977870000000 1.0
C      1  0.6090860000000  0.4928620000000  0.4964490000000 1.0
C      1  0.4851300000000  0.5037830000000  0.5528810000000 1.0
C      1  0.5124360000000  0.4909380000000  0.5411670000000 1.0
C      1  0.4559670000000  0.5855360000000  0.4981330000000 1.0
C      1  0.5356860000000  0.4058010000000  0.4877620000000 1.0
C      1  0.4542570000000  0.5831820000000  0.5472120000000 1.0
C      1  0.5360460000000  0.4158530000000  0.5509730000000 1.0
C      1  0.5783850000000  0.5398030000000  0.4737220000000 1.0
C      1  0.4266670000000  0.4673920000000  0.4766620000000 1.0
C      1  0.5357190000000  0.5856410000000  0.4408960000000 1.0
C      1  0.4615190000000  0.4174000000000  0.4397950000000 1.0
C      1  0.5382040000000  0.4873910000000  0.4027370000000 1.0
C      1  0.4617110000000  0.5135360000000  0.4034790000000 1.0
C      1  0.5247880000000  0.5949320000000  0.5204230000000 1.0
C      1  0.4748030000000  0.4033820000000  0.5224980000000 1.0
C      1  0.5021550000000  0.5980970000000  0.4714600000000 1.0
C      1  0.4970960000000  0.3988140000000  0.4734270000000 1.0
C      1  0.4253100000000  0.4274040000000  0.4702360000000 1.0
C      1  0.5724430000000  0.5701560000000  0.4678210000000 1.0
C      1  0.4229350000000  0.5271480000000  0.5707300000000 1.0
C      1  0.5789680000000  0.4754600000000  0.5760270000000 1.0
C      1  0.5121320000000  0.5297150000000  0.4041250000000 1.0
C      1  0.4849770000000  0.4689650000000  0.4005910000000 1.0
C      1  0.4784370000000  0.4616230000000  0.5611060000000 1.0
C      1  0.5237100000000  0.5390990000000  0.5653710000000 1.0
C      1  0.5991160000000  0.5309790000000  0.5348770000000 1.0
C      1  0.4015160000000  0.4686830000000  0.5335610000000 1.0
C      1  0.5411110000000  0.4478660000000  0.4383280000000 1.0
C      1  0.4557140000000  0.5598150000000  0.4329360000000 1.0
C      1  0.5625990000000  0.5188400000000  0.5640610000000 1.0
C      1  0.4375440000000  0.4831780000000  0.5622150000000 1.0
C      1  0.4810240000000  0.5710940000000  0.5382880000000 1.0
C      1  0.5153170000000  0.4364650000000  0.5385360000000 1.0
C      1  0.5114130000000  0.4383970000000  0.5878170000000 1.0
C      1  0.4904140000000  0.5616800000000  0.5887850000000 1.0
C      1  0.4587370000000  0.4947600000000  0.5437500000000 1.0
C      1  0.5381750000000  0.5084640000000  0.5408050000000 1.0
C      1  0.5006630000000  0.5361320000000  0.5234440000000 1.0
C      1  0.4948290000000  0.4637280000000  0.5084280000000 1.0
C      1  0.5852750000000  0.4914180000000  0.4194070000000 1.0
C      1  0.4191280000000  0.5036070000000  0.4191490000000 1.0
C      1  0.5269340000000  0.5356770000000  0.5370970000000 1.0
C      1  0.4774600000000  0.4590450000000  0.5316390000000 1.0
C      1  0.5607810000000  0.5893840000000  0.4851120000000 1.0
C      1  0.4426110000000  0.4124660000000  0.4891320000000 1.0
C      1  0.4816430000000  0.5117580000000  0.4407390000000 1.0
C      1  0.5203760000000  0.4912590000000  0.4388600000000 1.0
C      1  0.4301640000000  0.5737440000000  0.4897110000000 1.0
C      1  0.5500010000000  0.4224990000000  0.5033980000000 1.0
C      1  0.5893360000000  0.4913330000000  0.5314660000000 1.0
C      1  0.4127420000000  0.5086370000000  0.5315940000000 1.0
C      1  0.5571560000000  0.5471610000000  0.5160680000000 1.0
C      1  0.4511750000000  0.4536400000000  0.5205850000000 1.0
C      1  0.4496830000000  0.4899290000000  0.5896960000000 1.0
C      1  0.5523350000000  0.5128660000000  0.5914490000000 1.0
C      1  0.5554180000000  0.5660440000000  0.4452260000000 1.0
C      1  0.4436890000000  0.4373780000000  0.4502260000000 1.0
C      1  0.5853940000000  0.4602930000000  0.4646890000000 1.0
C      1  0.4153450000000  0.5392760000000  0.4654950000000 1.0
C      1  0.5494420000000  0.5740880000000  0.5294780000000 1.0
C      1  0.4476450000000  0.4248440000000  0.5306830000000 1.0
C      1  0.4704500000000  0.4600000000000  0.4494170000000 1.0
C      1  0.5402540000000  0.5425340000000  0.4368420000000 1.0
C      1  0.4821340000000  0.5110590000000  0.5814140000000 1.0
C      1  0.5216710000000  0.4865160000000  0.5865580000000 1.0
C      1  0.4554420000000  0.4989630000000  0.5182270000000 1.0
C      1  0.5479330000000  0.5018100000000  0.5155390000000 1.0
C      1  0.5596980000000  0.5031290000000  0.4112270000000 1.0
C      1  0.4446980000000  0.4899900000000  0.4105370000000 1.0
C      1  0.4910100000000  0.5346230000000  0.4232880000000 1.0
C      1  0.5081040000000  0.4567520000000  0.4130550000000 1.0
C      1  0.4329420000000  0.5624750000000  0.5373330000000 1.0
C      1  0.5757410000000  0.4450690000000  0.5336990000000 1.0
C      1  0.4163380000000  0.5026960000000  0.5585950000000 1.0
C      1  0.5825540000000  0.4979570000000  0.5589090000000 1.0
C      1  0.5209690000000  0.4483830000000  0.4604730000000 1.0
C      1  0.4825000000000  0.5563190000000  0.4627750000000 1.0
C      1  0.4989940000000  0.4677910000000  0.5843790000000 1.0
C      1  0.5030170000000  0.5323680000000  0.5858900000000 1.0
C      1  0.4506380000000  0.5446680000000  0.5221210000000 1.0
C      1  0.5512370000000  0.4573660000000  0.5227620000000 1.0
C      1  0.4175490000000  0.5484070000000  0.4929300000000 1.0
C      1  0.5766900000000  0.4405620000000  0.4842720000000 1.0
C      1  0.5063460000000  0.4476280000000  0.4870700000000 1.0
C      1  0.5049940000000  0.5496790000000  0.4806570000000 1.0
C      1  0.5358040000000  0.4606840000000  0.4124220000000 1.0
C      1  0.4624920000000  0.5419160000000  0.4118720000000 1.0
C      1  0.4027390000000  0.5150950000000  0.4694940000000 1.0
C      1  0.5987450000000  0.4854530000000  0.4704310000000 1.0
C      1  0.4973020000000  0.3993610000000  0.5036790000000 1.0
C      1  0.5045820000000  0.5995800000000  0.5000380000000 1.0
C      1  0.5168960000000  0.3994920000000  0.4535130000000 1.0
C      1  0.4800730000000  0.5863980000000  0.4554610000000 1.0
C      1  0.5291800000000  0.4416120000000  0.5110560000000 1.0
C      1  0.4736230000000  0.5601260000000  0.5125690000000 1.0
C      1  0.4517030000000  0.4612790000000  0.4908070000000 1.0
C      1  0.5486480000000  0.5394310000000  0.4879880000000 1.0
C      1  0.5438240000000  0.4922800000000  0.4553690000000 1.0
C      1  0.4567170000000  0.5098100000000  0.4563480000000 1.0
C      1  0.4923110000000  0.4228030000000  0.5541310000000 1.0
C      1  0.5045240000000  0.5787000000000  0.5525940000000 1.0
C      1  0.4715730000000  0.5092520000000  0.4970520000000 1.0
C      1  0.5310180000000  0.4922150000000  0.4960600000000 1.0
C      1  0.5020240000000  0.5535810000000  0.4398070000000 1.0
C      1  0.4953860000000  0.4473820000000  0.4367230000000 1.0
C      1  0.4853640000000  0.4274550000000  0.5822600000000 1.0
C      1  0.5139250000000  0.5754690000000  0.5798510000000 1.0
C      1  0.4998800000000  0.4975380000000  0.4583450000000 1.0
END
