TITL C-2441169-1362-694 0.136114222752268 125000 -22227.4610475644 0 0 166 (C1) n - 1
REM
REM in /home/bkarasulu/work/CARBON/AIRSS/Generating-Clusters/ReaxFF-fromJPCA2015/Units_Real/with-SteepDescent/Higher-Symm
REM
REM
REM
REM
REM
REM ./C.cell (1df0a924f5614ab8850e4351716899ee)
REM
REM compiler GCC version 9.2.1 20190827 (Red Hat 9.2.1-1)
REM options -cpp -mtune=generic -march=x86-64 -g -O0 -fpre-include=/usr/include/finclude/math-vector-fortran.h
REM seed 1745813386 1265375778 1504196313 849951563 213257141 1193034857 -1081868627 -1645501496 -65249443 -910640877 -1974127553 1464546102 1868674992 1035532848 1873877057 -1324025748 -1684164702 -1963470267 639509397 -1729928996 -1963215415 1653450680 174465410 1065499405 1829705907 1083645510 1742143874 -652993937 -473570201 -1611161722 -1898079279 550452370 -472755638
REM
CELL 1.54180   50.00000   50.00000   50.00000   90.00000   90.00000   90.00000
LATT -1
SFAC C  
C      1  0.4536440000000  0.4505260000000  0.4190250000000 1.0
C      1  0.5460380000000  0.4506710000000  0.5800150000000 1.0
C      1  0.5467540000000  0.5508290000000  0.4179400000000 1.0
C      1  0.4536690000000  0.5522560000000  0.5812340000000 1.0
C      1  0.4174150000000  0.4488630000000  0.4528470000000 1.0
C      1  0.5813760000000  0.4480820000000  0.5464790000000 1.0
C      1  0.4187930000000  0.5496350000000  0.5452520000000 1.0
C      1  0.5803180000000  0.5507420000000  0.4554630000000 1.0
C      1  0.5440120000000  0.5746680000000  0.4355550000000 1.0
C      1  0.4575220000000  0.5749400000000  0.5629640000000 1.0
C      1  0.4563350000000  0.4267490000000  0.4360730000000 1.0
C      1  0.5432240000000  0.4270180000000  0.5628080000000 1.0
C      1  0.4358540000000  0.5738990000000  0.5438150000000 1.0
C      1  0.5629620000000  0.5742860000000  0.4574870000000 1.0
C      1  0.4354290000000  0.4256090000000  0.4564670000000 1.0
C      1  0.5630500000000  0.4253460000000  0.5423060000000 1.0
C      1  0.4113330000000  0.5213540000000  0.5065220000000 1.0
C      1  0.5883260000000  0.5214460000000  0.4941020000000 1.0
C      1  0.5961880000000  0.4754840000000  0.5191770000000 1.0
C      1  0.4025610000000  0.4762800000000  0.4804290000000 1.0
C      1  0.5197980000000  0.5218550000000  0.4038320000000 1.0
C      1  0.4797150000000  0.5227510000000  0.5967290000000 1.0
C      1  0.5112460000000  0.4771320000000  0.5939290000000 1.0
C      1  0.4885190000000  0.4769420000000  0.4063680000000 1.0
C      1  0.5868590000000  0.5024610000000  0.4339310000000 1.0
C      1  0.4134200000000  0.5028370000000  0.5671850000000 1.0
C      1  0.4149800000000  0.4972640000000  0.4366900000000 1.0
C      1  0.5849310000000  0.4968340000000  0.5621510000000 1.0
C      1  0.4347810000000  0.5046010000000  0.5862780000000 1.0
C      1  0.5656330000000  0.5039300000000  0.4147980000000 1.0
C      1  0.4335230000000  0.4990990000000  0.4146340000000 1.0
C      1  0.5670960000000  0.4988550000000  0.5847370000000 1.0
C      1  0.5564110000000  0.5503090000000  0.5693540000000 1.0
C      1  0.4439150000000  0.5497030000000  0.4305440000000 1.0
C      1  0.4506360000000  0.4467660000000  0.5775730000000 1.0
C      1  0.5496320000000  0.4475250000000  0.4228310000000 1.0
C      1  0.5783240000000  0.5566330000000  0.5515450000000 1.0
C      1  0.4222870000000  0.5560630000000  0.4485820000000 1.0
C      1  0.5692720000000  0.4506730000000  0.4437150000000 1.0
C      1  0.4310660000000  0.4506600000000  0.5566210000000 1.0
C      1  0.5412980000000  0.5606950000000  0.5208540000000 1.0
C      1  0.4587430000000  0.5637500000000  0.4801490000000 1.0
C      1  0.4594700000000  0.4390960000000  0.5195820000000 1.0
C      1  0.5397980000000  0.4403570000000  0.4792840000000 1.0
C      1  0.5201470000000  0.5591060000000  0.5405960000000 1.0
C      1  0.4795490000000  0.5618270000000  0.4597220000000 1.0
C      1  0.5184120000000  0.4379990000000  0.4589060000000 1.0
C      1  0.4799940000000  0.4396010000000  0.5407860000000 1.0
C      1  0.5925380000000  0.5400470000000  0.5306410000000 1.0
C      1  0.4087760000000  0.5383520000000  0.4687180000000 1.0
C      1  0.4089970000000  0.4759730000000  0.5204260000000 1.0
C      1  0.5937070000000  0.4742850000000  0.4786680000000 1.0
C      1  0.5202930000000  0.5250310000000  0.5901080000000 1.0
C      1  0.4797000000000  0.5243130000000  0.4097620000000 1.0
C      1  0.5274540000000  0.4664310000000  0.4143940000000 1.0
C      1  0.4727180000000  0.4658640000000  0.5863580000000 1.0
C      1  0.5731930000000  0.5219650000000  0.5194190000000 1.0
C      1  0.4301870000000  0.5218050000000  0.4803840000000 1.0
C      1  0.4359690000000  0.4849590000000  0.5238020000000 1.0
C      1  0.5666460000000  0.4847460000000  0.4772600000000 1.0
C      1  0.5219800000000  0.5150620000000  0.5631450000000 1.0
C      1  0.4768470000000  0.5150500000000  0.4366400000000 1.0
C      1  0.5211620000000  0.4859140000000  0.4350200000000 1.0
C      1  0.4792620000000  0.4852520000000  0.5656700000000 1.0
C      1  0.4567820000000  0.5334670000000  0.5240800000000 1.0
C      1  0.5429630000000  0.5339850000000  0.4764030000000 1.0
C      1  0.5425180000000  0.4661460000000  0.5234860000000 1.0
C      1  0.4566360000000  0.4656980000000  0.4759570000000 1.0
C      1  0.5237720000000  0.5353770000000  0.4575290000000 1.0
C      1  0.4761750000000  0.5348390000000  0.5429160000000 1.0
C      1  0.5234760000000  0.4668070000000  0.5427230000000 1.0
C      1  0.4758420000000  0.4663880000000  0.4569420000000 1.0
C      1  0.5011070000000  0.5362640000000  0.5299350000000 1.0
C      1  0.4984120000000  0.5367720000000  0.4702040000000 1.0
C      1  0.4978810000000  0.4650620000000  0.5304710000000 1.0
C      1  0.5011210000000  0.4646390000000  0.4694300000000 1.0
C      1  0.5308800000000  0.5341690000000  0.5018830000000 1.0
C      1  0.4689360000000  0.5353030000000  0.4975500000000 1.0
C      1  0.5303670000000  0.4645640000000  0.4980120000000 1.0
C      1  0.4691490000000  0.4639540000000  0.5011950000000 1.0
C      1  0.4171580000000  0.5730520000000  0.4957020000000 1.0
C      1  0.5809720000000  0.5747730000000  0.5041870000000 1.0
C      1  0.5802060000000  0.4305830000000  0.4938520000000 1.0
C      1  0.4187070000000  0.4312620000000  0.5062870000000 1.0
C      1  0.4946020000000  0.5680190000000  0.4182500000000 1.0
C      1  0.5052040000000  0.5691370000000  0.5803580000000 1.0
C      1  0.4964340000000  0.4269610000000  0.5815330000000 1.0
C      1  0.5036920000000  0.4274840000000  0.4172660000000 1.0
C      1  0.4862860000000  0.5838230000000  0.5607490000000 1.0
C      1  0.5152680000000  0.5814230000000  0.4348540000000 1.0
C      1  0.5150780000000  0.4163260000000  0.5606010000000 1.0
C      1  0.4842080000000  0.4178980000000  0.4369320000000 1.0
C      1  0.5591670000000  0.5850280000000  0.4853360000000 1.0
C      1  0.4363650000000  0.5828240000000  0.5157830000000 1.0
C      1  0.5610230000000  0.4168680000000  0.5133620000000 1.0
C      1  0.4358610000000  0.4188560000000  0.4851240000000 1.0
C      1  0.4018500000000  0.4543540000000  0.5012900000000 1.0
C      1  0.5970310000000  0.4534100000000  0.4990180000000 1.0
C      1  0.5977490000000  0.5511390000000  0.5045910000000 1.0
C      1  0.4015300000000  0.5485360000000  0.4945960000000 1.0
C      1  0.5046850000000  0.4530240000000  0.4024770000000 1.0
C      1  0.4960870000000  0.4521390000000  0.5969480000000 1.0
C      1  0.4996870000000  0.5458010000000  0.5964400000000 1.0
C      1  0.5000440000000  0.5445860000000  0.4021280000000 1.0
C      1  0.4701000000000  0.5305540000000  0.5702390000000 1.0
C      1  0.5298570000000  0.5303210000000  0.4301340000000 1.0
C      1  0.5288880000000  0.4720130000000  0.5707340000000 1.0
C      1  0.4708100000000  0.4714890000000  0.4290220000000 1.0
C      1  0.5703420000000  0.5286430000000  0.4711410000000 1.0
C      1  0.4293860000000  0.5287480000000  0.5287890000000 1.0
C      1  0.5698570000000  0.4688520000000  0.5292130000000 1.0
C      1  0.4290670000000  0.4690880000000  0.4704400000000 1.0
C      1  0.5133080000000  0.4895950000000  0.4632320000000 1.0
C      1  0.4859240000000  0.4895080000000  0.5370100000000 1.0
C      1  0.4874650000000  0.5096480000000  0.4640380000000 1.0
C      1  0.5108360000000  0.5086780000000  0.5352980000000 1.0
C      1  0.4628590000000  0.4904520000000  0.5122930000000 1.0
C      1  0.5363660000000  0.4904190000000  0.4873490000000 1.0
C      1  0.4668100000000  0.5081910000000  0.4869630000000 1.0
C      1  0.5293410000000  0.5070970000000  0.5110440000000 1.0
C      1  0.5317180000000  0.5650530000000  0.5689070000000 1.0
C      1  0.4681740000000  0.5646500000000  0.4311930000000 1.0
C      1  0.4713520000000  0.4290940000000  0.5679480000000 1.0
C      1  0.5287500000000  0.4293990000000  0.4314370000000 1.0
C      1  0.5677190000000  0.5726950000000  0.5298020000000 1.0
C      1  0.4321400000000  0.5719030000000  0.4707920000000 1.0
C      1  0.5681790000000  0.4349300000000  0.4676270000000 1.0
C      1  0.4315990000000  0.4352640000000  0.5325330000000 1.0
C      1  0.4525600000000  0.4935150000000  0.5664040000000 1.0
C      1  0.5482050000000  0.4938730000000  0.4353670000000 1.0
C      1  0.5512030000000  0.5190460000000  0.5647540000000 1.0
C      1  0.4493100000000  0.5180830000000  0.4343120000000 1.0
C      1  0.5684160000000  0.4821350000000  0.4496140000000 1.0
C      1  0.4322600000000  0.4824810000000  0.5516430000000 1.0
C      1  0.5668450000000  0.5077840000000  0.5421850000000 1.0
C      1  0.4336830000000  0.5079030000000  0.4559640000000 1.0
C      1  0.4999060000000  0.5827370000000  0.4590340000000 1.0
C      1  0.4992930000000  0.5780670000000  0.5386900000000 1.0
C      1  0.4987820000000  0.4186120000000  0.4608900000000 1.0
C      1  0.5020490000000  0.4228830000000  0.5381340000000 1.0
C      1  0.4613300000000  0.5825090000000  0.5012190000000 1.0
C      1  0.5373590000000  0.5772600000000  0.4989030000000 1.0
C      1  0.4608650000000  0.4190310000000  0.4991490000000 1.0
C      1  0.5384730000000  0.4238170000000  0.5012900000000 1.0
C      1  0.4829440000000  0.6001620000000  0.5023830000000 1.0
C      1  0.5237040000000  0.6000420000000  0.5010210000000 1.0
C      1  0.5243120000000  0.4006560000000  0.5023150000000 1.0
C      1  0.4826830000000  0.4000720000000  0.5020760000000 1.0
C      1  0.5020240000000  0.6002460000000  0.4811350000000 1.0
C      1  0.5008510000000  0.5997780000000  0.5253000000000 1.0
C      1  0.5025900000000  0.4012250000000  0.5244990000000 1.0
C      1  0.5023000000000  0.4007450000000  0.4811390000000 1.0
C      1  0.4105690000000  0.5319870000000  0.5675330000000 1.0
C      1  0.5887460000000  0.5319370000000  0.4339230000000 1.0
C      1  0.5885650000000  0.4675270000000  0.5678490000000 1.0
C      1  0.4109670000000  0.4681290000000  0.4311220000000 1.0
C      1  0.5695740000000  0.5330210000000  0.4114800000000 1.0
C      1  0.4310760000000  0.5339730000000  0.5884040000000 1.0
C      1  0.5676540000000  0.4699030000000  0.5881640000000 1.0
C      1  0.4324430000000  0.4701010000000  0.4113760000000 1.0
C      1  0.4965300000000  0.5034090000000  0.3997040000000 1.0
C      1  0.5030320000000  0.5042710000000  0.6018150000000 1.0
C      1  0.3991280000000  0.4953770000000  0.5024570000000 1.0
C      1  0.6012590000000  0.4945620000000  0.4973260000000 1.0
C      1  0.4996150000000  0.5433120000000  0.4998540000000 1.0
C      1  0.4994570000000  0.4587450000000  0.4997410000000 1.0
END
