TITL C-2441154-10-1285 0.0381733712820899 125000 -9217.03260681464 0 0 70 (C1) n - 1
REM
REM in /home/bkarasulu/work/CARBON/AIRSS/Generating-Clusters/ReaxFF-fromJPCA2015/Units_Real/with-SteepDescent/Higher-Symm
REM
REM
REM
REM
REM
REM ./C.cell (1df0a924f5614ab8850e4351716899ee)
REM
REM compiler GCC version 9.2.1 20190827 (Red Hat 9.2.1-1)
REM options -cpp -mtune=generic -march=x86-64 -g -O0 -fpre-include=/usr/include/finclude/math-vector-fortran.h
REM seed 1116056669 -509978321 1514248532 1299901546 -803471224 572046417 -1897833113 927377634 266841735 1348358416 -1862270685 -183269056 1285131040 -1095020090 1690399692 1254757112 -1164761743 918109886 -652552068 -1185623825 1313174497 -1540940601 -1228529570 758269969 58455751 -982228379 -1959629094 1574142444 -1072462267 -1731192485 28662407 65837493 -140811100
REM
CELL 1.54180   50.00000   50.00000   50.00000   90.00000   90.00000   90.00000
LATT -1
SFAC C  
C      1  0.4993550000000  0.4683120000000  0.4433370000000 1.0
C      1  0.5286080000000  0.5261410000000  0.4347600000000 1.0
C      1  0.4655580000000  0.5092710000000  0.4402540000000 1.0
C      1  0.4902050000000  0.4642490000000  0.5659440000000 1.0
C      1  0.4751490000000  0.5135310000000  0.5577680000000 1.0
C      1  0.5304280000000  0.5181080000000  0.5572470000000 1.0
C      1  0.4558770000000  0.4444260000000  0.5491110000000 1.0
C      1  0.5607080000000  0.4883990000000  0.5467440000000 1.0
C      1  0.4818330000000  0.5614240000000  0.5492170000000 1.0
C      1  0.5446710000000  0.4501680000000  0.4487730000000 1.0
C      1  0.4314480000000  0.4908860000000  0.4531280000000 1.0
C      1  0.5284920000000  0.5619750000000  0.4571220000000 1.0
C      1  0.5361770000000  0.4760110000000  0.5567570000000 1.0
C      1  0.5066790000000  0.5507750000000  0.5689900000000 1.0
C      1  0.4608040000000  0.4690240000000  0.5645970000000 1.0
C      1  0.4561840000000  0.4817770000000  0.4399550000000 1.0
C      1  0.5021570000000  0.5379640000000  0.4344830000000 1.0
C      1  0.5444830000000  0.4780130000000  0.4380560000000 1.0
C      1  0.4940510000000  0.5041820000000  0.5783760000000 1.0
C      1  0.5118260000000  0.4811670000000  0.5738260000000 1.0
C      1  0.5146420000000  0.5255160000000  0.5805380000000 1.0
C      1  0.5261030000000  0.4977250000000  0.4254720000000 1.0
C      1  0.4991120000000  0.4879430000000  0.4218230000000 1.0
C      1  0.4875030000000  0.5151980000000  0.4223260000000 1.0
C      1  0.5295520000000  0.5020940000000  0.4791420000000 1.0
C      1  0.4872710000000  0.5222170000000  0.4788940000000 1.0
C      1  0.4907030000000  0.4717980000000  0.4715130000000 1.0
C      1  0.4741360000000  0.4993990000000  0.5318910000000 1.0
C      1  0.5155860000000  0.5190840000000  0.5320400000000 1.0
C      1  0.5024060000000  0.4919570000000  0.5209020000000 1.0
C      1  0.5661900000000  0.5020430000000  0.5012070000000 1.0
C      1  0.4655170000000  0.5525430000000  0.5058810000000 1.0
C      1  0.4712200000000  0.4486620000000  0.5004600000000 1.0
C      1  0.4438120000000  0.4998800000000  0.5010230000000 1.0
C      1  0.5317620000000  0.5561880000000  0.5064240000000 1.0
C      1  0.5317280000000  0.4483950000000  0.5153870000000 1.0
C      1  0.5081990000000  0.5476450000000  0.5414940000000 1.0
C      1  0.4502350000000  0.4844510000000  0.5419120000000 1.0
C      1  0.5227600000000  0.4715560000000  0.5310280000000 1.0
C      1  0.4913950000000  0.5452750000000  0.4616020000000 1.0
C      1  0.5500070000000  0.4874630000000  0.4653750000000 1.0
C      1  0.4613830000000  0.4632530000000  0.4625930000000 1.0
C      1  0.4441410000000  0.5421930000000  0.4889330000000 1.0
C      1  0.4892670000000  0.4283790000000  0.4902560000000 1.0
C      1  0.5671350000000  0.5286630000000  0.4896410000000 1.0
C      1  0.5558670000000  0.5430320000000  0.5146350000000 1.0
C      1  0.5075040000000  0.4306480000000  0.5144200000000 1.0
C      1  0.4320000000000  0.5238840000000  0.5093890000000 1.0
C      1  0.5069620000000  0.4478950000000  0.4777140000000 1.0
C      1  0.5389230000000  0.5272090000000  0.4804690000000 1.0
C      1  0.4582020000000  0.5181580000000  0.4801870000000 1.0
C      1  0.4901320000000  0.4510320000000  0.5222460000000 1.0
C      1  0.4578980000000  0.5310980000000  0.5246970000000 1.0
C      1  0.5451980000000  0.5173290000000  0.5211550000000 1.0
C      1  0.5681910000000  0.4799680000000  0.5191010000000 1.0
C      1  0.4826460000000  0.5707080000000  0.5195370000000 1.0
C      1  0.4391150000000  0.4603220000000  0.5305140000000 1.0
C      1  0.4346130000000  0.4683800000000  0.4724190000000 1.0
C      1  0.5058410000000  0.5692900000000  0.4724990000000 1.0
C      1  0.5580100000000  0.4601970000000  0.4738910000000 1.0
C      1  0.5463030000000  0.5392320000000  0.4553960000000 1.0
C      1  0.4433520000000  0.5181280000000  0.4562840000000 1.0
C      1  0.5159750000000  0.4458110000000  0.4504420000000 1.0
C      1  0.4632340000000  0.5387550000000  0.5516050000000 1.0
C      1  0.5572440000000  0.5178090000000  0.5469270000000 1.0
C      1  0.4855290000000  0.4415870000000  0.5467210000000 1.0
C      1  0.4446470000000  0.4696320000000  0.5014910000000 1.0
C      1  0.5079450000000  0.5708270000000  0.5035850000000 1.0
C      1  0.5566970000000  0.4568810000000  0.5030090000000 1.0
C      1  0.5022870000000  0.4981930000000  0.4878590000000 1.0
END
