TITL C-2441157-2117-967 0.026794797079506 125000 -20076.5634624195 0 0 138 (C1) n - 1
REM
REM in /home/bkarasulu/work/CARBON/AIRSS/Generating-Clusters/ReaxFF-fromJPCA2015/Units_Real/with-SteepDescent/Higher-Symm
REM
REM
REM
REM
REM
REM ./C.cell (1df0a924f5614ab8850e4351716899ee)
REM
REM compiler GCC version 9.2.1 20190827 (Red Hat 9.2.1-1)
REM options -cpp -mtune=generic -march=x86-64 -g -O0 -fpre-include=/usr/include/finclude/math-vector-fortran.h
REM seed -1694255980 -910067992 622157376 -1911588534 -374762583 -556658527 -659416587 1189650460 1259905656 -621446811 870910342 1882217451 875257545 -1598245971 1562836600 1003662438 25312211 370438166 1018436071 -1182052833 -1096533534 -961893463 261451687 1578080415 60844124 1649575310 -1756163052 1815706807 171972751 928260808 840307920 1473539547 -1314653254
REM
CELL 1.54180   50.00000   50.00000   50.00000   90.00000   90.00000   90.00000
LATT -1
SFAC C  
C      1  0.5882160000000  0.4471610000000  0.4713840000000 1.0
C      1  0.4104160000000  0.4468390000000  0.5291300000000 1.0
C      1  0.5853900000000  0.5558380000000  0.5355040000000 1.0
C      1  0.4135480000000  0.5557680000000  0.4663990000000 1.0
C      1  0.4600520000000  0.4193490000000  0.4461930000000 1.0
C      1  0.5383790000000  0.4195660000000  0.5559070000000 1.0
C      1  0.4638480000000  0.5905750000000  0.5590250000000 1.0
C      1  0.5328290000000  0.5807050000000  0.4340220000000 1.0
C      1  0.5170210000000  0.5043290000000  0.4025860000000 1.0
C      1  0.4783090000000  0.5033480000000  0.5966290000000 1.0
C      1  0.5340440000000  0.5091650000000  0.5935260000000 1.0
C      1  0.4620390000000  0.5098800000000  0.4050600000000 1.0
C      1  0.5355100000000  0.5330080000000  0.5771010000000 1.0
C      1  0.4605540000000  0.5324930000000  0.4228730000000 1.0
C      1  0.5392440000000  0.4430040000000  0.4284700000000 1.0
C      1  0.4588920000000  0.4441660000000  0.5689740000000 1.0
C      1  0.5373340000000  0.4185330000000  0.4456580000000 1.0
C      1  0.4621470000000  0.4204150000000  0.5522450000000 1.0
C      1  0.5311130000000  0.5696140000000  0.5432150000000 1.0
C      1  0.4684560000000  0.5682970000000  0.4551580000000 1.0
C      1  0.5189090000000  0.6017340000000  0.4740200000000 1.0
C      1  0.4837510000000  0.6032460000000  0.5237130000000 1.0
C      1  0.5150120000000  0.3911530000000  0.5233660000000 1.0
C      1  0.4862540000000  0.3947070000000  0.4784140000000 1.0
C      1  0.5072710000000  0.4650400000000  0.5157030000000 1.0
C      1  0.4970910000000  0.4663350000000  0.4849150000000 1.0
C      1  0.5009910000000  0.5317820000000  0.4877720000000 1.0
C      1  0.4987140000000  0.5330670000000  0.5178000000000 1.0
C      1  0.4968550000000  0.4449380000000  0.4367180000000 1.0
C      1  0.5028340000000  0.4447310000000  0.5637380000000 1.0
C      1  0.4932890000000  0.5610030000000  0.5740700000000 1.0
C      1  0.5027230000000  0.5512620000000  0.4365830000000 1.0
C      1  0.5162120000000  0.4994140000000  0.5177090000000 1.0
C      1  0.4910830000000  0.4992730000000  0.4809720000000 1.0
C      1  0.5289300000000  0.4905930000000  0.4923260000000 1.0
C      1  0.4688580000000  0.4984140000000  0.4965490000000 1.0
C      1  0.5579050000000  0.4177640000000  0.5316380000000 1.0
C      1  0.4419280000000  0.4167390000000  0.4692060000000 1.0
C      1  0.5665640000000  0.5740660000000  0.4658480000000 1.0
C      1  0.4496980000000  0.5650930000000  0.5286870000000 1.0
C      1  0.5428620000000  0.3961690000000  0.5223520000000 1.0
C      1  0.4607720000000  0.4048890000000  0.4884580000000 1.0
C      1  0.5454340000000  0.5927070000000  0.4710550000000 1.0
C      1  0.4563730000000  0.5936690000000  0.5304680000000 1.0
C      1  0.4719030000000  0.5492190000000  0.5148890000000 1.0
C      1  0.5262540000000  0.5466330000000  0.4900200000000 1.0
C      1  0.4709060000000  0.4522620000000  0.4897090000000 1.0
C      1  0.5315500000000  0.4487860000000  0.5092420000000 1.0
C      1  0.5623020000000  0.5532760000000  0.4445230000000 1.0
C      1  0.4459670000000  0.5407500000000  0.5720530000000 1.0
C      1  0.5550530000000  0.4639440000000  0.5718540000000 1.0
C      1  0.4444000000000  0.4643440000000  0.4296290000000 1.0
C      1  0.5378940000000  0.5149950000000  0.4218590000000 1.0
C      1  0.4522990000000  0.5145400000000  0.5837930000000 1.0
C      1  0.5541780000000  0.4921140000000  0.5808030000000 1.0
C      1  0.4436620000000  0.4921670000000  0.4200330000000 1.0
C      1  0.5047430000000  0.4795660000000  0.4122820000000 1.0
C      1  0.4911730000000  0.4789350000000  0.5879360000000 1.0
C      1  0.5048280000000  0.5162300000000  0.5988840000000 1.0
C      1  0.4912130000000  0.5182200000000  0.3986960000000 1.0
C      1  0.4899950000000  0.4179290000000  0.5606250000000 1.0
C      1  0.5090030000000  0.4157170000000  0.4397200000000 1.0
C      1  0.4896460000000  0.5782010000000  0.4375270000000 1.0
C      1  0.5096130000000  0.5804070000000  0.5597850000000 1.0
C      1  0.5457540000000  0.5265730000000  0.4878500000000 1.0
C      1  0.4551760000000  0.5194130000000  0.5094320000000 1.0
C      1  0.5475660000000  0.4700460000000  0.4984070000000 1.0
C      1  0.4548690000000  0.4756890000000  0.4874390000000 1.0
C      1  0.4816000000000  0.5027660000000  0.5479730000000 1.0
C      1  0.5206040000000  0.5089450000000  0.4447640000000 1.0
C      1  0.4969440000000  0.4932060000000  0.4379730000000 1.0
C      1  0.5028480000000  0.4948010000000  0.5630160000000 1.0
C      1  0.4519630000000  0.4217400000000  0.5248250000000 1.0
C      1  0.5475320000000  0.4195550000000  0.4733380000000 1.0
C      1  0.4541960000000  0.5784780000000  0.4787200000000 1.0
C      1  0.5469770000000  0.5801340000000  0.5205650000000 1.0
C      1  0.4209380000000  0.4710200000000  0.4487120000000 1.0
C      1  0.5762440000000  0.4718370000000  0.5506380000000 1.0
C      1  0.4263420000000  0.5268270000000  0.5525160000000 1.0
C      1  0.5755340000000  0.5288530000000  0.4529380000000 1.0
C      1  0.4855720000000  0.4034010000000  0.4508520000000 1.0
C      1  0.5132850000000  0.4037350000000  0.5502150000000 1.0
C      1  0.4910920000000  0.6017660000000  0.5519940000000 1.0
C      1  0.5122340000000  0.5970980000000  0.4453020000000 1.0
C      1  0.4252470000000  0.4286830000000  0.5134860000000 1.0
C      1  0.5738670000000  0.4278790000000  0.4857550000000 1.0
C      1  0.4271770000000  0.5694480000000  0.4873930000000 1.0
C      1  0.5748910000000  0.5716990000000  0.5142670000000 1.0
C      1  0.5366970000000  0.5536040000000  0.4290950000000 1.0
C      1  0.4647160000000  0.5635730000000  0.5714040000000 1.0
C      1  0.5347480000000  0.4437870000000  0.5700640000000 1.0
C      1  0.4646520000000  0.4441080000000  0.4331380000000 1.0
C      1  0.5860040000000  0.5365310000000  0.5481280000000 1.0
C      1  0.4113220000000  0.5365550000000  0.4533280000000 1.0
C      1  0.5840700000000  0.4744600000000  0.4708750000000 1.0
C      1  0.4179570000000  0.4731060000000  0.5257760000000 1.0
C      1  0.5265250000000  0.4902280000000  0.5436170000000 1.0
C      1  0.4747850000000  0.4952450000000  0.4568970000000 1.0
C      1  0.5328530000000  0.5080890000000  0.4707610000000 1.0
C      1  0.4590200000000  0.5069160000000  0.5354370000000 1.0
C      1  0.4860670000000  0.5438380000000  0.4127760000000 1.0
C      1  0.5094620000000  0.5414480000000  0.5867040000000 1.0
C      1  0.4831390000000  0.4514910000000  0.5839680000000 1.0
C      1  0.5153370000000  0.4526850000000  0.4140660000000 1.0
C      1  0.5704060000000  0.5158020000000  0.5016440000000 1.0
C      1  0.4262710000000  0.5141430000000  0.4999400000000 1.0
C      1  0.5748560000000  0.4825370000000  0.4999760000000 1.0
C      1  0.4242250000000  0.4815260000000  0.4976160000000 1.0
C      1  0.4165770000000  0.4613380000000  0.4756420000000 1.0
C      1  0.5807480000000  0.4629170000000  0.5233390000000 1.0
C      1  0.4188600000000  0.5309370000000  0.5234070000000 1.0
C      1  0.5854020000000  0.5320600000000  0.4813890000000 1.0
C      1  0.4616700000000  0.5225620000000  0.4520160000000 1.0
C      1  0.5400980000000  0.5296510000000  0.5487440000000 1.0
C      1  0.4639570000000  0.4625020000000  0.5469690000000 1.0
C      1  0.5388220000000  0.4633480000000  0.4503900000000 1.0
C      1  0.5214720000000  0.5438350000000  0.5325520000000 1.0
C      1  0.4828780000000  0.5430070000000  0.4617860000000 1.0
C      1  0.5122540000000  0.4591520000000  0.4603210000000 1.0
C      1  0.4901240000000  0.4585090000000  0.5385020000000 1.0
C      1  0.5630430000000  0.4818350000000  0.4513690000000 1.0
C      1  0.4419260000000  0.4836790000000  0.5438400000000 1.0
C      1  0.5654900000000  0.5187460000000  0.5368430000000 1.0
C      1  0.4300260000000  0.5180670000000  0.4645970000000 1.0
C      1  0.4230030000000  0.4993990000000  0.4412440000000 1.0
C      1  0.5743920000000  0.4996660000000  0.5596330000000 1.0
C      1  0.4328230000000  0.5020610000000  0.5659280000000 1.0
C      1  0.5626360000000  0.5071360000000  0.4381210000000 1.0
C      1  0.4247590000000  0.5583460000000  0.5150030000000 1.0
C      1  0.5810890000000  0.5605720000000  0.4875600000000 1.0
C      1  0.4240780000000  0.4345300000000  0.4836320000000 1.0
C      1  0.5745140000000  0.4360070000000  0.5150400000000 1.0
C      1  0.5261780000000  0.4255800000000  0.4920770000000 1.0
C      1  0.4704110000000  0.4264180000000  0.5042200000000 1.0
C      1  0.5258290000000  0.5726940000000  0.5020430000000 1.0
C      1  0.4765100000000  0.5725380000000  0.4964000000000 1.0
C      1  0.5045610000000  0.4058020000000  0.4988000000000 1.0
C      1  0.5000690000000  0.5907540000000  0.5000140000000 1.0
END
