TITL C-2441165-58-1500 0.158825086636587 125000 -20702.7209560358 0 0 166 (C1) n - 1
REM
REM in /home/bkarasulu/work/CARBON/AIRSS/Generating-Clusters/ReaxFF-fromJPCA2015/Units_Real/with-SteepDescent/Higher-Symm
REM
REM
REM
REM
REM
REM ./C.cell (1df0a924f5614ab8850e4351716899ee)
REM
REM compiler GCC version 9.2.1 20190827 (Red Hat 9.2.1-1)
REM options -cpp -mtune=generic -march=x86-64 -g -O0 -fpre-include=/usr/include/finclude/math-vector-fortran.h
REM seed -1246812861 -948540479 -1337477166 370620293 -441417281 -1019504999 -894070485 -1459452742 765474636 -752735921 709720148 186404756 1229528292 -1032053720 -1002686400 -1498925538 397762907 352185085 -899595748 1354913171 951985952 -634022561 -1921650743 -419162568 -2143468399 -280218251 -1402180350 685108750 -1624262777 -1515239643 -1945216592 452246322 -450897851
REM
CELL 1.54180   50.00000   50.00000   50.00000   90.00000   90.00000   90.00000
LATT -1
SFAC C  
C      1  0.4687020000000  0.5781220000000  0.4272030000000 1.0
C      1  0.5385870000000  0.5704690000000  0.4292390000000 1.0
C      1  0.5795340000000  0.5138960000000  0.4317670000000 1.0
C      1  0.5630880000000  0.4432010000000  0.4267340000000 1.0
C      1  0.4959150000000  0.4182600000000  0.4281150000000 1.0
C      1  0.4354100000000  0.4539250000000  0.4280600000000 1.0
C      1  0.4224810000000  0.5222950000000  0.4271720000000 1.0
C      1  0.4806320000000  0.5512700000000  0.5369500000000 1.0
C      1  0.5274570000000  0.5592510000000  0.5319350000000 1.0
C      1  0.5615760000000  0.5170970000000  0.5270370000000 1.0
C      1  0.5456680000000  0.4624490000000  0.5338010000000 1.0
C      1  0.4993970000000  0.4470670000000  0.5322380000000 1.0
C      1  0.4550880000000  0.4664580000000  0.5343550000000 1.0
C      1  0.4302890000000  0.5115930000000  0.5274650000000 1.0
C      1  0.5640840000000  0.5281560000000  0.5766910000000 1.0
C      1  0.5575100000000  0.4759450000000  0.5739900000000 1.0
C      1  0.5172270000000  0.4406890000000  0.5712540000000 1.0
C      1  0.4591440000000  0.4454200000000  0.5780330000000 1.0
C      1  0.4332670000000  0.4959920000000  0.5809100000000 1.0
C      1  0.4727940000000  0.5727540000000  0.5767880000000 1.0
C      1  0.5219760000000  0.5616890000000  0.5800100000000 1.0
C      1  0.4708930000000  0.4860790000000  0.4610590000000 1.0
C      1  0.4798010000000  0.5106850000000  0.4495190000000 1.0
C      1  0.4958450000000  0.5309650000000  0.4609420000000 1.0
C      1  0.5203690000000  0.5213390000000  0.4472890000000 1.0
C      1  0.5302420000000  0.4972210000000  0.4599900000000 1.0
C      1  0.5177410000000  0.4731230000000  0.4597240000000 1.0
C      1  0.4902610000000  0.4662530000000  0.4548810000000 1.0
C      1  0.5408390000000  0.4279060000000  0.4306340000000 1.0
C      1  0.4703200000000  0.4244100000000  0.4301210000000 1.0
C      1  0.4218990000000  0.4767800000000  0.4305320000000 1.0
C      1  0.4307590000000  0.5482570000000  0.4316060000000 1.0
C      1  0.4950560000000  0.5840290000000  0.4320360000000 1.0
C      1  0.5580940000000  0.5538040000000  0.4296600000000 1.0
C      1  0.5827410000000  0.4869760000000  0.4306680000000 1.0
C      1  0.5285500000000  0.4099060000000  0.5483310000000 1.0
C      1  0.4464050000000  0.4198650000000  0.5482790000000 1.0
C      1  0.4037790000000  0.4938540000000  0.5518650000000 1.0
C      1  0.4349740000000  0.5650940000000  0.5470640000000 1.0
C      1  0.5127280000000  0.5941170000000  0.5495330000000 1.0
C      1  0.5809760000000  0.5511170000000  0.5470820000000 1.0
C      1  0.5884950000000  0.4706950000000  0.5489330000000 1.0
C      1  0.4674790000000  0.5188070000000  0.5090270000000 1.0
C      1  0.4870990000000  0.5396170000000  0.5088130000000 1.0
C      1  0.5131810000000  0.5288960000000  0.5079370000000 1.0
C      1  0.5331850000000  0.4930910000000  0.5025620000000 1.0
C      1  0.5350480000000  0.4667600000000  0.5096680000000 1.0
C      1  0.4918610000000  0.4601680000000  0.5076910000000 1.0
C      1  0.4657020000000  0.4699640000000  0.5083030000000 1.0
C      1  0.5086800000000  0.4653650000000  0.4142810000000 1.0
C      1  0.4803980000000  0.4746220000000  0.4141910000000 1.0
C      1  0.4654060000000  0.4999800000000  0.4126010000000 1.0
C      1  0.4731610000000  0.5303600000000  0.4116630000000 1.0
C      1  0.5003010000000  0.5395490000000  0.4092800000000 1.0
C      1  0.5377840000000  0.5079400000000  0.4069450000000 1.0
C      1  0.5344680000000  0.4800930000000  0.4130260000000 1.0
C      1  0.4437200000000  0.4167390000000  0.5194370000000 1.0
C      1  0.4079540000000  0.4933140000000  0.5207750000000 1.0
C      1  0.4301470000000  0.5727990000000  0.5201900000000 1.0
C      1  0.5096970000000  0.5883210000000  0.5207520000000 1.0
C      1  0.5662960000000  0.5463640000000  0.5215310000000 1.0
C      1  0.5907280000000  0.4671140000000  0.5203940000000 1.0
C      1  0.5289460000000  0.4043160000000  0.5199810000000 1.0
C      1  0.4237310000000  0.4582760000000  0.4524390000000 1.0
C      1  0.4222210000000  0.5312700000000  0.4521260000000 1.0
C      1  0.4752980000000  0.5840030000000  0.4523770000000 1.0
C      1  0.5513720000000  0.5669020000000  0.4546510000000 1.0
C      1  0.5839000000000  0.5019810000000  0.4553460000000 1.0
C      1  0.5588330000000  0.4344290000000  0.4523700000000 1.0
C      1  0.4840430000000  0.4149990000000  0.4531720000000 1.0
C      1  0.4562900000000  0.5902310000000  0.4716770000000 1.0
C      1  0.5448170000000  0.5899320000000  0.4717540000000 1.0
C      1  0.5969700000000  0.5227660000000  0.4699370000000 1.0
C      1  0.5791940000000  0.4363020000000  0.4726390000000 1.0
C      1  0.4997120000000  0.3988070000000  0.4715900000000 1.0
C      1  0.4209030000000  0.4371590000000  0.4715770000000 1.0
C      1  0.4038290000000  0.5225680000000  0.4701710000000 1.0
C      1  0.4181470000000  0.5612100000000  0.4971050000000 1.0
C      1  0.4975960000000  0.6001710000000  0.4971620000000 1.0
C      1  0.5757880000000  0.5629820000000  0.4992600000000 1.0
C      1  0.6010860000000  0.4800770000000  0.4966810000000 1.0
C      1  0.5464020000000  0.4082780000000  0.4972180000000 1.0
C      1  0.4567690000000  0.4049170000000  0.4967710000000 1.0
C      1  0.4023300000000  0.4754130000000  0.4984450000000 1.0
C      1  0.5335240000000  0.4814920000000  0.5518430000000 1.0
C      1  0.5086490000000  0.4629830000000  0.5531350000000 1.0
C      1  0.4658260000000  0.4875430000000  0.5504000000000 1.0
C      1  0.4571200000000  0.5080370000000  0.5320220000000 1.0
C      1  0.4905290000000  0.5315190000000  0.5542660000000 1.0
C      1  0.5197160000000  0.5322110000000  0.5383140000000 1.0
C      1  0.5381310000000  0.5086750000000  0.5397620000000 1.0
C      1  0.4688750000000  0.5973230000000  0.4961850000000 1.0
C      1  0.5577120000000  0.5863710000000  0.4974910000000 1.0
C      1  0.6045630000000  0.5097870000000  0.4947920000000 1.0
C      1  0.5701600000000  0.4253940000000  0.4978590000000 1.0
C      1  0.4850230000000  0.3985290000000  0.4962170000000 1.0
C      1  0.4126830000000  0.4491220000000  0.4962140000000 1.0
C      1  0.4024070000000  0.5365720000000  0.4953630000000 1.0
C      1  0.5117180000000  0.5652920000000  0.4805730000000 1.0
C      1  0.5530230000000  0.5335270000000  0.4780640000000 1.0
C      1  0.5621420000000  0.4748890000000  0.4747270000000 1.0
C      1  0.5203870000000  0.4354410000000  0.4757490000000 1.0
C      1  0.4634410000000  0.4414820000000  0.4752190000000 1.0
C      1  0.4347050000000  0.4980820000000  0.4793680000000 1.0
C      1  0.4563090000000  0.5473210000000  0.4761990000000 1.0
C      1  0.5592720000000  0.5553560000000  0.5653300000000 1.0
C      1  0.5811330000000  0.4926300000000  0.5647600000000 1.0
C      1  0.5445350000000  0.4273190000000  0.5627070000000 1.0
C      1  0.4707790000000  0.4239890000000  0.5616830000000 1.0
C      1  0.4224050000000  0.4756760000000  0.5632330000000 1.0
C      1  0.4314640000000  0.5416190000000  0.5624850000000 1.0
C      1  0.5000290000000  0.5803740000000  0.5718210000000 1.0
C      1  0.4538020000000  0.5889040000000  0.5191660000000 1.0
C      1  0.5419920000000  0.5954280000000  0.5202870000000 1.0
C      1  0.6011590000000  0.5246220000000  0.5191750000000 1.0
C      1  0.5808940000000  0.4394000000000  0.5214680000000 1.0
C      1  0.5000970000000  0.4020480000000  0.5196270000000 1.0
C      1  0.4233670000000  0.4376710000000  0.5189970000000 1.0
C      1  0.3943630000000  0.5138350000000  0.5100030000000 1.0
C      1  0.4810910000000  0.4575460000000  0.5912230000000 1.0
C      1  0.4579950000000  0.4911030000000  0.5939940000000 1.0
C      1  0.4573340000000  0.5352610000000  0.5768100000000 1.0
C      1  0.5017920000000  0.5445130000000  0.5923640000000 1.0
C      1  0.5362650000000  0.5243220000000  0.5847340000000 1.0
C      1  0.5431160000000  0.4877440000000  0.5940820000000 1.0
C      1  0.5225130000000  0.4538970000000  0.5950930000000 1.0
C      1  0.4734980000000  0.5501940000000  0.5950400000000 1.0
C      1  0.5273820000000  0.5430160000000  0.6021450000000 1.0
C      1  0.5531660000000  0.5124870000000  0.6000830000000 1.0
C      1  0.5477570000000  0.4618250000000  0.6010540000000 1.0
C      1  0.5005950000000  0.4405280000000  0.5997590000000 1.0
C      1  0.4581540000000  0.4651120000000  0.6001750000000 1.0
C      1  0.4504240000000  0.5166720000000  0.5964260000000 1.0
C      1  0.5150400000000  0.4381720000000  0.4220250000000 1.0
C      1  0.4640910000000  0.4526690000000  0.4263540000000 1.0
C      1  0.4379140000000  0.4989530000000  0.4208890000000 1.0
C      1  0.4572590000000  0.5525990000000  0.4212540000000 1.0
C      1  0.5122820000000  0.5630730000000  0.4224940000000 1.0
C      1  0.5544290000000  0.5252570000000  0.4249090000000 1.0
C      1  0.5609660000000  0.4703980000000  0.4210770000000 1.0
C      1  0.4859600000000  0.5514460000000  0.4800070000000 1.0
C      1  0.5298730000000  0.5454720000000  0.4901810000000 1.0
C      1  0.5504890000000  0.5016230000000  0.4816110000000 1.0
C      1  0.5385180000000  0.4574260000000  0.4814560000000 1.0
C      1  0.4925910000000  0.4465120000000  0.4798410000000 1.0
C      1  0.4535330000000  0.4759830000000  0.4821360000000 1.0
C      1  0.4498160000000  0.5216640000000  0.4873820000000 1.0
C      1  0.4627740000000  0.5748480000000  0.5450980000000 1.0
C      1  0.5412430000000  0.5797850000000  0.5461530000000 1.0
C      1  0.5882410000000  0.5186280000000  0.5439740000000 1.0
C      1  0.5643950000000  0.4430510000000  0.5463160000000 1.0
C      1  0.4954130000000  0.4192490000000  0.5428180000000 1.0
C      1  0.4322350000000  0.4511280000000  0.5440810000000 1.0
C      1  0.4150670000000  0.5214610000000  0.5499040000000 1.0
C      1  0.4451450000000  0.4200030000000  0.4742390000000 1.0
C      1  0.4061720000000  0.4938990000000  0.4757390000000 1.0
C      1  0.4374100000000  0.5681670000000  0.4759040000000 1.0
C      1  0.5158520000000  0.5930970000000  0.4752850000000 1.0
C      1  0.5797030000000  0.5451330000000  0.4763040000000 1.0
C      1  0.5887750000000  0.4643370000000  0.4755390000000 1.0
C      1  0.5273570000000  0.4081640000000  0.4746070000000 1.0
C      1  0.4923870000000  0.5003960000000  0.5531020000000 1.0
C      1  0.4979170000000  0.4963040000000  0.5268350000000 1.0
C      1  0.5092580000000  0.5117590000000  0.4036890000000 1.0
C      1  0.5050920000000  0.4980130000000  0.5007830000000 1.0
C      1  0.5015430000000  0.5057900000000  0.4313950000000 1.0
END
