TITL C-2441159-1093-1207 0.0844690343224828 125000 -22880.8713909602 0 0 167 (C1) n - 1
REM
REM in /home/bkarasulu/work/CARBON/AIRSS/Generating-Clusters/ReaxFF-fromJPCA2015/Units_Real/with-SteepDescent/Higher-Symm
REM
REM
REM
REM
REM
REM ./C.cell (1df0a924f5614ab8850e4351716899ee)
REM
REM compiler GCC version 9.2.1 20190827 (Red Hat 9.2.1-1)
REM options -cpp -mtune=generic -march=x86-64 -g -O0 -fpre-include=/usr/include/finclude/math-vector-fortran.h
REM seed 834023277 1862210584 -1785817603 764648471 864628860 -1943412097 1045728905 2105397839 1007113591 -2130337638 -2063441787 -748494967 -1411509402 -1810205234 1703896923 -692646437 -59102091 -1905232535 -1490793592 1927162736 -1808725223 2088377763 1749190300 -132471337 -563982411 -1598304993 484399556 -435806994 416017648 1233021436 1612832941 1278024700 113248930
REM
CELL 1.54180   50.00000   50.00000   50.00000   90.00000   90.00000   90.00000
LATT -1
SFAC C  
C      1  0.5106560000000  0.4385060000000  0.5447910000000 1.0
C      1  0.5086130000000  0.5682050000000  0.4547720000000 1.0
C      1  0.4916400000000  0.4289520000000  0.4564830000000 1.0
C      1  0.4955160000000  0.5616040000000  0.5492490000000 1.0
C      1  0.5172930000000  0.5451300000000  0.4424590000000 1.0
C      1  0.5183920000000  0.4531670000000  0.5674050000000 1.0
C      1  0.4926780000000  0.4470650000000  0.4376600000000 1.0
C      1  0.4975250000000  0.5432360000000  0.5668670000000 1.0
C      1  0.5328600000000  0.4328340000000  0.4160260000000 1.0
C      1  0.5373420000000  0.5614890000000  0.5833050000000 1.0
C      1  0.4718040000000  0.4372320000000  0.5818060000000 1.0
C      1  0.4656000000000  0.5676100000000  0.4166250000000 1.0
C      1  0.5326880000000  0.4143100000000  0.4391720000000 1.0
C      1  0.5386850000000  0.5830350000000  0.5621830000000 1.0
C      1  0.4709820000000  0.5834190000000  0.4399080000000 1.0
C      1  0.4736850000000  0.4182150000000  0.5589770000000 1.0
C      1  0.4292870000000  0.5296120000000  0.4224550000000 1.0
C      1  0.4350910000000  0.4737150000000  0.5744710000000 1.0
C      1  0.5735260000000  0.5250360000000  0.5737280000000 1.0
C      1  0.5692650000000  0.4750070000000  0.4306210000000 1.0
C      1  0.4357280000000  0.4242840000000  0.5177010000000 1.0
C      1  0.4279200000000  0.5775450000000  0.4726060000000 1.0
C      1  0.5664260000000  0.5753160000000  0.5143430000000 1.0
C      1  0.5694200000000  0.4241750000000  0.4770150000000 1.0
C      1  0.5473980000000  0.5716560000000  0.5358760000000 1.0
C      1  0.5557730000000  0.4266660000000  0.4504600000000 1.0
C      1  0.4515170000000  0.5656690000000  0.4557740000000 1.0
C      1  0.4582220000000  0.4292370000000  0.5359860000000 1.0
C      1  0.5459310000000  0.5357450000000  0.5704580000000 1.0
C      1  0.5497230000000  0.4536740000000  0.4369870000000 1.0
C      1  0.4501150000000  0.4514940000000  0.5743280000000 1.0
C      1  0.4443110000000  0.5539490000000  0.4277820000000 1.0
C      1  0.4801750000000  0.6085420000000  0.4803350000000 1.0
C      1  0.4863440000000  0.3959150000000  0.5143240000000 1.0
C      1  0.5105230000000  0.6037260000000  0.5233710000000 1.0
C      1  0.5249660000000  0.3986030000000  0.4836550000000 1.0
C      1  0.4863190000000  0.4824200000000  0.6009030000000 1.0
C      1  0.4788640000000  0.5236570000000  0.3985330000000 1.0
C      1  0.5170450000000  0.5212250000000  0.6048710000000 1.0
C      1  0.5192650000000  0.4813140000000  0.3990640000000 1.0
C      1  0.4468100000000  0.4490120000000  0.4277160000000 1.0
C      1  0.4520810000000  0.5422000000000  0.5856100000000 1.0
C      1  0.5476220000000  0.4489040000000  0.5769630000000 1.0
C      1  0.5427620000000  0.5466170000000  0.4273580000000 1.0
C      1  0.4452100000000  0.4161920000000  0.4633260000000 1.0
C      1  0.4514450000000  0.5660130000000  0.5465210000000 1.0
C      1  0.5516600000000  0.5822480000000  0.4596570000000 1.0
C      1  0.5437510000000  0.4150300000000  0.5522200000000 1.0
C      1  0.5139130000000  0.4735910000000  0.6032530000000 1.0
C      1  0.5098320000000  0.5501800000000  0.4028190000000 1.0
C      1  0.4866900000000  0.4762150000000  0.4048270000000 1.0
C      1  0.4875960000000  0.5302670000000  0.6055380000000 1.0
C      1  0.5081140000000  0.6092080000000  0.4753010000000 1.0
C      1  0.5085690000000  0.3957790000000  0.5269790000000 1.0
C      1  0.4873030000000  0.3902930000000  0.4660150000000 1.0
C      1  0.4827540000000  0.5984830000000  0.5302500000000 1.0
C      1  0.5293780000000  0.5680600000000  0.4129700000000 1.0
C      1  0.5257760000000  0.4307930000000  0.5857160000000 1.0
C      1  0.4778480000000  0.5537700000000  0.5858260000000 1.0
C      1  0.4731920000000  0.4496480000000  0.4166600000000 1.0
C      1  0.5220630000000  0.4063750000000  0.5690450000000 1.0
C      1  0.5293500000000  0.5838560000000  0.4412400000000 1.0
C      1  0.4756100000000  0.5808420000000  0.5539430000000 1.0
C      1  0.4710710000000  0.4091350000000  0.4517700000000 1.0
C      1  0.4193510000000  0.4664960000000  0.5504430000000 1.0
C      1  0.4107130000000  0.5356620000000  0.4442180000000 1.0
C      1  0.5890090000000  0.4666720000000  0.4500080000000 1.0
C      1  0.5879360000000  0.5352370000000  0.5493730000000 1.0
C      1  0.4098640000000  0.5558690000000  0.4654770000000 1.0
C      1  0.4195700000000  0.4474550000000  0.5269430000000 1.0
C      1  0.5884020000000  0.4455930000000  0.4710130000000 1.0
C      1  0.5838660000000  0.5527850000000  0.5240870000000 1.0
C      1  0.5122950000000  0.4931700000000  0.5644620000000 1.0
C      1  0.5114590000000  0.5056370000000  0.4305980000000 1.0
C      1  0.4922690000000  0.4872460000000  0.4316900000000 1.0
C      1  0.4994300000000  0.5168230000000  0.5564900000000 1.0
C      1  0.5018930000000  0.5574900000000  0.4809820000000 1.0
C      1  0.5087540000000  0.4391250000000  0.5181700000000 1.0
C      1  0.4987430000000  0.4390700000000  0.4840410000000 1.0
C      1  0.4877860000000  0.5669970000000  0.5022190000000 1.0
C      1  0.5727430000000  0.4788290000000  0.5630790000000 1.0
C      1  0.5848100000000  0.5263510000000  0.4439190000000 1.0
C      1  0.4300000000000  0.4817690000000  0.4371290000000 1.0
C      1  0.4215290000000  0.5267720000000  0.5552910000000 1.0
C      1  0.5774460000000  0.5461960000000  0.4633410000000 1.0
C      1  0.5718550000000  0.4387740000000  0.5256740000000 1.0
C      1  0.4204220000000  0.4473670000000  0.4728680000000 1.0
C      1  0.4228190000000  0.5626400000000  0.5164390000000 1.0
C      1  0.5036520000000  0.5233740000000  0.4510850000000 1.0
C      1  0.5001360000000  0.4782790000000  0.5419230000000 1.0
C      1  0.4884590000000  0.5191030000000  0.5287070000000 1.0
C      1  0.4985660000000  0.4706410000000  0.4536930000000 1.0
C      1  0.5099760000000  0.4677190000000  0.5182890000000 1.0
C      1  0.5111510000000  0.5291340000000  0.4845140000000 1.0
C      1  0.4991050000000  0.5514960000000  0.5246310000000 1.0
C      1  0.4894520000000  0.4665660000000  0.4826540000000 1.0
C      1  0.4108530000000  0.4875380000000  0.4598080000000 1.0
C      1  0.4084980000000  0.5167400000000  0.5321250000000 1.0
C      1  0.5910710000000  0.4829070000000  0.5391210000000 1.0
C      1  0.5986170000000  0.5127140000000  0.4648410000000 1.0
C      1  0.4057420000000  0.4699870000000  0.4813950000000 1.0
C      1  0.4094690000000  0.5370180000000  0.5122410000000 1.0
C      1  0.5970000000000  0.5340750000000  0.4836360000000 1.0
C      1  0.5902670000000  0.4625850000000  0.5192450000000 1.0
C      1  0.4605640000000  0.5021990000000  0.5302410000000 1.0
C      1  0.4628510000000  0.5003670000000  0.4720720000000 1.0
C      1  0.5400900000000  0.4925110000000  0.4754990000000 1.0
C      1  0.5408030000000  0.5023320000000  0.5304710000000 1.0
C      1  0.4580920000000  0.5347760000000  0.4990860000000 1.0
C      1  0.4643350000000  0.4670000000000  0.4975050000000 1.0
C      1  0.5335780000000  0.4666130000000  0.5047230000000 1.0
C      1  0.5396240000000  0.5320950000000  0.4969760000000 1.0
C      1  0.5358140000000  0.4022790000000  0.5076020000000 1.0
C      1  0.5259850000000  0.5990030000000  0.4956150000000 1.0
C      1  0.4710480000000  0.3968260000000  0.4920240000000 1.0
C      1  0.4688050000000  0.5906340000000  0.5039820000000 1.0
C      1  0.5343820000000  0.5014570000000  0.4140100000000 1.0
C      1  0.5301260000000  0.4954480000000  0.5905270000000 1.0
C      1  0.4646920000000  0.5006880000000  0.4026080000000 1.0
C      1  0.4697290000000  0.5080460000000  0.5991800000000 1.0
C      1  0.4638690000000  0.4553860000000  0.5247430000000 1.0
C      1  0.4637600000000  0.5435440000000  0.4726290000000 1.0
C      1  0.5266340000000  0.4490650000000  0.4824150000000 1.0
C      1  0.5316060000000  0.5481180000000  0.5239850000000 1.0
C      1  0.4751020000000  0.5222460000000  0.4583340000000 1.0
C      1  0.4720390000000  0.4776170000000  0.5401730000000 1.0
C      1  0.5315460000000  0.4681780000000  0.4604400000000 1.0
C      1  0.5378510000000  0.5272250000000  0.5434260000000 1.0
C      1  0.4364460000000  0.5818230000000  0.4993370000000 1.0
C      1  0.4460330000000  0.4125610000000  0.4923800000000 1.0
C      1  0.5506680000000  0.5854120000000  0.4900570000000 1.0
C      1  0.5592240000000  0.4185250000000  0.5035830000000 1.0
C      1  0.4468390000000  0.5025820000000  0.5812810000000 1.0
C      1  0.4394410000000  0.5025770000000  0.4177970000000 1.0
C      1  0.5626690000000  0.4991160000000  0.5812970000000 1.0
C      1  0.5608930000000  0.5037300000000  0.4301080000000 1.0
C      1  0.4098320000000  0.5341810000000  0.4848470000000 1.0
C      1  0.4115350000000  0.4697800000000  0.5099270000000 1.0
C      1  0.5828370000000  0.5279460000000  0.5087740000000 1.0
C      1  0.5916040000000  0.4664590000000  0.4911830000000 1.0
C      1  0.4112060000000  0.4879720000000  0.5315670000000 1.0
C      1  0.4102670000000  0.5151570000000  0.4640460000000 1.0
C      1  0.5909220000000  0.5116270000000  0.5327690000000 1.0
C      1  0.5917240000000  0.4862940000000  0.4708060000000 1.0
C      1  0.5505950000000  0.4592170000000  0.5243610000000 1.0
C      1  0.5526730000000  0.5354520000000  0.4727160000000 1.0
C      1  0.4462660000000  0.4590300000000  0.4771100000000 1.0
C      1  0.4479530000000  0.5499120000000  0.5228090000000 1.0
C      1  0.5477660000000  0.5123240000000  0.4576130000000 1.0
C      1  0.5500770000000  0.4784780000000  0.5434200000000 1.0
C      1  0.4526430000000  0.4776210000000  0.4567410000000 1.0
C      1  0.4459990000000  0.5126160000000  0.5541630000000 1.0
C      1  0.4966060000000  0.3995840000000  0.5537300000000 1.0
C      1  0.4859170000000  0.6038340000000  0.4528270000000 1.0
C      1  0.5161400000000  0.3967380000000  0.4583970000000 1.0
C      1  0.5192570000000  0.5983590000000  0.5491170000000 1.0
C      1  0.4825860000000  0.5511390000000  0.3961890000000 1.0
C      1  0.4906200000000  0.4547980000000  0.5995840000000 1.0
C      1  0.5228500000000  0.4554800000000  0.4041120000000 1.0
C      1  0.5227430000000  0.5483830000000  0.6028540000000 1.0
C      1  0.5644240000000  0.5620310000000  0.4424480000000 1.0
C      1  0.5630260000000  0.4346880000000  0.5562480000000 1.0
C      1  0.4344600000000  0.5512350000000  0.5652620000000 1.0
C      1  0.4303860000000  0.4360810000000  0.4475130000000 1.0
C      1  0.5425430000000  0.5040410000000  0.5018490000000 1.0
C      1  0.4544700000000  0.5064460000000  0.4993800000000 1.0
C      1  0.4992760000000  0.5085590000000  0.5029890000000 1.0
END
