TITL C-2441162-9305-488 0.0261017440390646 125000 -8201.16948103399 0 0 63 (C1) n - 1
REM
REM in /home/bkarasulu/work/CARBON/AIRSS/Generating-Clusters/ReaxFF-fromJPCA2015/Units_Real/with-SteepDescent/Higher-Symm
REM
REM
REM
REM
REM
REM ./C.cell (1df0a924f5614ab8850e4351716899ee)
REM
REM compiler GCC version 9.2.1 20190827 (Red Hat 9.2.1-1)
REM options -cpp -mtune=generic -march=x86-64 -g -O0 -fpre-include=/usr/include/finclude/math-vector-fortran.h
REM seed -778475742 1798584579 187703333 -1415600159 1555619625 -2096048273 91897887 -59581963 1480444922 -1275766062 273828264 229504316 156003134 -1676758251 -392732878 2034713503 475200409 2125380355 -1475058161 267082401 1601112522 1201864838 -127550449 -1317957310 1715731864 -1015845621 1446333762 -437534798 -1573838138 257063622 1129523387 -1115467939 -68359879
REM
CELL 1.54180   50.00000   50.00000   50.00000   90.00000   90.00000   90.00000
LATT -1
SFAC C  
C      1  0.5688700000000  0.4778170000000  0.4837060000000 1.0
C      1  0.4458040000000  0.4521930000000  0.4834540000000 1.0
C      1  0.4853610000000  0.5706210000000  0.4831880000000 1.0
C      1  0.5333860000000  0.5505190000000  0.4878080000000 1.0
C      1  0.5261130000000  0.4473190000000  0.4894040000000 1.0
C      1  0.4402670000000  0.5036230000000  0.4878820000000 1.0
C      1  0.4802150000000  0.4310280000000  0.5296410000000 1.0
C      1  0.4508220000000  0.5494870000000  0.5287220000000 1.0
C      1  0.5687720000000  0.5190100000000  0.5281560000000 1.0
C      1  0.5342740000000  0.4342990000000  0.5147530000000 1.0
C      1  0.4254420000000  0.5027140000000  0.5155860000000 1.0
C      1  0.5398430000000  0.5631860000000  0.5145570000000 1.0
C      1  0.4877950000000  0.4363920000000  0.5009300000000 1.0
C      1  0.4521330000000  0.5411760000000  0.4986000000000 1.0
C      1  0.5621010000000  0.5227310000000  0.4975610000000 1.0
C      1  0.5451120000000  0.4581530000000  0.5305740000000 1.0
C      1  0.4400770000000  0.4832190000000  0.5312180000000 1.0
C      1  0.5147050000000  0.5583960000000  0.5297940000000 1.0
C      1  0.4518800000000  0.5366780000000  0.5549770000000 1.0
C      1  0.5552930000000  0.5240880000000  0.5535970000000 1.0
C      1  0.4909200000000  0.4425290000000  0.5549420000000 1.0
C      1  0.4575890000000  0.5141270000000  0.5723170000000 1.0
C      1  0.5318420000000  0.5288260000000  0.5696830000000 1.0
C      1  0.5089110000000  0.4635230000000  0.5629980000000 1.0
C      1  0.5017200000000  0.4612510000000  0.4939230000000 1.0
C      1  0.4630120000000  0.5169350000000  0.4935650000000 1.0
C      1  0.5333770000000  0.5222020000000  0.4915700000000 1.0
C      1  0.4615220000000  0.5119620000000  0.4368670000000 1.0
C      1  0.5277080000000  0.5282320000000  0.4386670000000 1.0
C      1  0.5014200000000  0.4691680000000  0.4390650000000 1.0
C      1  0.5666130000000  0.4711580000000  0.5151570000000 1.0
C      1  0.4401670000000  0.4580580000000  0.5152530000000 1.0
C      1  0.4927010000000  0.5714700000000  0.5152500000000 1.0
C      1  0.5659320000000  0.5068150000000  0.4733440000000 1.0
C      1  0.4731590000000  0.4376070000000  0.4755880000000 1.0
C      1  0.4623910000000  0.5527610000000  0.4741750000000 1.0
C      1  0.5284220000000  0.4767230000000  0.5479020000000 1.0
C      1  0.4667980000000  0.4921360000000  0.5502020000000 1.0
C      1  0.5097610000000  0.5292510000000  0.5467860000000 1.0
C      1  0.5415550000000  0.4625920000000  0.4401920000000 1.0
C      1  0.4498480000000  0.4843440000000  0.4383520000000 1.0
C      1  0.5133740000000  0.5537510000000  0.4404780000000 1.0
C      1  0.5234940000000  0.5040450000000  0.5376320000000 1.0
C      1  0.4882490000000  0.4711000000000  0.5494950000000 1.0
C      1  0.4826600000000  0.5148060000000  0.5385770000000 1.0
C      1  0.5265950000000  0.4843880000000  0.4510810000000 1.0
C      1  0.4785340000000  0.4885050000000  0.4426650000000 1.0
C      1  0.4993990000000  0.5297320000000  0.4529730000000 1.0
C      1  0.4694900000000  0.5359130000000  0.4514430000000 1.0
C      1  0.5458050000000  0.5098520000000  0.4514780000000 1.0
C      1  0.4879850000000  0.4499520000000  0.4550890000000 1.0
C      1  0.4500420000000  0.4794210000000  0.4787680000000 1.0
C      1  0.5059030000000  0.5483110000000  0.4800110000000 1.0
C      1  0.5405830000000  0.4701060000000  0.4795360000000 1.0
C      1  0.4798750000000  0.5054550000000  0.5110660000000 1.0
C      1  0.5205640000000  0.5045050000000  0.5097450000000 1.0
C      1  0.4995570000000  0.4872980000000  0.5029140000000 1.0
C      1  0.5063960000000  0.5706170000000  0.4621670000000 1.0
C      1  0.5609450000000  0.4595460000000  0.4583560000000 1.0
C      1  0.4374390000000  0.4679850000000  0.4581340000000 1.0
C      1  0.4742200000000  0.5628260000000  0.5332500000000 1.0
C      1  0.5684790000000  0.4920620000000  0.5328410000000 1.0
C      1  0.4567850000000  0.4455050000000  0.5323900000000 1.0
END
