TITL C-2441160-1326-854 0.0968110545933134 125000 -22594.8189207943 0 0 166 (C1) n - 1
REM
REM in /home/bkarasulu/work/CARBON/AIRSS/Generating-Clusters/ReaxFF-fromJPCA2015/Units_Real/with-SteepDescent/Higher-Symm
REM
REM
REM
REM
REM
REM ./C.cell (1df0a924f5614ab8850e4351716899ee)
REM
REM compiler GCC version 9.2.1 20190827 (Red Hat 9.2.1-1)
REM options -cpp -mtune=generic -march=x86-64 -g -O0 -fpre-include=/usr/include/finclude/math-vector-fortran.h
REM seed 1123532893 -628767396 -400743049 1559864116 924808048 819419446 134703685 103846544 -593113719 1732807823 -1645541841 1574306019 830932014 1939546255 -149146927 2119591643 367406678 -153677266 -1776060106 687800123 1701178104 -1686028333 1755040101 -1798867109 1100150940 -335174368 -1694516253 1168011358 128930265 -241734071 -1328442032 540914826 -229501570
REM
CELL 1.54180   50.00000   50.00000   50.00000   90.00000   90.00000   90.00000
LATT -1
SFAC C  
C      1  0.5046960000000  0.4194120000000  0.4448980000000 1.0
C      1  0.4578610000000  0.4141180000000  0.5182570000000 1.0
C      1  0.5475900000000  0.4156840000000  0.5334610000000 1.0
C      1  0.5070700000000  0.5817460000000  0.4409880000000 1.0
C      1  0.4483930000000  0.5829260000000  0.5187450000000 1.0
C      1  0.5447130000000  0.5845990000000  0.5232660000000 1.0
C      1  0.4222340000000  0.4199200000000  0.4775320000000 1.0
C      1  0.5230970000000  0.4408370000000  0.5751740000000 1.0
C      1  0.5541780000000  0.4432100000000  0.4433520000000 1.0
C      1  0.4167140000000  0.5612770000000  0.4806750000000 1.0
C      1  0.5230460000000  0.5532140000000  0.5784570000000 1.0
C      1  0.5566020000000  0.5618220000000  0.4371970000000 1.0
C      1  0.4162760000000  0.5511560000000  0.5306860000000 1.0
C      1  0.5719810000000  0.5530380000000  0.5609250000000 1.0
C      1  0.5162590000000  0.5515840000000  0.4095740000000 1.0
C      1  0.4176610000000  0.4454820000000  0.5316390000000 1.0
C      1  0.5725420000000  0.4449720000000  0.5608710000000 1.0
C      1  0.5179120000000  0.4445500000000  0.4080790000000 1.0
C      1  0.5792690000000  0.4393640000000  0.4942010000000 1.0
C      1  0.4533960000000  0.4359350000000  0.4389320000000 1.0
C      1  0.4697410000000  0.4336370000000  0.5659080000000 1.0
C      1  0.5833760000000  0.5605160000000  0.4955870000000 1.0
C      1  0.4559490000000  0.5637720000000  0.4323020000000 1.0
C      1  0.4689150000000  0.5594630000000  0.5766470000000 1.0
C      1  0.5174980000000  0.4987610000000  0.4863070000000 1.0
C      1  0.4652280000000  0.4909710000000  0.4826130000000 1.0
C      1  0.4999140000000  0.5002090000000  0.5258280000000 1.0
C      1  0.5189380000000  0.5253240000000  0.4952550000000 1.0
C      1  0.4815980000000  0.5143760000000  0.4801830000000 1.0
C      1  0.4743460000000  0.5105300000000  0.5312890000000 1.0
C      1  0.5241690000000  0.4728070000000  0.4037580000000 1.0
C      1  0.4056160000000  0.4722810000000  0.5294130000000 1.0
C      1  0.5729480000000  0.4730130000000  0.5692730000000 1.0
C      1  0.5259510000000  0.5264920000000  0.4040180000000 1.0
C      1  0.4054630000000  0.5266710000000  0.5243380000000 1.0
C      1  0.5729470000000  0.5262260000000  0.5734780000000 1.0
C      1  0.5861440000000  0.5538110000000  0.5357340000000 1.0
C      1  0.4873790000000  0.5551810000000  0.4069340000000 1.0
C      1  0.4306000000000  0.5487300000000  0.5548960000000 1.0
C      1  0.5834430000000  0.4359440000000  0.5365040000000 1.0
C      1  0.4915170000000  0.4346180000000  0.4070690000000 1.0
C      1  0.4320230000000  0.4336430000000  0.5523970000000 1.0
C      1  0.4487480000000  0.5156300000000  0.4491320000000 1.0
C      1  0.4949710000000  0.5187260000000  0.5642270000000 1.0
C      1  0.5569200000000  0.5145880000000  0.4832700000000 1.0
C      1  0.4591110000000  0.4798600000000  0.4589270000000 1.0
C      1  0.5027780000000  0.4909040000000  0.5694580000000 1.0
C      1  0.5562250000000  0.4879230000000  0.4831730000000 1.0
C      1  0.5166170000000  0.5433500000000  0.4722360000000 1.0
C      1  0.4671500000000  0.5345500000000  0.4943640000000 1.0
C      1  0.5217440000000  0.5398630000000  0.5212880000000 1.0
C      1  0.5146720000000  0.4581620000000  0.4712130000000 1.0
C      1  0.4773970000000  0.4660750000000  0.4979760000000 1.0
C      1  0.5184180000000  0.4612940000000  0.5297140000000 1.0
C      1  0.4238730000000  0.4944780000000  0.5787840000000 1.0
C      1  0.6032720000000  0.4878690000000  0.5249470000000 1.0
C      1  0.4702620000000  0.4885970000000  0.3959070000000 1.0
C      1  0.4251780000000  0.5244980000000  0.5722770000000 1.0
C      1  0.6040000000000  0.5177060000000  0.5275350000000 1.0
C      1  0.4735870000000  0.5179360000000  0.3932590000000 1.0
C      1  0.5198330000000  0.4016160000000  0.4624060000000 1.0
C      1  0.4413330000000  0.4059010000000  0.4955530000000 1.0
C      1  0.5241880000000  0.3981110000000  0.5341280000000 1.0
C      1  0.5176400000000  0.5987330000000  0.4637670000000 1.0
C      1  0.4582350000000  0.5966210000000  0.4968680000000 1.0
C      1  0.5241640000000  0.5955680000000  0.5408050000000 1.0
C      1  0.5493830000000  0.5126420000000  0.5848600000000 1.0
C      1  0.5470120000000  0.5143170000000  0.4185510000000 1.0
C      1  0.4130610000000  0.5112820000000  0.5007030000000 1.0
C      1  0.5493360000000  0.4831780000000  0.5833640000000 1.0
C      1  0.5463840000000  0.4855130000000  0.4179410000000 1.0
C      1  0.4023370000000  0.4834700000000  0.5021980000000 1.0
C      1  0.5040510000000  0.6126250000000  0.4870510000000 1.0
C      1  0.4820740000000  0.6082280000000  0.5083500000000 1.0
C      1  0.5107520000000  0.6082760000000  0.5141820000000 1.0
C      1  0.5002160000000  0.3919080000000  0.4824680000000 1.0
C      1  0.4847000000000  0.3968610000000  0.5062510000000 1.0
C      1  0.5107800000000  0.3865800000000  0.5102800000000 1.0
C      1  0.5442160000000  0.5922930000000  0.4697790000000 1.0
C      1  0.4548560000000  0.5861790000000  0.4675590000000 1.0
C      1  0.5003500000000  0.5833600000000  0.5515060000000 1.0
C      1  0.5418540000000  0.4155460000000  0.4753840000000 1.0
C      1  0.4623400000000  0.4141850000000  0.4765840000000 1.0
C      1  0.5023990000000  0.4168820000000  0.5405820000000 1.0
C      1  0.5000220000000  0.4859230000000  0.3939990000000 1.0
C      1  0.4107360000000  0.4886040000000  0.5528640000000 1.0
C      1  0.5920500000000  0.4865250000000  0.5523280000000 1.0
C      1  0.5026540000000  0.5134970000000  0.3933430000000 1.0
C      1  0.4087750000000  0.5157680000000  0.5489640000000 1.0
C      1  0.5919720000000  0.5145390000000  0.5543720000000 1.0
C      1  0.5939600000000  0.4718150000000  0.5017800000000 1.0
C      1  0.4539550000000  0.4763930000000  0.4167560000000 1.0
C      1  0.4473770000000  0.4798270000000  0.5899400000000 1.0
C      1  0.5938130000000  0.5312100000000  0.5019370000000 1.0
C      1  0.4638650000000  0.5362300000000  0.4148110000000 1.0
C      1  0.4593830000000  0.5329820000000  0.5846060000000 1.0
C      1  0.5290320000000  0.5668130000000  0.4300600000000 1.0
C      1  0.4268610000000  0.5680150000000  0.5094990000000 1.0
C      1  0.5430070000000  0.5510530000000  0.5570100000000 1.0
C      1  0.5256160000000  0.4376480000000  0.4365190000000 1.0
C      1  0.4413970000000  0.4441940000000  0.5122160000000 1.0
C      1  0.5454740000000  0.4333360000000  0.5562410000000 1.0
C      1  0.5096740000000  0.4346980000000  0.5186000000000 1.0
C      1  0.5085880000000  0.4344660000000  0.4884200000000 1.0
C      1  0.4797070000000  0.4372050000000  0.4839210000000 1.0
C      1  0.5249310000000  0.5675080000000  0.5108260000000 1.0
C      1  0.5051100000000  0.5648640000000  0.4903990000000 1.0
C      1  0.4821340000000  0.5579280000000  0.5049340000000 1.0
C      1  0.4268870000000  0.5149640000000  0.4282360000000 1.0
C      1  0.4744650000000  0.5175170000000  0.6051690000000 1.0
C      1  0.6006260000000  0.5141760000000  0.4744730000000 1.0
C      1  0.4275080000000  0.4857490000000  0.4256970000000 1.0
C      1  0.4702530000000  0.4889120000000  0.6058290000000 1.0
C      1  0.6004280000000  0.4850250000000  0.4757700000000 1.0
C      1  0.5259010000000  0.5281140000000  0.5935330000000 1.0
C      1  0.5626710000000  0.5326430000000  0.4370960000000 1.0
C      1  0.4146210000000  0.5316100000000  0.4748770000000 1.0
C      1  0.5269130000000  0.4653460000000  0.5903070000000 1.0
C      1  0.5639230000000  0.4695200000000  0.4354250000000 1.0
C      1  0.4095670000000  0.4708600000000  0.4773050000000 1.0
C      1  0.4664510000000  0.5108470000000  0.5593220000000 1.0
C      1  0.5652690000000  0.5188580000000  0.5108520000000 1.0
C      1  0.4743370000000  0.5150630000000  0.4361530000000 1.0
C      1  0.4602340000000  0.4823900000000  0.5641750000000 1.0
C      1  0.5651630000000  0.4868830000000  0.5107740000000 1.0
C      1  0.4753250000000  0.4828730000000  0.4372360000000 1.0
C      1  0.5512760000000  0.4459780000000  0.4969880000000 1.0
C      1  0.4531540000000  0.4543290000000  0.4614360000000 1.0
C      1  0.4719710000000  0.4603760000000  0.5493990000000 1.0
C      1  0.5598530000000  0.5581320000000  0.4815620000000 1.0
C      1  0.4640840000000  0.5587190000000  0.4599100000000 1.0
C      1  0.4820240000000  0.5617230000000  0.5350190000000 1.0
C      1  0.5445780000000  0.5279410000000  0.5357740000000 1.0
C      1  0.4971840000000  0.5206450000000  0.4559190000000 1.0
C      1  0.4552130000000  0.5193120000000  0.5143990000000 1.0
C      1  0.5434440000000  0.4791150000000  0.5305030000000 1.0
C      1  0.5047510000000  0.4717100000000  0.4475820000000 1.0
C      1  0.4560500000000  0.4686510000000  0.5189210000000 1.0
C      1  0.4785160000000  0.4231530000000  0.4284760000000 1.0
C      1  0.4529080000000  0.4161440000000  0.5489600000000 1.0
C      1  0.5741480000000  0.4183750000000  0.5167120000000 1.0
C      1  0.4823950000000  0.5761700000000  0.4261140000000 1.0
C      1  0.4533600000000  0.5665170000000  0.5524660000000 1.0
C      1  0.5739980000000  0.5734310000000  0.5202360000000 1.0
C      1  0.4990890000000  0.5389880000000  0.5446440000000 1.0
C      1  0.5491860000000  0.5360120000000  0.4673380000000 1.0
C      1  0.4466790000000  0.5359630000000  0.4692840000000 1.0
C      1  0.4998480000000  0.4686000000000  0.5518580000000 1.0
C      1  0.5416260000000  0.4647090000000  0.4770670000000 1.0
C      1  0.4305980000000  0.4488000000000  0.4819280000000 1.0
C      1  0.5039280000000  0.5137360000000  0.6067990000000 1.0
C      1  0.5873730000000  0.5141730000000  0.4487620000000 1.0
C      1  0.4076370000000  0.5139850000000  0.4501770000000 1.0
C      1  0.5014100000000  0.4845870000000  0.5993800000000 1.0
C      1  0.5856150000000  0.4850590000000  0.4484450000000 1.0
C      1  0.4098290000000  0.4846530000000  0.4514300000000 1.0
C      1  0.4417960000000  0.4156790000000  0.4558570000000 1.0
C      1  0.4978300000000  0.4263940000000  0.5680630000000 1.0
C      1  0.5659400000000  0.4269090000000  0.4650370000000 1.0
C      1  0.4288520000000  0.5770400000000  0.4603240000000 1.0
C      1  0.4975890000000  0.5690170000000  0.5760520000000 1.0
C      1  0.5667070000000  0.5766380000000  0.4613420000000 1.0
C      1  0.5283020000000  0.5021670000000  0.5371150000000 1.0
C      1  0.4439880000000  0.4950040000000  0.5054370000000 1.0
C      1  0.5153660000000  0.4963650000000  0.4569470000000 1.0
C      1  0.5029960000000  0.4804570000000  0.5053080000000 1.0
END
