TITL C-2441166-8118-573 0.0060232711436235 125000 -8940.07109623059 0 0 64 (C1) n - 1
REM
REM in /home/bkarasulu/work/CARBON/AIRSS/Generating-Clusters/ReaxFF-fromJPCA2015/Units_Real/with-SteepDescent/Higher-Symm
REM
REM
REM
REM
REM
REM ./C.cell (1df0a924f5614ab8850e4351716899ee)
REM
REM compiler GCC version 9.2.1 20190827 (Red Hat 9.2.1-1)
REM options -cpp -mtune=generic -march=x86-64 -g -O0 -fpre-include=/usr/include/finclude/math-vector-fortran.h
REM seed -1545284316 1703198538 -764884467 -664095933 -2134329511 38387209 1270631132 1001847883 -463119191 -1080135965 -1990406774 1294458366 1906883093 -1106650004 698851209 -1350659023 -774533374 640818559 -479293284 -1952556489 1747464704 773455059 1337101262 -1630225673 1715002577 1606427485 -1422674682 315312112 548484426 338491745 -764132476 300341901 889826802
REM
CELL 1.54180   50.00000   50.00000   50.00000   90.00000   90.00000   90.00000
LATT -1
SFAC C  
C      1  0.4488260000000  0.4999230000000  0.4510630000000 1.0
C      1  0.4983840000000  0.4481930000000  0.4481620000000 1.0
C      1  0.4492500000000  0.4532760000000  0.4941100000000 1.0
C      1  0.4498710000000  0.5006380000000  0.5515430000000 1.0
C      1  0.5455910000000  0.4925830000000  0.5500580000000 1.0
C      1  0.5513390000000  0.4999760000000  0.4515700000000 1.0
C      1  0.5019620000000  0.5512880000000  0.5508460000000 1.0
C      1  0.5000830000000  0.4496940000000  0.5496830000000 1.0
C      1  0.5032610000000  0.5517590000000  0.4454280000000 1.0
C      1  0.4517880000000  0.5479590000000  0.5009820000000 1.0
C      1  0.5499490000000  0.4501210000000  0.4993010000000 1.0
C      1  0.5522350000000  0.5486450000000  0.4936590000000 1.0
C      1  0.4476670000000  0.5213290000000  0.5041470000000 1.0
C      1  0.5231030000000  0.5010280000000  0.4526690000000 1.0
C      1  0.5045530000000  0.4368880000000  0.5252750000000 1.0
C      1  0.4499860000000  0.4796530000000  0.4992720000000 1.0
C      1  0.5456730000000  0.5222450000000  0.4995530000000 1.0
C      1  0.5473790000000  0.4770740000000  0.5017860000000 1.0
C      1  0.5212990000000  0.5000530000000  0.5486300000000 1.0
C      1  0.4762080000000  0.5056630000000  0.5533030000000 1.0
C      1  0.4767830000000  0.4956950000000  0.4535110000000 1.0
C      1  0.5064090000000  0.5635200000000  0.4702410000000 1.0
C      1  0.4994160000000  0.4525490000000  0.4760240000000 1.0
C      1  0.5019930000000  0.5487790000000  0.5225250000000 1.0
C      1  0.4853550000000  0.4830810000000  0.5680400000000 1.0
C      1  0.4814000000000  0.5672150000000  0.4809840000000 1.0
C      1  0.5689790000000  0.4850360000000  0.4843080000000 1.0
C      1  0.4827000000000  0.5179930000000  0.4364290000000 1.0
C      1  0.5185470000000  0.4800390000000  0.4330020000000 1.0
C      1  0.5157290000000  0.5183750000000  0.5710690000000 1.0
C      1  0.4791520000000  0.4333470000000  0.5148560000000 1.0
C      1  0.5234710000000  0.5682160000000  0.5155450000000 1.0
C      1  0.5206630000000  0.4337900000000  0.4794310000000 1.0
C      1  0.5621220000000  0.5175490000000  0.5237030000000 1.0
C      1  0.4324260000000  0.4820770000000  0.5219140000000 1.0
C      1  0.4292000000000  0.5145420000000  0.4829400000000 1.0
C      1  0.5505700000000  0.5592790000000  0.5220760000000 1.0
C      1  0.5522120000000  0.5384480000000  0.5421890000000 1.0
C      1  0.5285510000000  0.5418460000000  0.5598200000000 1.0
C      1  0.5457500000000  0.4463630000000  0.4664110000000 1.0
C      1  0.4562090000000  0.5537760000000  0.4714690000000 1.0
C      1  0.4532540000000  0.4440350000000  0.5229400000000 1.0
C      1  0.5594510000000  0.4726960000000  0.4596440000000 1.0
C      1  0.4417230000000  0.5267650000000  0.4600360000000 1.0
C      1  0.4465930000000  0.4656330000000  0.5435430000000 1.0
C      1  0.5267750000000  0.4534420000000  0.4421950000000 1.0
C      1  0.4749910000000  0.5446270000000  0.4439430000000 1.0
C      1  0.4728980000000  0.4593800000000  0.5565420000000 1.0
C      1  0.4363260000000  0.4864260000000  0.4748500000000 1.0
C      1  0.4907250000000  0.4737920000000  0.4374850000000 1.0
C      1  0.4747720000000  0.4402920000000  0.4875390000000 1.0
C      1  0.4363390000000  0.5102060000000  0.5288570000000 1.0
C      1  0.5594970000000  0.4887380000000  0.5266960000000 1.0
C      1  0.5612530000000  0.5126260000000  0.4765830000000 1.0
C      1  0.4890690000000  0.5290390000000  0.5648270000000 1.0
C      1  0.5121330000000  0.4742740000000  0.5602080000000 1.0
C      1  0.5106950000000  0.5244560000000  0.4386470000000 1.0
C      1  0.4767400000000  0.5595980000000  0.5074700000000 1.0
C      1  0.5274030000000  0.4345830000000  0.5076850000000 1.0
C      1  0.5292810000000  0.5664750000000  0.4870150000000 1.0
C      1  0.5156000000000  0.4838000000000  0.4835970000000 1.0
C      1  0.4816900000000  0.4974470000000  0.5143160000000 1.0
C      1  0.4795390000000  0.5050270000000  0.4867530000000 1.0
C      1  0.5131550000000  0.5162340000000  0.5179560000000 1.0
END
