TITL C-2441158-471-1166 0.00766211709101217 125000 -15296.6939330728 0 0 104 (C1) n - 1
REM
REM in /home/bkarasulu/work/CARBON/AIRSS/Generating-Clusters/ReaxFF-fromJPCA2015/Units_Real/with-SteepDescent/Higher-Symm
REM
REM
REM
REM
REM
REM ./C.cell (1df0a924f5614ab8850e4351716899ee)
REM
REM compiler GCC version 9.2.1 20190827 (Red Hat 9.2.1-1)
REM options -cpp -mtune=generic -march=x86-64 -g -O0 -fpre-include=/usr/include/finclude/math-vector-fortran.h
REM seed -110209434 1991477774 1265231959 56369177 2011168432 -404398231 1125074529 1588103679 1161270570 -1326295477 -1998079036 1760525283 1139848607 1301829540 -1692129524 -629546177 2139181098 486623623 1173311761 -1318863738 -1203255097 -1104716481 221268212 594500075 -1745887352 1498450281 -2041261349 493361751 -1913569221 1348854500 -1784031096 -756907962 2082538471
REM
CELL 1.54180   50.00000   50.00000   50.00000   90.00000   90.00000   90.00000
LATT -1
SFAC C  
C      1  0.4227130000000  0.4474080000000  0.4754490000000 1.0
C      1  0.4969080000000  0.4509730000000  0.4192190000000 1.0
C      1  0.5782250000000  0.4500310000000  0.4719830000000 1.0
C      1  0.5478160000000  0.4475010000000  0.5638300000000 1.0
C      1  0.4557520000000  0.4527400000000  0.5671480000000 1.0
C      1  0.5256760000000  0.5621250000000  0.4462760000000 1.0
C      1  0.5595030000000  0.5639970000000  0.5104230000000 1.0
C      1  0.5035850000000  0.5611520000000  0.5625020000000 1.0
C      1  0.4497150000000  0.5681440000000  0.5192620000000 1.0
C      1  0.4605110000000  0.5617680000000  0.4548340000000 1.0
C      1  0.4129180000000  0.4668810000000  0.4962190000000 1.0
C      1  0.4747100000000  0.4718130000000  0.4169960000000 1.0
C      1  0.5718700000000  0.4690120000000  0.4505480000000 1.0
C      1  0.5685840000000  0.4678920000000  0.5564540000000 1.0
C      1  0.4723010000000  0.4723990000000  0.5814010000000 1.0
C      1  0.5098000000000  0.5173570000000  0.5350770000000 1.0
C      1  0.4403840000000  0.5191200000000  0.5107290000000 1.0
C      1  0.4694840000000  0.5156140000000  0.4547840000000 1.0
C      1  0.5400610000000  0.5173650000000  0.4567590000000 1.0
C      1  0.5610310000000  0.5228800000000  0.5298210000000 1.0
C      1  0.5214360000000  0.4403640000000  0.4695620000000 1.0
C      1  0.5351940000000  0.4294700000000  0.5170490000000 1.0
C      1  0.4933440000000  0.4292970000000  0.5405040000000 1.0
C      1  0.4540480000000  0.4357410000000  0.5123340000000 1.0
C      1  0.4771530000000  0.4390250000000  0.4656080000000 1.0
C      1  0.5256730000000  0.5264770000000  0.4870360000000 1.0
C      1  0.5332250000000  0.5279820000000  0.5177580000000 1.0
C      1  0.4846840000000  0.5313780000000  0.5320290000000 1.0
C      1  0.4728550000000  0.5263880000000  0.5073240000000 1.0
C      1  0.4899130000000  0.5311420000000  0.4649670000000 1.0
C      1  0.4256710000000  0.5239950000000  0.5325740000000 1.0
C      1  0.4533280000000  0.5368250000000  0.4368150000000 1.0
C      1  0.5364260000000  0.5377850000000  0.4352360000000 1.0
C      1  0.5784260000000  0.5420960000000  0.5171190000000 1.0
C      1  0.4990390000000  0.5391970000000  0.5816630000000 1.0
C      1  0.5240280000000  0.4565870000000  0.5764690000000 1.0
C      1  0.4318810000000  0.4608960000000  0.5497200000000 1.0
C      1  0.4345160000000  0.4559160000000  0.4508430000000 1.0
C      1  0.5244980000000  0.4573570000000  0.4238470000000 1.0
C      1  0.5791980000000  0.4615340000000  0.5025250000000 1.0
C      1  0.4635600000000  0.5012480000000  0.5834180000000 1.0
C      1  0.4141820000000  0.4929930000000  0.4825640000000 1.0
C      1  0.4839970000000  0.4996560000000  0.4145740000000 1.0
C      1  0.5815180000000  0.4952250000000  0.4588000000000 1.0
C      1  0.5586330000000  0.4940020000000  0.5668800000000 1.0
C      1  0.4711830000000  0.5297860000000  0.5817820000000 1.0
C      1  0.4163610000000  0.5205650000000  0.4933420000000 1.0
C      1  0.4728780000000  0.5266940000000  0.4150980000000 1.0
C      1  0.5692670000000  0.5212030000000  0.4526740000000 1.0
C      1  0.5640720000000  0.5216120000000  0.5586360000000 1.0
C      1  0.4290630000000  0.5238310000000  0.4500390000000 1.0
C      1  0.5178470000000  0.5287990000000  0.4167590000000 1.0
C      1  0.5884050000000  0.5287100000000  0.4929640000000 1.0
C      1  0.5242450000000  0.5242760000000  0.5815380000000 1.0
C      1  0.4293100000000  0.5287010000000  0.5603100000000 1.0
C      1  0.5303890000000  0.4794660000000  0.4972910000000 1.0
C      1  0.5121230000000  0.4766660000000  0.5196450000000 1.0
C      1  0.4602450000000  0.4690280000000  0.5190100000000 1.0
C      1  0.4849650000000  0.4710950000000  0.4762460000000 1.0
C      1  0.5157990000000  0.4713980000000  0.4722650000000 1.0
C      1  0.4429480000000  0.5024020000000  0.5638430000000 1.0
C      1  0.4323580000000  0.4962340000000  0.4598310000000 1.0
C      1  0.5115770000000  0.5023820000000  0.4222050000000 1.0
C      1  0.5815130000000  0.5007010000000  0.4876580000000 1.0
C      1  0.5296160000000  0.4966300000000  0.5707260000000 1.0
C      1  0.5370960000000  0.4229020000000  0.4883430000000 1.0
C      1  0.5183650000000  0.4182470000000  0.5359160000000 1.0
C      1  0.4689130000000  0.4206000000000  0.5318500000000 1.0
C      1  0.4620750000000  0.4237340000000  0.4850670000000 1.0
C      1  0.5015420000000  0.4249410000000  0.4593570000000 1.0
C      1  0.4187560000000  0.4597550000000  0.5238740000000 1.0
C      1  0.4514220000000  0.4643330000000  0.4315930000000 1.0
C      1  0.5465270000000  0.4708420000000  0.4340220000000 1.0
C      1  0.5772460000000  0.4616560000000  0.5300840000000 1.0
C      1  0.4995310000000  0.4646450000000  0.5801490000000 1.0
C      1  0.4366270000000  0.4285470000000  0.4902920000000 1.0
C      1  0.4872710000000  0.4308680000000  0.4377510000000 1.0
C      1  0.5595140000000  0.4299070000000  0.4733930000000 1.0
C      1  0.5440290000000  0.4265960000000  0.5436390000000 1.0
C      1  0.4708440000000  0.4295610000000  0.5587190000000 1.0
C      1  0.4979140000000  0.5654770000000  0.4381270000000 1.0
C      1  0.5597920000000  0.5629760000000  0.4817460000000 1.0
C      1  0.5302080000000  0.5608300000000  0.5511630000000 1.0
C      1  0.4551230000000  0.5672920000000  0.5471390000000 1.0
C      1  0.4430890000000  0.5617610000000  0.4781220000000 1.0
C      1  0.5270560000000  0.4919490000000  0.4461150000000 1.0
C      1  0.5598790000000  0.4843460000000  0.5009230000000 1.0
C      1  0.5129780000000  0.4907610000000  0.5459340000000 1.0
C      1  0.4469160000000  0.4848970000000  0.5391780000000 1.0
C      1  0.4625300000000  0.4896410000000  0.4622120000000 1.0
C      1  0.4616770000000  0.5547980000000  0.4998180000000 1.0
C      1  0.4870990000000  0.5600900000000  0.4633490000000 1.0
C      1  0.5304470000000  0.5586220000000  0.4755070000000 1.0
C      1  0.5320420000000  0.5607190000000  0.5212840000000 1.0
C      1  0.4832780000000  0.5590580000000  0.5411960000000 1.0
C      1  0.5779730000000  0.5432490000000  0.4701240000000 1.0
C      1  0.5440190000000  0.5412300000000  0.5685460000000 1.0
C      1  0.4509340000000  0.5464740000000  0.5685140000000 1.0
C      1  0.4226220000000  0.5405330000000  0.4721860000000 1.0
C      1  0.4945290000000  0.5448120000000  0.4163210000000 1.0
C      1  0.4852810000000  0.4745510000000  0.5060090000000 1.0
C      1  0.5085460000000  0.5706230000000  0.4952900000000 1.0
C      1  0.4979780000000  0.5192670000000  0.4897010000000 1.0
C      1  0.4994490000000  0.5935830000000  0.4974240000000 1.0
END
