TITL C-2441161-5029-1018 0.0929150486865757 125000 -25465.4065448177 0 0 182 (C1) n - 1
REM
REM in /home/bkarasulu/work/CARBON/AIRSS/Generating-Clusters/ReaxFF-fromJPCA2015/Units_Real/with-SteepDescent/Higher-Symm
REM
REM
REM
REM
REM
REM ./C.cell (1df0a924f5614ab8850e4351716899ee)
REM
REM compiler GCC version 9.2.1 20190827 (Red Hat 9.2.1-1)
REM options -cpp -mtune=generic -march=x86-64 -g -O0 -fpre-include=/usr/include/finclude/math-vector-fortran.h
REM seed 1231366063 -2078181062 658175218 -750323211 1097322457 -1032073027 728456348 490625665 -912970589 -106425021 281391225 -1064948907 1202885131 1889732936 1898910018 1860271273 -1979268782 -514691383 641711795 919535771 -99399163 -1066085749 572824688 1880789726 -188776877 -691741725 -152016365 -1170617985 241993050 -1341529817 759266594 128892349 -102822891
REM
CELL 1.54180   50.00000   50.00000   50.00000   90.00000   90.00000   90.00000
LATT -1
SFAC C  
C      1  0.3966330000000  0.4783980000000  0.5219860000000 1.0
C      1  0.6006090000000  0.4660240000000  0.4939790000000 1.0
C      1  0.3967320000000  0.4887020000000  0.4665570000000 1.0
C      1  0.5957470000000  0.5218720000000  0.4766840000000 1.0
C      1  0.4051160000000  0.5310410000000  0.5091460000000 1.0
C      1  0.6039970000000  0.5104310000000  0.5296000000000 1.0
C      1  0.4237640000000  0.4952740000000  0.4263670000000 1.0
C      1  0.5733760000000  0.5611280000000  0.4613970000000 1.0
C      1  0.4251660000000  0.5652830000000  0.5338700000000 1.0
C      1  0.5737810000000  0.5037180000000  0.5685630000000 1.0
C      1  0.4256640000000  0.4412650000000  0.5385130000000 1.0
C      1  0.5753540000000  0.4355750000000  0.4678950000000 1.0
C      1  0.4505120000000  0.5467730000000  0.4162140000000 1.0
C      1  0.5512000000000  0.5971600000000  0.4985140000000 1.0
C      1  0.4482950000000  0.5500050000000  0.5829480000000 1.0
C      1  0.5504370000000  0.4528130000000  0.5844060000000 1.0
C      1  0.4488670000000  0.4036230000000  0.5015810000000 1.0
C      1  0.5512200000000  0.4519870000000  0.4171230000000 1.0
C      1  0.5542960000000  0.5046550000000  0.5914540000000 1.0
C      1  0.4462480000000  0.4219130000000  0.5509520000000 1.0
C      1  0.5543450000000  0.4177540000000  0.4576940000000 1.0
C      1  0.4443550000000  0.4956890000000  0.4058530000000 1.0
C      1  0.5530000000000  0.5801540000000  0.4486300000000 1.0
C      1  0.4460460000000  0.5849940000000  0.5434420000000 1.0
C      1  0.4641240000000  0.4514250000000  0.5113290000000 1.0
C      1  0.5377950000000  0.4664200000000  0.4637020000000 1.0
C      1  0.4553170000000  0.5128260000000  0.4549660000000 1.0
C      1  0.5348120000000  0.5475780000000  0.4889870000000 1.0
C      1  0.4589420000000  0.5344930000000  0.5352280000000 1.0
C      1  0.5338740000000  0.4863540000000  0.5485640000000 1.0
C      1  0.5024650000000  0.5488730000000  0.4014210000000 1.0
C      1  0.5006000000000  0.6071620000000  0.4971090000000 1.0
C      1  0.4997160000000  0.5570790000000  0.5910610000000 1.0
C      1  0.5014720000000  0.4490010000000  0.5948080000000 1.0
C      1  0.4991940000000  0.3932940000000  0.5024690000000 1.0
C      1  0.5023870000000  0.4429060000000  0.4090070000000 1.0
C      1  0.5028430000000  0.5214260000000  0.3914880000000 1.0
C      1  0.4953620000000  0.6040630000000  0.4573470000000 1.0
C      1  0.5037260000000  0.5897900000000  0.5711530000000 1.0
C      1  0.4959430000000  0.4853890000000  0.6132940000000 1.0
C      1  0.5036550000000  0.3957280000000  0.5425710000000 1.0
C      1  0.4974530000000  0.4126980000000  0.4284700000000 1.0
C      1  0.5225270000000  0.6054520000000  0.5387810000000 1.0
C      1  0.4790000000000  0.5220050000000  0.6115730000000 1.0
C      1  0.5231110000000  0.4154990000000  0.5719000000000 1.0
C      1  0.4786350000000  0.3961660000000  0.4606090000000 1.0
C      1  0.5194560000000  0.4825920000000  0.3910410000000 1.0
C      1  0.4781170000000  0.5838880000000  0.4270890000000 1.0
C      1  0.5714460000000  0.4710890000000  0.4266460000000 1.0
C      1  0.4306150000000  0.5497820000000  0.4373820000000 1.0
C      1  0.5710010000000  0.5769070000000  0.5103150000000 1.0
C      1  0.4285660000000  0.5297800000000  0.5726200000000 1.0
C      1  0.5699280000000  0.4519200000000  0.5618950000000 1.0
C      1  0.4289100000000  0.4237320000000  0.4901790000000 1.0
C      1  0.5445210000000  0.5957320000000  0.4707780000000 1.0
C      1  0.4552840000000  0.5719610000000  0.5667640000000 1.0
C      1  0.5450180000000  0.4781570000000  0.5961020000000 1.0
C      1  0.4546910000000  0.4058480000000  0.5291940000000 1.0
C      1  0.5451260000000  0.4301100000000  0.4337720000000 1.0
C      1  0.4565150000000  0.5209870000000  0.4075550000000 1.0
C      1  0.5747510000000  0.5041020000000  0.4738420000000 1.0
C      1  0.4271210000000  0.5237250000000  0.4909720000000 1.0
C      1  0.5683390000000  0.5244350000000  0.5150420000000 1.0
C      1  0.4328580000000  0.4950620000000  0.5275910000000 1.0
C      1  0.5706680000000  0.4790260000000  0.5197870000000 1.0
C      1  0.4303720000000  0.4752460000000  0.4851980000000 1.0
C      1  0.4722970000000  0.4476500000000  0.5856520000000 1.0
C      1  0.5277940000000  0.4000120000000  0.4970100000000 1.0
C      1  0.4756970000000  0.4585010000000  0.4167750000000 1.0
C      1  0.5295510000000  0.5531690000000  0.4125830000000 1.0
C      1  0.4721970000000  0.6006850000000  0.5033410000000 1.0
C      1  0.5288180000000  0.5484300000000  0.5882510000000 1.0
C      1  0.4712880000000  0.4221880000000  0.4441780000000 1.0
C      1  0.5309300000000  0.5088430000000  0.4042780000000 1.0
C      1  0.4706460000000  0.5886560000000  0.4586260000000 1.0
C      1  0.5293590000000  0.5816250000000  0.5571940000000 1.0
C      1  0.4707580000000  0.4916110000000  0.5955340000000 1.0
C      1  0.5285740000000  0.4116750000000  0.5423130000000 1.0
C      1  0.5156580000000  0.4341180000000  0.4334840000000 1.0
C      1  0.4826850000000  0.5160710000000  0.4125780000000 1.0
C      1  0.5129180000000  0.5944680000000  0.4755030000000 1.0
C      1  0.4873170000000  0.5670840000000  0.5669390000000 1.0
C      1  0.5140650000000  0.4745690000000  0.5955550000000 1.0
C      1  0.4869050000000  0.4064430000000  0.5238420000000 1.0
C      1  0.4295520000000  0.5648480000000  0.4603640000000 1.0
C      1  0.5717570000000  0.5655860000000  0.5361100000000 1.0
C      1  0.4282900000000  0.5016320000000  0.5751250000000 1.0
C      1  0.5707960000000  0.4354050000000  0.5398540000000 1.0
C      1  0.4282140000000  0.4343260000000  0.4639720000000 1.0
C      1  0.5725350000000  0.4988270000000  0.4244950000000 1.0
C      1  0.5959590000000  0.5274820000000  0.5068690000000 1.0
C      1  0.4054970000000  0.5058670000000  0.5274460000000 1.0
C      1  0.5995540000000  0.4817620000000  0.5189530000000 1.0
C      1  0.4022670000000  0.4738230000000  0.4918290000000 1.0
C      1  0.5906200000000  0.4814520000000  0.4708700000000 1.0
C      1  0.4080860000000  0.5156440000000  0.4700890000000 1.0
C      1  0.5748320000000  0.5259910000000  0.4274540000000 1.0
C      1  0.4273930000000  0.5758230000000  0.4852900000000 1.0
C      1  0.5738600000000  0.5501560000000  0.5577320000000 1.0
C      1  0.4260850000000  0.4753170000000  0.5717480000000 1.0
C      1  0.5727460000000  0.4235280000000  0.5156180000000 1.0
C      1  0.4259190000000  0.4489200000000  0.4410700000000 1.0
C      1  0.4111740000000  0.4653690000000  0.5451410000000 1.0
C      1  0.5874750000000  0.4396040000000  0.4931780000000 1.0
C      1  0.4105260000000  0.4767060000000  0.4425020000000 1.0
C      1  0.5872380000000  0.5376220000000  0.4534100000000 1.0
C      1  0.4137440000000  0.5593490000000  0.5085070000000 1.0
C      1  0.5885820000000  0.5220210000000  0.5533380000000 1.0
C      1  0.4970610000000  0.4559410000000  0.5464790000000 1.0
C      1  0.5027980000000  0.4373520000000  0.4848420000000 1.0
C      1  0.4916670000000  0.4799500000000  0.4357190000000 1.0
C      1  0.5017350000000  0.5435290000000  0.4530090000000 1.0
C      1  0.4975860000000  0.5633410000000  0.5155820000000 1.0
C      1  0.5034300000000  0.5195050000000  0.5632050000000 1.0
C      1  0.5063090000000  0.4600080000000  0.4505760000000 1.0
C      1  0.4978470000000  0.5208850000000  0.4361870000000 1.0
C      1  0.5059000000000  0.5659340000000  0.4883060000000 1.0
C      1  0.4978310000000  0.5443350000000  0.5513110000000 1.0
C      1  0.5058640000000  0.4775230000000  0.5627500000000 1.0
C      1  0.4939850000000  0.4343720000000  0.5120270000000 1.0
C      1  0.5317230000000  0.5224720000000  0.5997860000000 1.0
C      1  0.4695470000000  0.4242210000000  0.5695160000000 1.0
C      1  0.5308870000000  0.4031660000000  0.4685020000000 1.0
C      1  0.4671610000000  0.4788720000000  0.3969310000000 1.0
C      1  0.5304290000000  0.5765440000000  0.4299090000000 1.0
C      1  0.4698950000000  0.5988200000000  0.5320180000000 1.0
C      1  0.5360780000000  0.4944680000000  0.4744750000000 1.0
C      1  0.4659450000000  0.5216620000000  0.4791070000000 1.0
C      1  0.5284340000000  0.5265060000000  0.5094210000000 1.0
C      1  0.4694730000000  0.5083910000000  0.5344690000000 1.0
C      1  0.5297670000000  0.4807130000000  0.5201180000000 1.0
C      1  0.4694660000000  0.4736970000000  0.4919370000000 1.0
C      1  0.5191550000000  0.5577890000000  0.5364610000000 1.0
C      1  0.4850150000000  0.4973120000000  0.5692130000000 1.0
C      1  0.5172730000000  0.4407630000000  0.5303440000000 1.0
C      1  0.4837640000000  0.4451020000000  0.4641300000000 1.0
C      1  0.5218010000000  0.5039590000000  0.4335710000000 1.0
C      1  0.4819170000000  0.5600680000000  0.4703240000000 1.0
C      1  0.4554850000000  0.4854120000000  0.5441670000000 1.0
C      1  0.5399460000000  0.4551560000000  0.5119190000000 1.0
C      1  0.4549080000000  0.4687480000000  0.4673770000000 1.0
C      1  0.5429280000000  0.5139760000000  0.4530840000000 1.0
C      1  0.4591850000000  0.5476170000000  0.4897980000000 1.0
C      1  0.5427020000000  0.5314930000000  0.5341530000000 1.0
C      1  0.5062290000000  0.5130970000000  0.6133800000000 1.0
C      1  0.4952380000000  0.4086730000000  0.5670920000000 1.0
C      1  0.5063150000000  0.3990670000000  0.4522450000000 1.0
C      1  0.4919650000000  0.4891170000000  0.3851570000000 1.0
C      1  0.5050460000000  0.5917530000000  0.4328460000000 1.0
C      1  0.4949370000000  0.6032580000000  0.5473860000000 1.0
C      1  0.5287820000000  0.5384750000000  0.4609390000000 1.0
C      1  0.4709700000000  0.5524490000000  0.5155610000000 1.0
C      1  0.5295970000000  0.5143870000000  0.5536050000000 1.0
C      1  0.4707910000000  0.4613440000000  0.5383080000000 1.0
C      1  0.5301880000000  0.4483770000000  0.4852250000000 1.0
C      1  0.4672590000000  0.4877160000000  0.4489750000000 1.0
C      1  0.5466980000000  0.4088310000000  0.5178850000000 1.0
C      1  0.4523630000000  0.4409140000000  0.4308260000000 1.0
C      1  0.5499930000000  0.5315150000000  0.4114400000000 1.0
C      1  0.4525920000000  0.5917310000000  0.4829250000000 1.0
C      1  0.5486400000000  0.5611740000000  0.5704560000000 1.0
C      1  0.4520670000000  0.4693170000000  0.5869380000000 1.0
C      1  0.4276590000000  0.5192260000000  0.4468470000000 1.0
C      1  0.5643280000000  0.5578950000000  0.4890960000000 1.0
C      1  0.4325180000000  0.5390420000000  0.5448740000000 1.0
C      1  0.5661100000000  0.4802190000000  0.5498610000000 1.0
C      1  0.4349970000000  0.4433550000000  0.5111010000000 1.0
C      1  0.5716790000000  0.4634390000000  0.4566840000000 1.0
C      1  0.4925510000000  0.5039920000000  0.5251180000000 1.0
C      1  0.5033300000000  0.4820820000000  0.5153360000000 1.0
C      1  0.4955130000000  0.4775450000000  0.4904700000000 1.0
C      1  0.5069410000000  0.4979000000000  0.4747870000000 1.0
C      1  0.4927630000000  0.5196180000000  0.4851890000000 1.0
C      1  0.5017900000000  0.5233160000000  0.5103960000000 1.0
C      1  0.5259940000000  0.4378410000000  0.5858950000000 1.0
C      1  0.4739180000000  0.3942780000000  0.4885260000000 1.0
C      1  0.5263050000000  0.4573460000000  0.4027790000000 1.0
C      1  0.4766880000000  0.5597850000000  0.4120390000000 1.0
C      1  0.5256280000000  0.6060000000000  0.5111150000000 1.0
C      1  0.4740590000000  0.5461330000000  0.5978780000000 1.0
C      1  0.5618930000000  0.4999890000000  0.4998790000000 1.0
C      1  0.4395890000000  0.4980300000000  0.5001190000000 1.0
END
