TITL C-2441167-4473-1326 0.0224323529508608 125000 -14053.8841112344 0 0 97 (C1) n - 1
REM
REM in /home/bkarasulu/work/CARBON/AIRSS/Generating-Clusters/ReaxFF-fromJPCA2015/Units_Real/with-SteepDescent/Higher-Symm
REM
REM
REM
REM
REM
REM ./C.cell (1df0a924f5614ab8850e4351716899ee)
REM
REM compiler GCC version 9.2.1 20190827 (Red Hat 9.2.1-1)
REM options -cpp -mtune=generic -march=x86-64 -g -O0 -fpre-include=/usr/include/finclude/math-vector-fortran.h
REM seed 341303060 900547190 1067061191 261034357 -424050025 -37716567 -960558539 460421156 762774823 2025055417 -1895040428 705563493 251160639 -2132641958 1822079954 -1995917191 -1714240989 1661121271 -2053137816 420409082 -1561723809 -228416709 1306860286 58998446 2119191139 -688466297 -1658907862 1164123967 327146555 -109176530 -792163083 622781643 2037285099
REM
CELL 1.54180   50.00000   50.00000   50.00000   90.00000   90.00000   90.00000
LATT -1
SFAC C  
C      1  0.5131100000000  0.4660200000000  0.4801960000000 1.0
C      1  0.5166530000000  0.5508140000000  0.5084680000000 1.0
C      1  0.4849560000000  0.4614860000000  0.4819200000000 1.0
C      1  0.4899310000000  0.5421670000000  0.5147600000000 1.0
C      1  0.5151430000000  0.4639750000000  0.5094120000000 1.0
C      1  0.5139660000000  0.5369870000000  0.4825660000000 1.0
C      1  0.4867040000000  0.4574210000000  0.5105150000000 1.0
C      1  0.4852680000000  0.5359120000000  0.4872370000000 1.0
C      1  0.5298660000000  0.5382780000000  0.4292160000000 1.0
C      1  0.5302370000000  0.4611770000000  0.5738870000000 1.0
C      1  0.4698210000000  0.5366650000000  0.4287720000000 1.0
C      1  0.4703760000000  0.4642550000000  0.5718620000000 1.0
C      1  0.5316280000000  0.5393630000000  0.5732470000000 1.0
C      1  0.5312370000000  0.4625170000000  0.4292440000000 1.0
C      1  0.4707430000000  0.5384410000000  0.5694030000000 1.0
C      1  0.4688850000000  0.4631970000000  0.4279820000000 1.0
C      1  0.5513990000000  0.5064580000000  0.4887520000000 1.0
C      1  0.5585630000000  0.4752590000000  0.5245230000000 1.0
C      1  0.4392780000000  0.5122310000000  0.4877520000000 1.0
C      1  0.4389530000000  0.4722540000000  0.5136130000000 1.0
C      1  0.5514130000000  0.5204390000000  0.5182780000000 1.0
C      1  0.5660240000000  0.4801220000000  0.4797920000000 1.0
C      1  0.4286160000000  0.5245040000000  0.5121700000000 1.0
C      1  0.4414260000000  0.4840850000000  0.4856790000000 1.0
C      1  0.4875730000000  0.5613980000000  0.5589180000000 1.0
C      1  0.4858120000000  0.4405330000000  0.4401240000000 1.0
C      1  0.5161810000000  0.5622310000000  0.5610590000000 1.0
C      1  0.5145720000000  0.4402430000000  0.4404460000000 1.0
C      1  0.4849370000000  0.5595420000000  0.4420130000000 1.0
C      1  0.4852190000000  0.4415400000000  0.5586400000000 1.0
C      1  0.5137620000000  0.5611040000000  0.4411600000000 1.0
C      1  0.5136790000000  0.4406090000000  0.5586450000000 1.0
C      1  0.4409680000000  0.4270530000000  0.5355340000000 1.0
C      1  0.4390190000000  0.5743610000000  0.4570620000000 1.0
C      1  0.5569290000000  0.4248250000000  0.5337600000000 1.0
C      1  0.5585170000000  0.5719360000000  0.4632790000000 1.0
C      1  0.4439490000000  0.4278040000000  0.4662860000000 1.0
C      1  0.4441530000000  0.5661700000000  0.5350390000000 1.0
C      1  0.5571000000000  0.4298140000000  0.4670920000000 1.0
C      1  0.5579130000000  0.5699340000000  0.5331880000000 1.0
C      1  0.4479530000000  0.5304910000000  0.5553870000000 1.0
C      1  0.4466920000000  0.4736010000000  0.4413700000000 1.0
C      1  0.5541370000000  0.5302260000000  0.5605160000000 1.0
C      1  0.5541420000000  0.4741240000000  0.4400800000000 1.0
C      1  0.4487200000000  0.5275530000000  0.4436150000000 1.0
C      1  0.4484240000000  0.4750170000000  0.5586440000000 1.0
C      1  0.5497420000000  0.5291220000000  0.4463530000000 1.0
C      1  0.5545990000000  0.4728290000000  0.5651220000000 1.0
C      1  0.4339080000000  0.4337300000000  0.4860130000000 1.0
C      1  0.4332650000000  0.5521740000000  0.5094460000000 1.0
C      1  0.5647730000000  0.4512340000000  0.4866110000000 1.0
C      1  0.5629260000000  0.5470800000000  0.5123150000000 1.0
C      1  0.4294430000000  0.4420760000000  0.5127120000000 1.0
C      1  0.4361040000000  0.5622370000000  0.4829270000000 1.0
C      1  0.5653700000000  0.4474420000000  0.5161450000000 1.0
C      1  0.5646500000000  0.5541200000000  0.4848600000000 1.0
C      1  0.4704400000000  0.5744020000000  0.4618300000000 1.0
C      1  0.4706950000000  0.4247120000000  0.5388130000000 1.0
C      1  0.5278240000000  0.5778130000000  0.4598140000000 1.0
C      1  0.5274300000000  0.4233740000000  0.5389330000000 1.0
C      1  0.4724620000000  0.5751450000000  0.5373010000000 1.0
C      1  0.4715890000000  0.4237730000000  0.4593080000000 1.0
C      1  0.5315660000000  0.5774240000000  0.5410320000000 1.0
C      1  0.5285860000000  0.4239860000000  0.4611850000000 1.0
C      1  0.5699350000000  0.5168320000000  0.5418160000000 1.0
C      1  0.5729070000000  0.4896200000000  0.4532880000000 1.0
C      1  0.4293850000000  0.5155260000000  0.5403460000000 1.0
C      1  0.4291990000000  0.4864080000000  0.4588280000000 1.0
C      1  0.5677860000000  0.5194400000000  0.4634750000000 1.0
C      1  0.5721810000000  0.4866160000000  0.5483960000000 1.0
C      1  0.4298360000000  0.5174330000000  0.4585880000000 1.0
C      1  0.4304690000000  0.4855090000000  0.5419120000000 1.0
C      1  0.5156000000000  0.5807380000000  0.5126160000000 1.0
C      1  0.5134490000000  0.4125640000000  0.4844090000000 1.0
C      1  0.4860880000000  0.5871250000000  0.5137190000000 1.0
C      1  0.4850180000000  0.4130960000000  0.4838260000000 1.0
C      1  0.5135590000000  0.5895890000000  0.4818960000000 1.0
C      1  0.5128740000000  0.4124960000000  0.5152090000000 1.0
C      1  0.4848900000000  0.5877170000000  0.4842760000000 1.0
C      1  0.4843830000000  0.4131940000000  0.5148010000000 1.0
C      1  0.4723530000000  0.5112370000000  0.4879610000000 1.0
C      1  0.4680140000000  0.4757940000000  0.5214920000000 1.0
C      1  0.5245900000000  0.5108040000000  0.4774710000000 1.0
C      1  0.5297320000000  0.4818390000000  0.5269380000000 1.0
C      1  0.4958210000000  0.5178190000000  0.5287110000000 1.0
C      1  0.4794010000000  0.4878740000000  0.4708030000000 1.0
C      1  0.5226690000000  0.5088460000000  0.5359940000000 1.0
C      1  0.5086610000000  0.4909390000000  0.4642130000000 1.0
C      1  0.5131610000000  0.4875180000000  0.4302040000000 1.0
C      1  0.5161040000000  0.5127620000000  0.5697680000000 1.0
C      1  0.4855950000000  0.4856850000000  0.4177230000000 1.0
C      1  0.4874350000000  0.5151460000000  0.5787440000000 1.0
C      1  0.5157090000000  0.4848150000000  0.5840460000000 1.0
C      1  0.5145120000000  0.5157330000000  0.4175390000000 1.0
C      1  0.4867110000000  0.4864240000000  0.5840460000000 1.0
C      1  0.4857100000000  0.5149560000000  0.4149980000000 1.0
C      1  0.4780820000000  0.5011000000000  0.5150550000000 1.0
END
