TITL C-2441165-58-462 0.0410789264077485 125000 -18409.3621438635 0 0 130 (C1) n - 1
REM
REM in /home/bkarasulu/work/CARBON/AIRSS/Generating-Clusters/ReaxFF-fromJPCA2015/Units_Real/with-SteepDescent/Higher-Symm
REM
REM
REM
REM
REM
REM ./C.cell (1df0a924f5614ab8850e4351716899ee)
REM
REM compiler GCC version 9.2.1 20190827 (Red Hat 9.2.1-1)
REM options -cpp -mtune=generic -march=x86-64 -g -O0 -fpre-include=/usr/include/finclude/math-vector-fortran.h
REM seed 1138303151 -760729323 -1325132105 -1918675797 1603156685 -542089864 1901585360 -922041253 -60550358 1149535619 -1052961114 -1854107179 -732260908 -1018558269 -1976311446 1578831284 -1754672586 -2040530545 -1494581014 1733735669 1820191248 817927973 1619236279 -1073410200 376202661 366000643 779009132 1844995220 1134893722 1945620800 -1284134120 1576659435 -293330807
REM
CELL 1.54180   50.00000   50.00000   50.00000   90.00000   90.00000   90.00000
LATT -1
SFAC C  
C      1  0.5888420000000  0.5376650000000  0.4875940000000 1.0
C      1  0.4845970000000  0.4057080000000  0.5125860000000 1.0
C      1  0.5145260000000  0.5598140000000  0.5700190000000 1.0
C      1  0.5712780000000  0.5530520000000  0.4701070000000 1.0
C      1  0.5592680000000  0.5496830000000  0.5529740000000 1.0
C      1  0.5675340000000  0.5616790000000  0.5279110000000 1.0
C      1  0.4695420000000  0.4487860000000  0.5694910000000 1.0
C      1  0.5365650000000  0.4124440000000  0.5027290000000 1.0
C      1  0.4962780000000  0.5307950000000  0.4222000000000 1.0
C      1  0.5494620000000  0.5776740000000  0.5081270000000 1.0
C      1  0.4615130000000  0.5675290000000  0.5521820000000 1.0
C      1  0.5342420000000  0.5245760000000  0.4815790000000 1.0
C      1  0.5971630000000  0.5096680000000  0.4822020000000 1.0
C      1  0.4076890000000  0.4734570000000  0.4837190000000 1.0
C      1  0.4291130000000  0.4434780000000  0.4986500000000 1.0
C      1  0.5185170000000  0.4747210000000  0.5358280000000 1.0
C      1  0.4714830000000  0.5153380000000  0.5159490000000 1.0
C      1  0.4523730000000  0.4815540000000  0.4254930000000 1.0
C      1  0.5159600000000  0.4508570000000  0.5199770000000 1.0
C      1  0.4115400000000  0.5203480000000  0.5400030000000 1.0
C      1  0.4861460000000  0.5578080000000  0.5651850000000 1.0
C      1  0.4640790000000  0.4875850000000  0.5288150000000 1.0
C      1  0.5991410000000  0.4999170000000  0.5086450000000 1.0
C      1  0.4423570000000  0.4255040000000  0.5112850000000 1.0
C      1  0.5547700000000  0.4864210000000  0.4819100000000 1.0
C      1  0.4962920000000  0.4808400000000  0.4097160000000 1.0
C      1  0.5420070000000  0.5401340000000  0.4323590000000 1.0
C      1  0.4753970000000  0.5855630000000  0.4596870000000 1.0
C      1  0.4702310000000  0.5184320000000  0.5858420000000 1.0
C      1  0.4990780000000  0.4228220000000  0.5568240000000 1.0
C      1  0.4238170000000  0.5225800000000  0.4381710000000 1.0
C      1  0.5402990000000  0.5131740000000  0.4222380000000 1.0
C      1  0.4394770000000  0.5308900000000  0.4836160000000 1.0
C      1  0.5121430000000  0.4380050000000  0.5769060000000 1.0
C      1  0.5576120000000  0.4356350000000  0.5422040000000 1.0
C      1  0.4930480000000  0.4875850000000  0.5363740000000 1.0
C      1  0.4518750000000  0.5305190000000  0.4092170000000 1.0
C      1  0.5534640000000  0.4573290000000  0.5621240000000 1.0
C      1  0.5184220000000  0.5941300000000  0.5404540000000 1.0
C      1  0.4101570000000  0.4908620000000  0.4613240000000 1.0
C      1  0.4997990000000  0.4912620000000  0.4811400000000 1.0
C      1  0.4378580000000  0.5762630000000  0.5030020000000 1.0
C      1  0.4774170000000  0.5384540000000  0.4445130000000 1.0
C      1  0.5397960000000  0.5014590000000  0.5263280000000 1.0
C      1  0.5552210000000  0.4883060000000  0.4266020000000 1.0
C      1  0.4118980000000  0.4678000000000  0.5333450000000 1.0
C      1  0.4939090000000  0.5139140000000  0.4973080000000 1.0
C      1  0.4455820000000  0.4843330000000  0.5067150000000 1.0
C      1  0.5403960000000  0.5127650000000  0.5767060000000 1.0
C      1  0.5924640000000  0.4857500000000  0.4647010000000 1.0
C      1  0.4770590000000  0.5652950000000  0.5022460000000 1.0
C      1  0.5494450000000  0.4242450000000  0.4809310000000 1.0
C      1  0.5807170000000  0.4397140000000  0.5271090000000 1.0
C      1  0.5913450000000  0.5178450000000  0.5308540000000 1.0
C      1  0.5111010000000  0.3944600000000  0.4720510000000 1.0
C      1  0.5868620000000  0.5433670000000  0.5162110000000 1.0
C      1  0.4663730000000  0.4755580000000  0.5799140000000 1.0
C      1  0.4638290000000  0.4545310000000  0.4293220000000 1.0
C      1  0.5386330000000  0.4340980000000  0.5186130000000 1.0
C      1  0.4875040000000  0.4430060000000  0.5898670000000 1.0
C      1  0.5349660000000  0.4687410000000  0.4297430000000 1.0
C      1  0.5879970000000  0.4642650000000  0.5345920000000 1.0
C      1  0.5101010000000  0.3989100000000  0.5009340000000 1.0
C      1  0.4890980000000  0.5949670000000  0.4978600000000 1.0
C      1  0.5098720000000  0.5048060000000  0.4275980000000 1.0
C      1  0.4998810000000  0.5121450000000  0.5481920000000 1.0
C      1  0.4555100000000  0.4403610000000  0.4539630000000 1.0
C      1  0.5271030000000  0.5129700000000  0.5498160000000 1.0
C      1  0.4484770000000  0.5396510000000  0.4351420000000 1.0
C      1  0.4063420000000  0.5190640000000  0.4614810000000 1.0
C      1  0.5267660000000  0.5774730000000  0.4630150000000 1.0
C      1  0.4337660000000  0.4649040000000  0.4895560000000 1.0
C      1  0.5509430000000  0.5092670000000  0.4639720000000 1.0
C      1  0.4031670000000  0.5126000000000  0.5136010000000 1.0
C      1  0.4006360000000  0.4839920000000  0.5109750000000 1.0
C      1  0.5166270000000  0.4542820000000  0.4749900000000 1.0
C      1  0.4708480000000  0.4937900000000  0.4054340000000 1.0
C      1  0.4898820000000  0.5649590000000  0.4434110000000 1.0
C      1  0.5009920000000  0.5939290000000  0.4718140000000 1.0
C      1  0.4584850000000  0.5741510000000  0.5237910000000 1.0
C      1  0.5510230000000  0.5725520000000  0.4785090000000 1.0
C      1  0.5387870000000  0.5440600000000  0.5720310000000 1.0
C      1  0.4772680000000  0.5231800000000  0.4005830000000 1.0
C      1  0.4177670000000  0.5568830000000  0.5097910000000 1.0
C      1  0.5750100000000  0.4727310000000  0.4445810000000 1.0
C      1  0.5644590000000  0.4479430000000  0.4558520000000 1.0
C      1  0.4779250000000  0.4194600000000  0.5390620000000 1.0
C      1  0.5949520000000  0.4720050000000  0.5079920000000 1.0
C      1  0.4685560000000  0.4180600000000  0.4669010000000 1.0
C      1  0.4630510000000  0.4129030000000  0.4953840000000 1.0
C      1  0.4463140000000  0.4836180000000  0.5577370000000 1.0
C      1  0.5291860000000  0.4758400000000  0.4884180000000 1.0
C      1  0.5043640000000  0.6065540000000  0.5194540000000 1.0
C      1  0.4947860000000  0.4117130000000  0.4551740000000 1.0
C      1  0.4574130000000  0.4645170000000  0.4697210000000 1.0
C      1  0.5255660000000  0.4664320000000  0.5683770000000 1.0
C      1  0.4340050000000  0.4562550000000  0.5479830000000 1.0
C      1  0.5730840000000  0.4766200000000  0.5573650000000 1.0
C      1  0.5353830000000  0.4084920000000  0.4611280000000 1.0
C      1  0.4513610000000  0.5088040000000  0.4957700000000 1.0
C      1  0.5104440000000  0.4681080000000  0.4470510000000 1.0
C      1  0.4982200000000  0.4492360000000  0.4965930000000 1.0
C      1  0.5328190000000  0.6004950000000  0.5175960000000 1.0
C      1  0.5064310000000  0.5333740000000  0.4831830000000 1.0
C      1  0.4182650000000  0.5487970000000  0.5378110000000 1.0
C      1  0.4431190000000  0.5266870000000  0.5754630000000 1.0
C      1  0.5639930000000  0.5323120000000  0.4503770000000 1.0
C      1  0.5203670000000  0.5597040000000  0.4417140000000 1.0
C      1  0.5413250000000  0.4429410000000  0.4390020000000 1.0
C      1  0.4385910000000  0.5512300000000  0.5593350000000 1.0
C      1  0.5665670000000  0.5194850000000  0.5430100000000 1.0
C      1  0.4513420000000  0.4342340000000  0.5365930000000 1.0
C      1  0.5370720000000  0.5253570000000  0.5101320000000 1.0
C      1  0.5254410000000  0.5519100000000  0.5190770000000 1.0
C      1  0.5025780000000  0.5530950000000  0.5016060000000 1.0
C      1  0.4587590000000  0.5506430000000  0.4768870000000 1.0
C      1  0.5189610000000  0.4223670000000  0.4416220000000 1.0
C      1  0.5174390000000  0.4916470000000  0.5832180000000 1.0
C      1  0.4288220000000  0.4929180000000  0.4381720000000 1.0
C      1  0.4280140000000  0.5073020000000  0.5610670000000 1.0
C      1  0.4103650000000  0.5325220000000  0.4908480000000 1.0
C      1  0.5695620000000  0.5041440000000  0.5632260000000 1.0
C      1  0.4499840000000  0.5775960000000  0.4745990000000 1.0
C      1  0.5797980000000  0.4702730000000  0.4841980000000 1.0
C      1  0.5202180000000  0.5674840000000  0.5433080000000 1.0
C      1  0.4889210000000  0.4952020000000  0.5878890000000 1.0
C      1  0.5016500000000  0.4941110000000  0.4527380000000 1.0
C      1  0.4822060000000  0.5297280000000  0.5620380000000 1.0
C      1  0.4801470000000  0.4694940000000  0.4868550000000 1.0
C      1  0.4923580000000  0.4567690000000  0.4234090000000 1.0
END
