TITL C-2441164-471-1473 0.0465006343092626 125000 -26248.2883190479 0 0 187 (C1) n - 1
REM
REM in /home/bkarasulu/work/CARBON/AIRSS/Generating-Clusters/ReaxFF-fromJPCA2015/Units_Real/with-SteepDescent/Higher-Symm
REM
REM
REM
REM
REM
REM ./C.cell (1df0a924f5614ab8850e4351716899ee)
REM
REM compiler GCC version 9.2.1 20190827 (Red Hat 9.2.1-1)
REM options -cpp -mtune=generic -march=x86-64 -g -O0 -fpre-include=/usr/include/finclude/math-vector-fortran.h
REM seed -2128992402 185321324 463461975 1189952305 812820053 -748878991 869629404 -1554940914 -1601208525 -172077925 -1781959728 786121935 1675620034 -1577598150 -651861490 467509210 1639729659 -1215011485 1219616246 -1004324515 1992487740 899755823 2102603616 862389641 949230158 1726408602 1225362038 -1665788419 -1113729399 1745479148 433561661 -2088787384 283464474
REM
CELL 1.54180   50.00000   50.00000   50.00000   90.00000   90.00000   90.00000
LATT -1
SFAC C  
C      1  0.5093970000000  0.4465460000000  0.4837390000000 1.0
C      1  0.4469520000000  0.4871530000000  0.5134440000000 1.0
C      1  0.4960750000000  0.5127880000000  0.4596840000000 1.0
C      1  0.4821650000000  0.5291380000000  0.4818280000000 1.0
C      1  0.5137470000000  0.5484800000000  0.5130980000000 1.0
C      1  0.4836970000000  0.4615810000000  0.5114340000000 1.0
C      1  0.5291050000000  0.5252370000000  0.5207190000000 1.0
C      1  0.4577240000000  0.5144030000000  0.4877100000000 1.0
C      1  0.5417880000000  0.4875680000000  0.4760710000000 1.0
C      1  0.5234200000000  0.4748770000000  0.4506340000000 1.0
C      1  0.4846250000000  0.4801770000000  0.5330020000000 1.0
C      1  0.5164140000000  0.5179210000000  0.5481100000000 1.0
C      1  0.5094270000000  0.4503930000000  0.5115020000000 1.0
C      1  0.4541940000000  0.4827890000000  0.4866750000000 1.0
C      1  0.4893380000000  0.5241140000000  0.5580160000000 1.0
C      1  0.4872910000000  0.5372140000000  0.5103030000000 1.0
C      1  0.5222710000000  0.5585340000000  0.4882040000000 1.0
C      1  0.4832200000000  0.4600710000000  0.4806800000000 1.0
C      1  0.5507050000000  0.5167430000000  0.4688620000000 1.0
C      1  0.4528880000000  0.5156760000000  0.5186160000000 1.0
C      1  0.5253620000000  0.4997210000000  0.5004280000000 1.0
C      1  0.5098240000000  0.4902140000000  0.5417570000000 1.0
C      1  0.4944750000000  0.4823320000000  0.4578280000000 1.0
C      1  0.5235640000000  0.5258190000000  0.4508150000000 1.0
C      1  0.5406930000000  0.5257230000000  0.5922800000000 1.0
C      1  0.5246220000000  0.5961680000000  0.5401320000000 1.0
C      1  0.5999870000000  0.5404740000000  0.5203150000000 1.0
C      1  0.4632830000000  0.4796540000000  0.6023110000000 1.0
C      1  0.5423980000000  0.4715210000000  0.4052940000000 1.0
C      1  0.4604650000000  0.5123680000000  0.4006110000000 1.0
C      1  0.4778440000000  0.4035260000000  0.5437810000000 1.0
C      1  0.5316100000000  0.4031640000000  0.4584950000000 1.0
C      1  0.4774640000000  0.5988210000000  0.4535180000000 1.0
C      1  0.4042760000000  0.4628810000000  0.5367460000000 1.0
C      1  0.6011660000000  0.4609910000000  0.4867390000000 1.0
C      1  0.4017260000000  0.5449440000000  0.4790680000000 1.0
C      1  0.5406220000000  0.5332340000000  0.4049960000000 1.0
C      1  0.5114650000000  0.5982620000000  0.4618690000000 1.0
C      1  0.5928280000000  0.5407800000000  0.4848950000000 1.0
C      1  0.4623690000000  0.4821170000000  0.4000680000000 1.0
C      1  0.5420500000000  0.4713680000000  0.6015480000000 1.0
C      1  0.4616970000000  0.5138420000000  0.5963440000000 1.0
C      1  0.4691500000000  0.4034250000000  0.4613410000000 1.0
C      1  0.5178220000000  0.3998240000000  0.5489980000000 1.0
C      1  0.4802640000000  0.5958290000000  0.5489610000000 1.0
C      1  0.4054520000000  0.4658770000000  0.4704850000000 1.0
C      1  0.5984930000000  0.4594930000000  0.5168510000000 1.0
C      1  0.4059410000000  0.5423450000000  0.5171890000000 1.0
C      1  0.4344150000000  0.5781460000000  0.5427720000000 1.0
C      1  0.5775700000000  0.5485820000000  0.4352620000000 1.0
C      1  0.5362420000000  0.4328200000000  0.5796950000000 1.0
C      1  0.5653610000000  0.4200350000000  0.5434250000000 1.0
C      1  0.4249800000000  0.4243900000000  0.4575220000000 1.0
C      1  0.5625770000000  0.5805770000000  0.4631130000000 1.0
C      1  0.4235340000000  0.4613900000000  0.4259550000000 1.0
C      1  0.5763220000000  0.4561670000000  0.5632130000000 1.0
C      1  0.4246690000000  0.5391420000000  0.5672830000000 1.0
C      1  0.4634900000000  0.5624170000000  0.5797460000000 1.0
C      1  0.5389660000000  0.5733350000000  0.4279550000000 1.0
C      1  0.4527430000000  0.4309550000000  0.4196270000000 1.0
C      1  0.4330130000000  0.5781710000000  0.4550310000000 1.0
C      1  0.5806680000000  0.5393840000000  0.5665260000000 1.0
C      1  0.5438970000000  0.4308120000000  0.4251310000000 1.0
C      1  0.5761430000000  0.4228930000000  0.4619320000000 1.0
C      1  0.4311210000000  0.4238940000000  0.5512030000000 1.0
C      1  0.5734090000000  0.5789370000000  0.5435400000000 1.0
C      1  0.4213250000000  0.4618370000000  0.5804380000000 1.0
C      1  0.5841730000000  0.4532430000000  0.4341270000000 1.0
C      1  0.4233940000000  0.5392880000000  0.4325400000000 1.0
C      1  0.4573240000000  0.5632940000000  0.4170900000000 1.0
C      1  0.5433680000000  0.5697580000000  0.5781250000000 1.0
C      1  0.4614930000000  0.4329280000000  0.5837350000000 1.0
C      1  0.4559440000000  0.5860100000000  0.4383110000000 1.0
C      1  0.5940420000000  0.4453230000000  0.4608930000000 1.0
C      1  0.4473540000000  0.4570520000000  0.5951450000000 1.0
C      1  0.5547650000000  0.4112530000000  0.4434880000000 1.0
C      1  0.4559580000000  0.4132500000000  0.5628220000000 1.0
C      1  0.5486500000000  0.5883820000000  0.5572810000000 1.0
C      1  0.4119900000000  0.5575530000000  0.4544390000000 1.0
C      1  0.5924330000000  0.5547160000000  0.5446210000000 1.0
C      1  0.4113600000000  0.4447840000000  0.5586150000000 1.0
C      1  0.5599930000000  0.5469940000000  0.5857760000000 1.0
C      1  0.4438000000000  0.5378270000000  0.4117720000000 1.0
C      1  0.5610360000000  0.4501410000000  0.4130490000000 1.0
C      1  0.4563030000000  0.5859360000000  0.5607790000000 1.0
C      1  0.5856670000000  0.4412320000000  0.5404460000000 1.0
C      1  0.4451260000000  0.4573070000000  0.4071520000000 1.0
C      1  0.5416560000000  0.4114250000000  0.5605480000000 1.0
C      1  0.4473110000000  0.4127720000000  0.4427650000000 1.0
C      1  0.5397130000000  0.5922090000000  0.4493020000000 1.0
C      1  0.4161390000000  0.5559800000000  0.5438420000000 1.0
C      1  0.5833800000000  0.5607410000000  0.4606310000000 1.0
C      1  0.4097750000000  0.4479830000000  0.4481090000000 1.0
C      1  0.5572090000000  0.5552730000000  0.4147950000000 1.0
C      1  0.4459040000000  0.5390150000000  0.5877050000000 1.0
C      1  0.5580980000000  0.4512520000000  0.5870830000000 1.0
C      1  0.4284700000000  0.4592770000000  0.4876490000000 1.0
C      1  0.4691700000000  0.4859960000000  0.4419510000000 1.0
C      1  0.4843180000000  0.4273530000000  0.4575000000000 1.0
C      1  0.5641390000000  0.5339380000000  0.4910010000000 1.0
C      1  0.4346610000000  0.5399450000000  0.5087430000000 1.0
C      1  0.5550900000000  0.4592930000000  0.5169570000000 1.0
C      1  0.5394730000000  0.5153900000000  0.4282440000000 1.0
C      1  0.4679930000000  0.5069430000000  0.5674560000000 1.0
C      1  0.5318470000000  0.4800320000000  0.5570930000000 1.0
C      1  0.5060060000000  0.5679350000000  0.4671660000000 1.0
C      1  0.4757670000000  0.5573680000000  0.5279800000000 1.0
C      1  0.5142780000000  0.4393000000000  0.5373570000000 1.0
C      1  0.4271640000000  0.4602610000000  0.5176790000000 1.0
C      1  0.4666530000000  0.4785860000000  0.5562100000000 1.0
C      1  0.4882670000000  0.4300940000000  0.5444400000000 1.0
C      1  0.5564210000000  0.5336100000000  0.5221830000000 1.0
C      1  0.4399940000000  0.5350390000000  0.4801570000000 1.0
C      1  0.5565000000000  0.4650750000000  0.4896470000000 1.0
C      1  0.5420130000000  0.5094650000000  0.5680940000000 1.0
C      1  0.4699410000000  0.5140600000000  0.4427920000000 1.0
C      1  0.5417530000000  0.4857870000000  0.4299840000000 1.0
C      1  0.5088530000000  0.5715820000000  0.5403350000000 1.0
C      1  0.4794610000000  0.5546470000000  0.4652680000000 1.0
C      1  0.5132440000000  0.4285980000000  0.4606230000000 1.0
C      1  0.5192230000000  0.5548180000000  0.4413330000000 1.0
C      1  0.5480540000000  0.4311910000000  0.5217280000000 1.0
C      1  0.4395120000000  0.5168290000000  0.5527770000000 1.0
C      1  0.4787200000000  0.4353130000000  0.4303390000000 1.0
C      1  0.5205840000000  0.4525980000000  0.5652490000000 1.0
C      1  0.4766530000000  0.5483900000000  0.5551960000000 1.0
C      1  0.4488950000000  0.5696320000000  0.5173090000000 1.0
C      1  0.5499450000000  0.5645290000000  0.4863800000000 1.0
C      1  0.4360710000000  0.4321030000000  0.4827790000000 1.0
C      1  0.5586570000000  0.4740270000000  0.5425650000000 1.0
C      1  0.4404010000000  0.4784290000000  0.4430590000000 1.0
C      1  0.5685140000000  0.5212980000000  0.4437550000000 1.0
C      1  0.5141940000000  0.5634790000000  0.5700040000000 1.0
C      1  0.5580520000000  0.4368470000000  0.4807030000000 1.0
C      1  0.4389780000000  0.5224340000000  0.4519160000000 1.0
C      1  0.4780010000000  0.4475200000000  0.5662630000000 1.0
C      1  0.5205500000000  0.4474940000000  0.4373450000000 1.0
C      1  0.4777800000000  0.5495020000000  0.4336900000000 1.0
C      1  0.4515250000000  0.5627280000000  0.4741630000000 1.0
C      1  0.5570410000000  0.5624960000000  0.5264920000000 1.0
C      1  0.4375200000000  0.4344930000000  0.5253790000000 1.0
C      1  0.5730210000000  0.4793760000000  0.4408650000000 1.0
C      1  0.4364650000000  0.4767570000000  0.5594350000000 1.0
C      1  0.5668870000000  0.5179920000000  0.5508430000000 1.0
C      1  0.3962980000000  0.5191670000000  0.4725470000000 1.0
C      1  0.5161310000000  0.4780420000000  0.3938010000000 1.0
C      1  0.4676990000000  0.3993500000000  0.5133520000000 1.0
C      1  0.6067760000000  0.4866890000000  0.4746470000000 1.0
C      1  0.3910070000000  0.4879200000000  0.5337050000000 1.0
C      1  0.6070330000000  0.5129820000000  0.5188740000000 1.0
C      1  0.4861580000000  0.5238250000000  0.3962990000000 1.0
C      1  0.5157390000000  0.5288680000000  0.6065670000000 1.0
C      1  0.4898800000000  0.4683300000000  0.6046770000000 1.0
C      1  0.5317740000000  0.6026370000000  0.5118540000000 1.0
C      1  0.4683590000000  0.6046350000000  0.4799790000000 1.0
C      1  0.5334120000000  0.3936280000000  0.4855870000000 1.0
C      1  0.3926870000000  0.5166390000000  0.5238020000000 1.0
C      1  0.5154840000000  0.4810720000000  0.6090860000000 1.0
C      1  0.4782350000000  0.3926480000000  0.4880750000000 1.0
C      1  0.6025670000000  0.4851550000000  0.5305390000000 1.0
C      1  0.3925590000000  0.4910620000000  0.4772440000000 1.0
C      1  0.6046590000000  0.5161510000000  0.4740950000000 1.0
C      1  0.4869550000000  0.5232380000000  0.6083760000000 1.0
C      1  0.5157590000000  0.5309480000000  0.3918560000000 1.0
C      1  0.4892710000000  0.4693640000000  0.3993290000000 1.0
C      1  0.5144260000000  0.6094710000000  0.4894910000000 1.0
C      1  0.4839300000000  0.6056420000000  0.5256870000000 1.0
C      1  0.5137970000000  0.3935140000000  0.5244780000000 1.0
C      1  0.4991510000000  0.4483010000000  0.5853470000000 1.0
C      1  0.4494610000000  0.5857110000000  0.4919660000000 1.0
C      1  0.5920650000000  0.5004710000000  0.4370830000000 1.0
C      1  0.4994830000000  0.5608260000000  0.4167920000000 1.0
C      1  0.5509460000000  0.4144100000000  0.4971860000000 1.0
C      1  0.4181340000000  0.4998480000000  0.4433490000000 1.0
C      1  0.5797180000000  0.4927130000000  0.5457140000000 1.0
C      1  0.4218320000000  0.4988080000000  0.5654550000000 1.0
C      1  0.4948040000000  0.5666040000000  0.5893810000000 1.0
C      1  0.4982490000000  0.4501000000000  0.4177860000000 1.0
C      1  0.4470200000000  0.4176460000000  0.5051490000000 1.0
C      1  0.5534590000000  0.5834740000000  0.5081160000000 1.0
C      1  0.5064350000000  0.3878520000000  0.4983610000000 1.0
C      1  0.4881170000000  0.6156720000000  0.5001210000000 1.0
C      1  0.5935830000000  0.5015500000000  0.4947590000000 1.0
C      1  0.5049120000000  0.5051470000000  0.5985450000000 1.0
C      1  0.3983100000000  0.4944540000000  0.5062360000000 1.0
C      1  0.5079700000000  0.5054170000000  0.3942670000000 1.0
C      1  0.5015480000000  0.4966140000000  0.4985580000000 1.0
END
