TITL C-2441163-1170-137 0.00702679387881511 125000 -7247.71949442859 0 0 53 (C3h) n - 1
REM
REM in /home/bkarasulu/work/CARBON/AIRSS/Generating-Clusters/ReaxFF-fromJPCA2015/Units_Real/with-SteepDescent/Higher-Symm
REM
REM
REM
REM
REM
REM ./C.cell (1df0a924f5614ab8850e4351716899ee)
REM
REM compiler GCC version 9.2.1 20190827 (Red Hat 9.2.1-1)
REM options -cpp -mtune=generic -march=x86-64 -g -O0 -fpre-include=/usr/include/finclude/math-vector-fortran.h
REM seed 1252003008 -770532195 -1642894494 -878043650 2029476485 969804371 1139140924 1505113048 -1741366789 -1517787813 665295777 -1479218113 -1413875218 1386242106 1751225754 -2045438230 115150082 -1957554704 -1950266256 -1875560583 -417856127 472430912 283809857 -86741984 -640164035 422802341 -1783529470 -399964844 175844358 -1073671557 -608796122 245476103 -273055119
REM
CELL 1.54180   50.00000   50.00000   50.00000   90.00000   90.00000   90.00000
LATT -1
SFAC C  
C      1  0.5661690000000  0.4977350000000  0.4708070000000 1.0
C      1  0.5661740000000  0.5270820000000  0.5123160000000 1.0
C      1  0.5661990000000  0.4763740000000  0.5170220000000 1.0
C      1  0.4367420000000  0.4977170000000  0.4708140000000 1.0
C      1  0.4367500000000  0.5270930000000  0.5123200000000 1.0
C      1  0.4367270000000  0.4764000000000  0.5170500000000 1.0
C      1  0.5212530000000  0.4463200000000  0.4698450000000 1.0
C      1  0.5213580000000  0.5538340000000  0.4683760000000 1.0
C      1  0.5213100000000  0.5011040000000  0.5619670000000 1.0
C      1  0.4815420000000  0.4462660000000  0.4697700000000 1.0
C      1  0.4816470000000  0.5537380000000  0.4683910000000 1.0
C      1  0.4816330000000  0.5011160000000  0.5619870000000 1.0
C      1  0.5545220000000  0.5473300000000  0.4950080000000 1.0
C      1  0.5545670000000  0.4812110000000  0.5432180000000 1.0
C      1  0.5542990000000  0.4726970000000  0.4620170000000 1.0
C      1  0.4484580000000  0.5473150000000  0.4950120000000 1.0
C      1  0.4483720000000  0.4811980000000  0.5432510000000 1.0
C      1  0.4484640000000  0.4726310000000  0.4619590000000 1.0
C      1  0.4621060000000  0.5234860000000  0.5605320000000 1.0
C      1  0.4619990000000  0.4363570000000  0.4898450000000 1.0
C      1  0.4621440000000  0.5412530000000  0.4497560000000 1.0
C      1  0.5408090000000  0.5234900000000  0.5605170000000 1.0
C      1  0.5408680000000  0.4363630000000  0.4898290000000 1.0
C      1  0.5408260000000  0.5412970000000  0.4497420000000 1.0
C      1  0.5496490000000  0.5344870000000  0.5354180000000 1.0
C      1  0.5497010000000  0.4526330000000  0.5118830000000 1.0
C      1  0.5496420000000  0.5140680000000  0.4528830000000 1.0
C      1  0.4532530000000  0.5344570000000  0.5354330000000 1.0
C      1  0.4532190000000  0.4526760000000  0.5118810000000 1.0
C      1  0.4532630000000  0.5140360000000  0.4528550000000 1.0
C      1  0.4521440000000  0.5603940000000  0.4692810000000 1.0
C      1  0.4521490000000  0.4970040000000  0.5673870000000 1.0
C      1  0.4520550000000  0.4437900000000  0.4635040000000 1.0
C      1  0.5508730000000  0.5604190000000  0.4692680000000 1.0
C      1  0.5507990000000  0.4970100000000  0.5673610000000 1.0
C      1  0.5507190000000  0.4438520000000  0.4634680000000 1.0
C      1  0.4776110000000  0.5422880000000  0.5224360000000 1.0
C      1  0.4776500000000  0.4601780000000  0.5248670000000 1.0
C      1  0.4774840000000  0.4986940000000  0.4523940000000 1.0
C      1  0.5254570000000  0.5428310000000  0.5224560000000 1.0
C      1  0.5254080000000  0.4599210000000  0.5252360000000 1.0
C      1  0.5252870000000  0.4989060000000  0.4528400000000 1.0
C      1  0.5259800000000  0.4844930000000  0.5375930000000 1.0
C      1  0.5257530000000  0.4757480000000  0.4678110000000 1.0
C      1  0.5259040000000  0.5410400000000  0.4949640000000 1.0
C      1  0.4769630000000  0.4844900000000  0.5376320000000 1.0
C      1  0.4770460000000  0.4756960000000  0.4675990000000 1.0
C      1  0.4770580000000  0.5409140000000  0.4949410000000 1.0
C      1  0.5014550000000  0.5011520000000  0.4474730000000 1.0
C      1  0.5014540000000  0.4543460000000  0.5258850000000 1.0
C      1  0.5014480000000  0.5456930000000  0.5270460000000 1.0
C      1  0.5688560000000  0.5003780000000  0.5000720000000 1.0
C      1  0.4340720000000  0.5003870000000  0.5000730000000 1.0
END
