TITL C-2441154-10-1235 0.0170997085938238 125000 -10417.9949137362 0 0 75 (C1) n - 1
REM
REM in /home/bkarasulu/work/CARBON/AIRSS/Generating-Clusters/ReaxFF-fromJPCA2015/Units_Real/with-SteepDescent/Higher-Symm
REM
REM
REM
REM
REM
REM ./C.cell (1df0a924f5614ab8850e4351716899ee)
REM
REM compiler GCC version 9.2.1 20190827 (Red Hat 9.2.1-1)
REM options -cpp -mtune=generic -march=x86-64 -g -O0 -fpre-include=/usr/include/finclude/math-vector-fortran.h
REM seed -338962857 584079722 -1773619829 -267596085 379744012 -1713279218 1830916598 1287748390 -320774823 -1196900082 -1339056650 -37860829 1260861929 1891886294 -726019660 -81196510 1830838613 1023195727 -1465135919 -2056045815 1648990894 1331924890 684891280 1044954874 -706330923 -394164637 -1773890270 -335779370 -1044894176 -818425647 -2089580091 520061854 -33343451
REM
CELL 1.54180   50.00000   50.00000   50.00000   90.00000   90.00000   90.00000
LATT -1
SFAC C  
C      1  0.4683940000000  0.5655390000000  0.5282750000000 1.0
C      1  0.4695180000000  0.5656560000000  0.4746250000000 1.0
C      1  0.5198010000000  0.5343210000000  0.4334910000000 1.0
C      1  0.5213060000000  0.5331670000000  0.5615950000000 1.0
C      1  0.4812770000000  0.4680090000000  0.5572080000000 1.0
C      1  0.4763720000000  0.4676830000000  0.4452430000000 1.0
C      1  0.4766010000000  0.4419820000000  0.5446950000000 1.0
C      1  0.4752990000000  0.4405820000000  0.4571390000000 1.0
C      1  0.4917330000000  0.4253800000000  0.4747590000000 1.0
C      1  0.4930380000000  0.4243390000000  0.5290940000000 1.0
C      1  0.4331940000000  0.5405680000000  0.4711680000000 1.0
C      1  0.4317070000000  0.5396540000000  0.5305830000000 1.0
C      1  0.4513320000000  0.4404640000000  0.4770920000000 1.0
C      1  0.4511710000000  0.4427270000000  0.5246170000000 1.0
C      1  0.5613980000000  0.4402660000000  0.4795070000000 1.0
C      1  0.5599590000000  0.4490340000000  0.5294720000000 1.0
C      1  0.5190780000000  0.5727760000000  0.4702560000000 1.0
C      1  0.5184570000000  0.5820410000000  0.5328410000000 1.0
C      1  0.5121100000000  0.5582940000000  0.4475410000000 1.0
C      1  0.5146360000000  0.5599380000000  0.5508600000000 1.0
C      1  0.4349250000000  0.4675150000000  0.5228490000000 1.0
C      1  0.4362280000000  0.4660420000000  0.4735180000000 1.0
C      1  0.5187750000000  0.4583810000000  0.5280410000000 1.0
C      1  0.5201540000000  0.4576360000000  0.4740810000000 1.0
C      1  0.4963410000000  0.5656830000000  0.5307260000000 1.0
C      1  0.4961730000000  0.5541800000000  0.4753500000000 1.0
C      1  0.5017700000000  0.4858830000000  0.5688790000000 1.0
C      1  0.4980190000000  0.4863300000000  0.4368300000000 1.0
C      1  0.5195500000000  0.4809200000000  0.4557760000000 1.0
C      1  0.5205600000000  0.4795010000000  0.5479670000000 1.0
C      1  0.5340930000000  0.4336600000000  0.5330880000000 1.0
C      1  0.5346220000000  0.4322140000000  0.4700320000000 1.0
C      1  0.4513320000000  0.4908720000000  0.5238020000000 1.0
C      1  0.4572730000000  0.4821540000000  0.4621350000000 1.0
C      1  0.4139980000000  0.5169920000000  0.5261290000000 1.0
C      1  0.4157150000000  0.5177510000000  0.4709030000000 1.0
C      1  0.5534340000000  0.5118700000000  0.4649440000000 1.0
C      1  0.5589420000000  0.5004990000000  0.5401820000000 1.0
C      1  0.4769990000000  0.5254940000000  0.5526120000000 1.0
C      1  0.4731980000000  0.5279460000000  0.4434250000000 1.0
C      1  0.4878770000000  0.5231520000000  0.4680490000000 1.0
C      1  0.4914760000000  0.5124690000000  0.5313450000000 1.0
C      1  0.5398560000000  0.5839680000000  0.4859000000000 1.0
C      1  0.5578560000000  0.5745230000000  0.5053820000000 1.0
C      1  0.4560210000000  0.5494580000000  0.4549430000000 1.0
C      1  0.4561170000000  0.5460420000000  0.5456750000000 1.0
C      1  0.4774940000000  0.4875050000000  0.5350020000000 1.0
C      1  0.4705710000000  0.5029550000000  0.4797110000000 1.0
C      1  0.5282950000000  0.5010020000000  0.4752140000000 1.0
C      1  0.5315590000000  0.4986520000000  0.5292520000000 1.0
C      1  0.5693670000000  0.4725420000000  0.5446160000000 1.0
C      1  0.5818020000000  0.4591520000000  0.4664580000000 1.0
C      1  0.5166480000000  0.4157460000000  0.4857010000000 1.0
C      1  0.5178220000000  0.4163530000000  0.5161480000000 1.0
C      1  0.5487370000000  0.5217400000000  0.5592280000000 1.0
C      1  0.5483450000000  0.5268900000000  0.4399060000000 1.0
C      1  0.4986040000000  0.5154460000000  0.5711810000000 1.0
C      1  0.4959620000000  0.5150930000000  0.4291800000000 1.0
C      1  0.5106620000000  0.4632990000000  0.5007540000000 1.0
C      1  0.5588180000000  0.4594510000000  0.5019530000000 1.0
C      1  0.4431200000000  0.5407820000000  0.5015300000000 1.0
C      1  0.5170940000000  0.5080970000000  0.5040240000000 1.0
C      1  0.5826100000000  0.5284990000000  0.5033700000000 1.0
C      1  0.4890230000000  0.4417650000000  0.5008620000000 1.0
C      1  0.4563780000000  0.5112130000000  0.5033020000000 1.0
C      1  0.5576580000000  0.5457250000000  0.5093100000000 1.0
C      1  0.5363360000000  0.5899680000000  0.5129110000000 1.0
C      1  0.4644550000000  0.4498060000000  0.5006590000000 1.0
C      1  0.5773020000000  0.5074680000000  0.4839800000000 1.0
C      1  0.5787540000000  0.4779350000000  0.4902450000000 1.0
C      1  0.4222330000000  0.4744080000000  0.4978180000000 1.0
C      1  0.5309590000000  0.5343260000000  0.5030060000000 1.0
C      1  0.4152550000000  0.5032130000000  0.4986570000000 1.0
C      1  0.4404500000000  0.4187050000000  0.5031060000000 1.0
C      1  0.4590760000000  0.5646540000000  0.5012120000000 1.0
END
