TITL C-2441159-1093-1414 -0.00114443156086625 125000 -7783.16259726494 0 0 55 (C1) n - 1
REM
REM in /home/bkarasulu/work/CARBON/AIRSS/Generating-Clusters/ReaxFF-fromJPCA2015/Units_Real/with-SteepDescent/Higher-Symm
REM
REM
REM
REM
REM
REM ./C.cell (1df0a924f5614ab8850e4351716899ee)
REM
REM compiler GCC version 9.2.1 20190827 (Red Hat 9.2.1-1)
REM options -cpp -mtune=generic -march=x86-64 -g -O0 -fpre-include=/usr/include/finclude/math-vector-fortran.h
REM seed -1093785338 -1491225940 -1275123642 -1516156390 2145687981 -902583578 695392532 1850988895 1276365836 869927928 -965419941 1538765853 778124079 -10272092 1631446148 151250414 -1837167435 118229965 -1415612826 -308650239 -772709830 1402150208 1047331029 727293060 1064717125 17434992 -747906097 -760550695 -387857909 2088247918 -540782854 618282637 -382347556
REM
CELL 1.54180   50.00000   50.00000   50.00000   90.00000   90.00000   90.00000
LATT -1
SFAC C  
C      1  0.4664410000000  0.4545540000000  0.4759940000000 1.0
C      1  0.4899310000000  0.4559280000000  0.4596340000000 1.0
C      1  0.5181330000000  0.4555630000000  0.4621850000000 1.0
C      1  0.5376380000000  0.4543390000000  0.4827270000000 1.0
C      1  0.5396150000000  0.4555570000000  0.5112800000000 1.0
C      1  0.5233460000000  0.4556070000000  0.5346180000000 1.0
C      1  0.4955180000000  0.4540580000000  0.5431480000000 1.0
C      1  0.4681060000000  0.4550490000000  0.5299460000000 1.0
C      1  0.4575230000000  0.4546810000000  0.5029000000000 1.0
C      1  0.4676450000000  0.5090410000000  0.4785420000000 1.0
C      1  0.4923160000000  0.5237610000000  0.4721940000000 1.0
C      1  0.5158360000000  0.5097770000000  0.4605720000000 1.0
C      1  0.5360110000000  0.5080820000000  0.4797910000000 1.0
C      1  0.5282470000000  0.5250390000000  0.5025750000000 1.0
C      1  0.5262630000000  0.5116590000000  0.5289330000000 1.0
C      1  0.5005220000000  0.5038110000000  0.5385310000000 1.0
C      1  0.4736540000000  0.5062000000000  0.5300900000000 1.0
C      1  0.4580140000000  0.5086810000000  0.5058600000000 1.0
C      1  0.5680990000000  0.4676030000000  0.5175380000000 1.0
C      1  0.5416510000000  0.4708680000000  0.5550990000000 1.0
C      1  0.4943050000000  0.4669120000000  0.5703930000000 1.0
C      1  0.4496280000000  0.4688660000000  0.5492790000000 1.0
C      1  0.4286840000000  0.4680250000000  0.5047860000000 1.0
C      1  0.4425610000000  0.4665790000000  0.4583370000000 1.0
C      1  0.4815170000000  0.4676310000000  0.4316620000000 1.0
C      1  0.5295220000000  0.4679750000000  0.4347400000000 1.0
C      1  0.5652470000000  0.4649180000000  0.4700430000000 1.0
C      1  0.5235120000000  0.4954970000000  0.4364390000000 1.0
C      1  0.5597860000000  0.4927220000000  0.4725480000000 1.0
C      1  0.5767930000000  0.4942340000000  0.5148240000000 1.0
C      1  0.5455310000000  0.4982390000000  0.5466590000000 1.0
C      1  0.5029630000000  0.4954530000000  0.5677670000000 1.0
C      1  0.4567870000000  0.4975430000000  0.5536560000000 1.0
C      1  0.4314010000000  0.4962350000000  0.5066280000000 1.0
C      1  0.4489870000000  0.4941890000000  0.4616040000000 1.0
C      1  0.4739930000000  0.4936820000000  0.4243790000000 1.0
C      1  0.5443290000000  0.5305110000000  0.4375500000000 1.0
C      1  0.5752300000000  0.5287310000000  0.4813180000000 1.0
C      1  0.5682190000000  0.5309130000000  0.5337230000000 1.0
C      1  0.5298640000000  0.5308150000000  0.5684150000000 1.0
C      1  0.4774250000000  0.5281850000000  0.5753640000000 1.0
C      1  0.4360320000000  0.5322600000000  0.5432810000000 1.0
C      1  0.4237720000000  0.5322240000000  0.4917840000000 1.0
C      1  0.4470540000000  0.5298390000000  0.4434470000000 1.0
C      1  0.4944940000000  0.5293490000000  0.4217870000000 1.0
C      1  0.5205550000000  0.5332760000000  0.4242640000000 1.0
C      1  0.5635610000000  0.5302840000000  0.4571050000000 1.0
C      1  0.5811780000000  0.5215080000000  0.5092650000000 1.0
C      1  0.5521560000000  0.5364940000000  0.5546170000000 1.0
C      1  0.5046300000000  0.5228540000000  0.5814140000000 1.0
C      1  0.4504050000000  0.5251480000000  0.5671170000000 1.0
C      1  0.4257410000000  0.5342160000000  0.5190360000000 1.0
C      1  0.4329120000000  0.5318740000000  0.4659360000000 1.0
C      1  0.4670890000000  0.5212710000000  0.4234130000000 1.0
C      1  0.5036850000000  0.5403370000000  0.4945140000000 1.0
END
