TITL C-2441164-471-1065 0.000478246165836259 125000 -6130.55368640412 0 0 41 (C1) n - 1
REM
REM in /home/bkarasulu/work/CARBON/AIRSS/Generating-Clusters/ReaxFF-fromJPCA2015/Units_Real/with-SteepDescent/Higher-Symm
REM
REM
REM
REM
REM
REM ./C.cell (1df0a924f5614ab8850e4351716899ee)
REM
REM compiler GCC version 9.2.1 20190827 (Red Hat 9.2.1-1)
REM options -cpp -mtune=generic -march=x86-64 -g -O0 -fpre-include=/usr/include/finclude/math-vector-fortran.h
REM seed -726613500 -1633952782 1216945241 381571715 1387305831 1030796129 1411166710 -1734196779 -757165903 -434702526 -2038900296 18167197 -856972414 -23316112 1370941608 -251460191 568810252 1773518791 659043778 469397771 815411897 691172447 -814066071 -559818575 -344105523 1559132438 283199874 -213291299 1414249532 279788467 -98310650 -1132120424 -683488146
REM
CELL 1.54180   50.00000   50.00000   50.00000   90.00000   90.00000   90.00000
LATT -1
SFAC C  
C      1  0.4573300000000  0.5227460000000  0.4914470000000 1.0
C      1  0.4560890000000  0.4745400000000  0.5124350000000 1.0
C      1  0.5411600000000  0.5148640000000  0.4859880000000 1.0
C      1  0.5408720000000  0.4849110000000  0.5152640000000 1.0
C      1  0.4612150000000  0.5287860000000  0.5178620000000 1.0
C      1  0.4552140000000  0.4721930000000  0.4850840000000 1.0
C      1  0.5408840000000  0.5150370000000  0.5152240000000 1.0
C      1  0.5409810000000  0.4848210000000  0.4860740000000 1.0
C      1  0.5290490000000  0.4675520000000  0.4410410000000 1.0
C      1  0.5283240000000  0.5319760000000  0.5599410000000 1.0
C      1  0.4757070000000  0.4648240000000  0.4435870000000 1.0
C      1  0.4759800000000  0.5323420000000  0.5559780000000 1.0
C      1  0.5286180000000  0.4675510000000  0.5601870000000 1.0
C      1  0.5285380000000  0.5320110000000  0.4409020000000 1.0
C      1  0.4749560000000  0.4667990000000  0.5560530000000 1.0
C      1  0.4758600000000  0.5302550000000  0.4475010000000 1.0
C      1  0.4895190000000  0.4359850000000  0.4855120000000 1.0
C      1  0.4904390000000  0.5655610000000  0.5155690000000 1.0
C      1  0.5187260000000  0.4401440000000  0.4857510000000 1.0
C      1  0.5191070000000  0.5603040000000  0.5151450000000 1.0
C      1  0.4891430000000  0.4369130000000  0.5150290000000 1.0
C      1  0.4888920000000  0.5625710000000  0.4863260000000 1.0
C      1  0.5184520000000  0.4404150000000  0.5152850000000 1.0
C      1  0.5183660000000  0.5592640000000  0.4855270000000 1.0
C      1  0.4702520000000  0.5430980000000  0.4725710000000 1.0
C      1  0.4699750000000  0.4552750000000  0.5294660000000 1.0
C      1  0.5323940000000  0.5378160000000  0.4696010000000 1.0
C      1  0.5325280000000  0.4617870000000  0.5315390000000 1.0
C      1  0.4705710000000  0.5498800000000  0.5342510000000 1.0
C      1  0.4697730000000  0.4521860000000  0.4692890000000 1.0
C      1  0.5324450000000  0.5380130000000  0.5314240000000 1.0
C      1  0.5327240000000  0.4617260000000  0.4697380000000 1.0
C      1  0.5145940000000  0.4846940000000  0.5795020000000 1.0
C      1  0.5145880000000  0.5148210000000  0.4216300000000 1.0
C      1  0.4847390000000  0.4842500000000  0.5769010000000 1.0
C      1  0.4849550000000  0.5140020000000  0.4249650000000 1.0
C      1  0.5153660000000  0.4843550000000  0.4212940000000 1.0
C      1  0.5144570000000  0.5149360000000  0.5794450000000 1.0
C      1  0.4853170000000  0.4835160000000  0.4235960000000 1.0
C      1  0.4843670000000  0.5154180000000  0.5763420000000 1.0
C      1  0.4671450000000  0.4947690000000  0.4961640000000 1.0
END
