TITL C-2441168-9922-896 0.0181031336573541 125000 -7723.06002924492 0 0 55 (C1) n - 1
REM
REM in /home/bkarasulu/work/CARBON/AIRSS/Generating-Clusters/ReaxFF-fromJPCA2015/Units_Real/with-SteepDescent/Higher-Symm
REM
REM
REM
REM
REM
REM ./C.cell (1df0a924f5614ab8850e4351716899ee)
REM
REM compiler GCC version 9.2.1 20190827 (Red Hat 9.2.1-1)
REM options -cpp -mtune=generic -march=x86-64 -g -O0 -fpre-include=/usr/include/finclude/math-vector-fortran.h
REM seed -1717130980 636770971 1407975236 -919732786 -1818500920 1895531266 904574500 1765804362 -262072461 1123339110 622609755 135273239 757646491 1362245004 320439318 -237080518 -89176881 -1614053872 1592294369 1314047465 -736348710 -765349279 581376560 -190462934 1062111683 419964179 -1209354705 -523927175 1869783922 1920156566 -399490064 -1759874951 -1543180822
REM
CELL 1.54180   50.00000   50.00000   50.00000   90.00000   90.00000   90.00000
LATT -1
SFAC C  
C      1  0.4587960000000  0.4833820000000  0.4535950000000 1.0
C      1  0.5027320000000  0.4554690000000  0.4530570000000 1.0
C      1  0.5432080000000  0.4893510000000  0.4535290000000 1.0
C      1  0.5235670000000  0.5372230000000  0.4537080000000 1.0
C      1  0.4718510000000  0.5337480000000  0.4535250000000 1.0
C      1  0.4528300000000  0.4643050000000  0.5408810000000 1.0
C      1  0.5231820000000  0.4531610000000  0.5327700000000 1.0
C      1  0.5593950000000  0.5007670000000  0.5411850000000 1.0
C      1  0.5086150000000  0.5501630000000  0.5333440000000 1.0
C      1  0.4555180000000  0.5244520000000  0.5327710000000 1.0
C      1  0.4826970000000  0.5168550000000  0.4757660000000 1.0
C      1  0.4787940000000  0.4889660000000  0.4750760000000 1.0
C      1  0.5039650000000  0.4761410000000  0.4747870000000 1.0
C      1  0.5238350000000  0.4960940000000  0.4753340000000 1.0
C      1  0.5106490000000  0.5212450000000  0.4755930000000 1.0
C      1  0.4663820000000  0.4508850000000  0.4895150000000 1.0
C      1  0.5384090000000  0.4506010000000  0.4883360000000 1.0
C      1  0.5554850000000  0.5199920000000  0.4904170000000 1.0
C      1  0.4980180000000  0.5627870000000  0.4881710000000 1.0
C      1  0.4397500000000  0.5174360000000  0.4891240000000 1.0
C      1  0.4876540000000  0.5588010000000  0.5148890000000 1.0
C      1  0.4400700000000  0.5071600000000  0.5158520000000 1.0
C      1  0.4823540000000  0.4558320000000  0.5129200000000 1.0
C      1  0.5450580000000  0.4596300000000  0.5146000000000 1.0
C      1  0.5415520000000  0.5248890000000  0.5145990000000 1.0
C      1  0.5640120000000  0.4830520000000  0.5183140000000 1.0
C      1  0.5327870000000  0.5522370000000  0.5167700000000 1.0
C      1  0.4604260000000  0.5480530000000  0.5166990000000 1.0
C      1  0.4387660000000  0.4769260000000  0.5186560000000 1.0
C      1  0.5048120000000  0.4374350000000  0.5160610000000 1.0
C      1  0.4819350000000  0.4790060000000  0.5339240000000 1.0
C      1  0.5109290000000  0.4784160000000  0.5391890000000 1.0
C      1  0.5255690000000  0.5042400000000  0.5378180000000 1.0
C      1  0.5042010000000  0.5233480000000  0.5424650000000 1.0
C      1  0.4781750000000  0.5102330000000  0.5437780000000 1.0
C      1  0.5227850000000  0.4890850000000  0.5818420000000 1.0
C      1  0.5174180000000  0.5202930000000  0.5840710000000 1.0
C      1  0.4892490000000  0.5250530000000  0.5872280000000 1.0
C      1  0.4760450000000  0.4984240000000  0.5756290000000 1.0
C      1  0.4975990000000  0.4753670000000  0.5811060000000 1.0
C      1  0.4384620000000  0.4924630000000  0.4727230000000 1.0
C      1  0.4878500000000  0.4387720000000  0.4720830000000 1.0
C      1  0.5547010000000  0.4698860000000  0.4722260000000 1.0
C      1  0.5454130000000  0.5425780000000  0.4724780000000 1.0
C      1  0.4737580000000  0.5565030000000  0.4719790000000 1.0
C      1  0.5001570000000  0.4751010000000  0.4311100000000 1.0
C      1  0.5239380000000  0.4923440000000  0.4312630000000 1.0
C      1  0.5146480000000  0.5201040000000  0.4312930000000 1.0
C      1  0.4853020000000  0.5199050000000  0.4311910000000 1.0
C      1  0.4762430000000  0.4920240000000  0.4312880000000 1.0
C      1  0.5128930000000  0.4345010000000  0.4881290000000 1.0
C      1  0.5652310000000  0.4917340000000  0.4896650000000 1.0
C      1  0.5278450000000  0.5603740000000  0.4887150000000 1.0
C      1  0.4519090000000  0.5446750000000  0.4890760000000 1.0
C      1  0.4425760000000  0.4685330000000  0.4898850000000 1.0
END
