TITL C-2441163-1170-621 0.0392909144538553 125000 -26567.959196014 0 0 182 (C1) n - 1
REM
REM in /home/bkarasulu/work/CARBON/AIRSS/Generating-Clusters/ReaxFF-fromJPCA2015/Units_Real/with-SteepDescent/Higher-Symm
REM
REM
REM
REM
REM
REM ./C.cell (1df0a924f5614ab8850e4351716899ee)
REM
REM compiler GCC version 9.2.1 20190827 (Red Hat 9.2.1-1)
REM options -cpp -mtune=generic -march=x86-64 -g -O0 -fpre-include=/usr/include/finclude/math-vector-fortran.h
REM seed -1200470510 -440427415 1806836347 88214288 169181136 326252040 -1996596616 591101006 1711987867 -757566329 1287554612 711386057 1487116827 -1904816603 -1906027239 -1951140940 1142095989 639423957 1718485974 1550246382 -730859374 1681043857 117985364 1451020471 -1012516158 -1009175900 -1929944649 -1715222059 568249210 -686085543 1882850073 864918891 2076885991
REM
CELL 1.54180   50.00000   50.00000   50.00000   90.00000   90.00000   90.00000
LATT -1
SFAC C  
C      1  0.4595540000000  0.5127910000000  0.4471010000000 1.0
C      1  0.4918360000000  0.5224120000000  0.4376960000000 1.0
C      1  0.5204380000000  0.5139800000000  0.4427130000000 1.0
C      1  0.5560140000000  0.5149310000000  0.4715840000000 1.0
C      1  0.5656060000000  0.5053780000000  0.4964680000000 1.0
C      1  0.5554790000000  0.5198030000000  0.5397310000000 1.0
C      1  0.5217500000000  0.5077390000000  0.5669730000000 1.0
C      1  0.4944670000000  0.5120870000000  0.5596760000000 1.0
C      1  0.4463830000000  0.5087430000000  0.5466060000000 1.0
C      1  0.4452670000000  0.5123060000000  0.5184010000000 1.0
C      1  0.4439310000000  0.5234720000000  0.4669910000000 1.0
C      1  0.4576320000000  0.5377310000000  0.5103390000000 1.0
C      1  0.4557730000000  0.5422810000000  0.4827100000000 1.0
C      1  0.4727800000000  0.5590220000000  0.4684550000000 1.0
C      1  0.4945340000000  0.5472330000000  0.4540840000000 1.0
C      1  0.5214180000000  0.5559230000000  0.4604960000000 1.0
C      1  0.5396640000000  0.5416040000000  0.4770860000000 1.0
C      1  0.5471530000000  0.5546710000000  0.5010170000000 1.0
C      1  0.5412190000000  0.5420920000000  0.5268920000000 1.0
C      1  0.5185260000000  0.5546870000000  0.5408860000000 1.0
C      1  0.4936620000000  0.5402780000000  0.5433850000000 1.0
C      1  0.4712140000000  0.5531130000000  0.5309470000000 1.0
C      1  0.4507570000000  0.4950780000000  0.4043750000000 1.0
C      1  0.5072620000000  0.4961960000000  0.3966150000000 1.0
C      1  0.5609260000000  0.4972820000000  0.4186850000000 1.0
C      1  0.6033920000000  0.4967730000000  0.4594960000000 1.0
C      1  0.6043320000000  0.4959130000000  0.5229630000000 1.0
C      1  0.5781930000000  0.4962310000000  0.5782360000000 1.0
C      1  0.5263160000000  0.4962510000000  0.6112220000000 1.0
C      1  0.4630190000000  0.4974540000000  0.6006710000000 1.0
C      1  0.4078460000000  0.4960730000000  0.5703810000000 1.0
C      1  0.3991790000000  0.4965110000000  0.5061990000000 1.0
C      1  0.4053980000000  0.4958040000000  0.4476080000000 1.0
C      1  0.4964410000000  0.5216510000000  0.4065780000000 1.0
C      1  0.5442800000000  0.5207690000000  0.4262650000000 1.0
C      1  0.5845820000000  0.5196580000000  0.4600120000000 1.0
C      1  0.5880410000000  0.5174150000000  0.5104680000000 1.0
C      1  0.5722450000000  0.5213720000000  0.5622430000000 1.0
C      1  0.5288640000000  0.5199700000000  0.5920670000000 1.0
C      1  0.4774230000000  0.5181800000000  0.5863230000000 1.0
C      1  0.4258820000000  0.5196050000000  0.5639490000000 1.0
C      1  0.4154680000000  0.5195210000000  0.5125320000000 1.0
C      1  0.4159430000000  0.5205120000000  0.4603710000000 1.0
C      1  0.4480850000000  0.5197220000000  0.4200050000000 1.0
C      1  0.6109340000000  0.4839380000000  0.4830980000000 1.0
C      1  0.5841200000000  0.4835880000000  0.5394220000000 1.0
C      1  0.5525700000000  0.4821820000000  0.5798260000000 1.0
C      1  0.5018580000000  0.4842170000000  0.6127390000000 1.0
C      1  0.4497360000000  0.4812680000000  0.5803030000000 1.0
C      1  0.3994530000000  0.4844980000000  0.5469410000000 1.0
C      1  0.4148490000000  0.4811770000000  0.4862740000000 1.0
C      1  0.4275360000000  0.4811840000000  0.4362350000000 1.0
C      1  0.4739730000000  0.4800260000000  0.4150230000000 1.0
C      1  0.5228810000000  0.4812980000000  0.4168640000000 1.0
C      1  0.5647790000000  0.4833680000000  0.4443700000000 1.0
C      1  0.4935640000000  0.5886110000000  0.5808090000000 1.0
C      1  0.4520290000000  0.5861440000000  0.5647970000000 1.0
C      1  0.4208780000000  0.5897250000000  0.5280030000000 1.0
C      1  0.4260790000000  0.5861350000000  0.4740310000000 1.0
C      1  0.4296070000000  0.5891270000000  0.4432670000000 1.0
C      1  0.4812880000000  0.5880920000000  0.4259630000000 1.0
C      1  0.5327640000000  0.5874160000000  0.4218470000000 1.0
C      1  0.5672100000000  0.5869550000000  0.4605440000000 1.0
C      1  0.5787370000000  0.5854180000000  0.4870480000000 1.0
C      1  0.5715000000000  0.5890160000000  0.5374210000000 1.0
C      1  0.5403310000000  0.5891990000000  0.5703080000000 1.0
C      1  0.5348720000000  0.4844970000000  0.5571780000000 1.0
C      1  0.4886030000000  0.4855740000000  0.5460950000000 1.0
C      1  0.4605510000000  0.4852560000000  0.5536130000000 1.0
C      1  0.4599600000000  0.4819100000000  0.5071060000000 1.0
C      1  0.4434460000000  0.4795640000000  0.4834990000000 1.0
C      1  0.4533920000000  0.4841250000000  0.4545370000000 1.0
C      1  0.4792990000000  0.4747750000000  0.4438820000000 1.0
C      1  0.5189600000000  0.4852030000000  0.4467030000000 1.0
C      1  0.5432230000000  0.4866780000000  0.4637420000000 1.0
C      1  0.5458720000000  0.4868770000000  0.5049820000000 1.0
C      1  0.5522280000000  0.4915290000000  0.5337870000000 1.0
C      1  0.4242800000000  0.4073040000000  0.4884740000000 1.0
C      1  0.4290540000000  0.4053840000000  0.4410110000000 1.0
C      1  0.4756940000000  0.4092210000000  0.4301010000000 1.0
C      1  0.5209220000000  0.4055820000000  0.4147260000000 1.0
C      1  0.5541220000000  0.4075800000000  0.4494780000000 1.0
C      1  0.5844740000000  0.4059910000000  0.4858920000000 1.0
C      1  0.5621520000000  0.4116640000000  0.5320430000000 1.0
C      1  0.5523510000000  0.4081780000000  0.5636340000000 1.0
C      1  0.5028940000000  0.4125340000000  0.5701840000000 1.0
C      1  0.4622960000000  0.4091540000000  0.5747440000000 1.0
C      1  0.4336120000000  0.4087800000000  0.5357710000000 1.0
C      1  0.5817860000000  0.4352970000000  0.5335010000000 1.0
C      1  0.5557480000000  0.4331990000000  0.5771390000000 1.0
C      1  0.5046250000000  0.4353220000000  0.5882170000000 1.0
C      1  0.4532950000000  0.4354380000000  0.5830620000000 1.0
C      1  0.4198970000000  0.4340920000000  0.5420880000000 1.0
C      1  0.4100400000000  0.4326490000000  0.4899240000000 1.0
C      1  0.4243810000000  0.4342220000000  0.4394800000000 1.0
C      1  0.4705720000000  0.4326870000000  0.4149800000000 1.0
C      1  0.5228240000000  0.4329890000000  0.4058370000000 1.0
C      1  0.5642720000000  0.4318040000000  0.4384370000000 1.0
C      1  0.5935710000000  0.4333220000000  0.4826240000000 1.0
C      1  0.4075980000000  0.4444620000000  0.5175390000000 1.0
C      1  0.4090910000000  0.4448440000000  0.4630030000000 1.0
C      1  0.4427480000000  0.4451250000000  0.4193490000000 1.0
C      1  0.4952890000000  0.4443150000000  0.4022450000000 1.0
C      1  0.5483290000000  0.4443960000000  0.4160560000000 1.0
C      1  0.5850910000000  0.4440460000000  0.4558350000000 1.0
C      1  0.5954190000000  0.4452360000000  0.5096360000000 1.0
C      1  0.5775330000000  0.4455230000000  0.5603730000000 1.0
C      1  0.5325720000000  0.4450630000000  0.5919140000000 1.0
C      1  0.4781780000000  0.4468140000000  0.5945070000000 1.0
C      1  0.4293460000000  0.4456850000000  0.5680770000000 1.0
C      1  0.4495580000000  0.5962690000000  0.4879620000000 1.0
C      1  0.4769080000000  0.5869710000000  0.4759860000000 1.0
C      1  0.4925730000000  0.5960390000000  0.4510770000000 1.0
C      1  0.5220270000000  0.5858520000000  0.4538160000000 1.0
C      1  0.5420980000000  0.5960240000000  0.4717060000000 1.0
C      1  0.5486720000000  0.5851980000000  0.4985090000000 1.0
C      1  0.5447950000000  0.5964320000000  0.5282680000000 1.0
C      1  0.5209790000000  0.5863150000000  0.5446570000000 1.0
C      1  0.4915430000000  0.5957580000000  0.5524840000000 1.0
C      1  0.4679670000000  0.5838270000000  0.5364780000000 1.0
C      1  0.4470680000000  0.5971820000000  0.5161910000000 1.0
C      1  0.5487010000000  0.5633280000000  0.5801400000000 1.0
C      1  0.4978740000000  0.5606140000000  0.5920550000000 1.0
C      1  0.4472830000000  0.5600070000000  0.5760350000000 1.0
C      1  0.4145110000000  0.5612690000000  0.5350190000000 1.0
C      1  0.4113630000000  0.5620690000000  0.4824360000000 1.0
C      1  0.4287280000000  0.5615030000000  0.4338570000000 1.0
C      1  0.4755960000000  0.5624420000000  0.4105770000000 1.0
C      1  0.5286820000000  0.5622140000000  0.4100610000000 1.0
C      1  0.5705940000000  0.5623160000000  0.4445110000000 1.0
C      1  0.5926490000000  0.5603170000000  0.4897210000000 1.0
C      1  0.5830140000000  0.5610620000000  0.5405480000000 1.0
C      1  0.4852360000000  0.4505180000000  0.4573480000000 1.0
C      1  0.5093680000000  0.4364620000000  0.4503760000000 1.0
C      1  0.5275870000000  0.4390670000000  0.4687080000000 1.0
C      1  0.5456500000000  0.4391650000000  0.4853310000000 1.0
C      1  0.5418440000000  0.4580780000000  0.5079240000000 1.0
C      1  0.5261690000000  0.4467300000000  0.5289870000000 1.0
C      1  0.5039630000000  0.4605190000000  0.5448870000000 1.0
C      1  0.4798880000000  0.4447870000000  0.5404320000000 1.0
C      1  0.4601180000000  0.4550430000000  0.5224310000000 1.0
C      1  0.4545350000000  0.4345480000000  0.5030590000000 1.0
C      1  0.4770510000000  0.4324720000000  0.4825690000000 1.0
C      1  0.3952410000000  0.4713710000000  0.5231350000000 1.0
C      1  0.3976200000000  0.4720700000000  0.4637880000000 1.0
C      1  0.4333360000000  0.4712510000000  0.4097290000000 1.0
C      1  0.4904620000000  0.4714690000000  0.3926950000000 1.0
C      1  0.5489320000000  0.4723090000000  0.4072890000000 1.0
C      1  0.5913190000000  0.4711550000000  0.4477960000000 1.0
C      1  0.6113780000000  0.4707600000000  0.5073930000000 1.0
C      1  0.5899440000000  0.4721620000000  0.5650880000000 1.0
C      1  0.5408740000000  0.4705100000000  0.6040560000000 1.0
C      1  0.4773600000000  0.4721760000000  0.6103780000000 1.0
C      1  0.4221310000000  0.4712370000000  0.5804530000000 1.0
C      1  0.4109670000000  0.5492890000000  0.4563800000000 1.0
C      1  0.4497840000000  0.5485230000000  0.4165210000000 1.0
C      1  0.5004750000000  0.5496880000000  0.4026820000000 1.0
C      1  0.5519240000000  0.5492380000000  0.4252100000000 1.0
C      1  0.5891870000000  0.5478130000000  0.4620040000000 1.0
C      1  0.5911380000000  0.5464240000000  0.5152730000000 1.0
C      1  0.5725830000000  0.5502770000000  0.5653740000000 1.0
C      1  0.5250260000000  0.5487290000000  0.5928040000000 1.0
C      1  0.4726780000000  0.5461910000000  0.5890820000000 1.0
C      1  0.4243380000000  0.5483000000000  0.5605010000000 1.0
C      1  0.4097050000000  0.5477780000000  0.5091470000000 1.0
C      1  0.5311380000000  0.4182790000000  0.5310090000000 1.0
C      1  0.5261570000000  0.4058510000000  0.5559560000000 1.0
C      1  0.4801730000000  0.4132590000000  0.5498190000000 1.0
C      1  0.4548270000000  0.4000300000000  0.5509200000000 1.0
C      1  0.4415910000000  0.4104660000000  0.5091280000000 1.0
C      1  0.4348910000000  0.3942820000000  0.4653160000000 1.0
C      1  0.4550640000000  0.3949120000000  0.4438680000000 1.0
C      1  0.5050600000000  0.4052630000000  0.4406050000000 1.0
C      1  0.5325300000000  0.3960000000000  0.4370030000000 1.0
C      1  0.5542130000000  0.4070770000000  0.4801130000000 1.0
C      1  0.5667640000000  0.3972130000000  0.5060370000000 1.0
C      1  0.4918270000000  0.4795900000000  0.4978850000000 1.0
C      1  0.5018010000000  0.5049480000000  0.4977270000000 1.0
C      1  0.4990950000000  0.5818410000000  0.5002420000000 1.0
C      1  0.5038090000000  0.5546460000000  0.5005470000000 1.0
C      1  0.5038850000000  0.5284920000000  0.4990660000000 1.0
C      1  0.4935740000000  0.4135550000000  0.4915130000000 1.0
END
