TITL C-2441166-8118-9 0.00386960759183236 125000 -9013.10350560244 0 0 63 (C1) n - 1
REM
REM in /home/bkarasulu/work/CARBON/AIRSS/Generating-Clusters/ReaxFF-fromJPCA2015/Units_Real/with-SteepDescent/Higher-Symm
REM
REM
REM
REM
REM
REM ./C.cell (1df0a924f5614ab8850e4351716899ee)
REM
REM compiler GCC version 9.2.1 20190827 (Red Hat 9.2.1-1)
REM options -cpp -mtune=generic -march=x86-64 -g -O0 -fpre-include=/usr/include/finclude/math-vector-fortran.h
REM seed 633274364 841515639 -83552705 1183752856 -2106824644 -1416891343 2087461120 1276164768 664757533 283967585 -1630663338 1869079150 309240798 1400102773 496040721 -2134014233 -865674135 1299114681 -1356282033 1211915006 -490654304 331877080 -599429541 -1062829768 2013700536 -896066969 -2071318353 -125937415 -1771158541 533488964 1440094871 -81836654 -1955776382
REM
CELL 1.54180   50.00000   50.00000   50.00000   90.00000   90.00000   90.00000
LATT -1
SFAC C  
C      1  0.5491830000000  0.4521870000000  0.4830650000000 1.0
C      1  0.4479160000000  0.4536690000000  0.4808480000000 1.0
C      1  0.4840700000000  0.4336080000000  0.5063500000000 1.0
C      1  0.5131590000000  0.4322610000000  0.5065830000000 1.0
C      1  0.4732330000000  0.4605270000000  0.5536340000000 1.0
C      1  0.5274480000000  0.4596430000000  0.5526750000000 1.0
C      1  0.5274840000000  0.4317890000000  0.4813030000000 1.0
C      1  0.4692440000000  0.4334340000000  0.4808220000000 1.0
C      1  0.5293770000000  0.4722930000000  0.4931530000000 1.0
C      1  0.4687910000000  0.4729540000000  0.4907910000000 1.0
C      1  0.5233150000000  0.5505540000000  0.4497930000000 1.0
C      1  0.4720920000000  0.5506640000000  0.4516320000000 1.0
C      1  0.4858920000000  0.4859970000000  0.5602550000000 1.0
C      1  0.5156620000000  0.4854090000000  0.5593200000000 1.0
C      1  0.4851660000000  0.5326860000000  0.5507620000000 1.0
C      1  0.5167900000000  0.5322520000000  0.5530220000000 1.0
C      1  0.4791380000000  0.5592700000000  0.5367430000000 1.0
C      1  0.5262470000000  0.5590850000000  0.5427530000000 1.0
C      1  0.5270780000000  0.4394060000000  0.5313400000000 1.0
C      1  0.4718680000000  0.4407940000000  0.5317640000000 1.0
C      1  0.4432420000000  0.5127880000000  0.5443620000000 1.0
C      1  0.5579920000000  0.5140710000000  0.5414200000000 1.0
C      1  0.4616930000000  0.5265610000000  0.4431040000000 1.0
C      1  0.5430110000000  0.5285500000000  0.4479790000000 1.0
C      1  0.5154840000000  0.4551810000000  0.4360210000000 1.0
C      1  0.4863570000000  0.4584350000000  0.4365680000000 1.0
C      1  0.4865790000000  0.5125990000000  0.4351440000000 1.0
C      1  0.5137370000000  0.5251660000000  0.4375330000000 1.0
C      1  0.5167550000000  0.4891110000000  0.4719730000000 1.0
C      1  0.4860900000000  0.4887790000000  0.4715850000000 1.0
C      1  0.5537140000000  0.5189100000000  0.4742300000000 1.0
C      1  0.4446130000000  0.5102550000000  0.4705490000000 1.0
C      1  0.4847670000000  0.5121500000000  0.5219690000000 1.0
C      1  0.5138510000000  0.5112830000000  0.5217490000000 1.0
C      1  0.5207580000000  0.5611850000000  0.5009810000000 1.0
C      1  0.4683990000000  0.5567040000000  0.4922660000000 1.0
C      1  0.5336290000000  0.5088730000000  0.5580120000000 1.0
C      1  0.4687350000000  0.5098150000000  0.5596310000000 1.0
C      1  0.5131190000000  0.5298830000000  0.4990140000000 1.0
C      1  0.4836040000000  0.5295620000000  0.4965750000000 1.0
C      1  0.4315490000000  0.5238110000000  0.4951640000000 1.0
C      1  0.5681020000000  0.5191690000000  0.5002990000000 1.0
C      1  0.4407570000000  0.4888760000000  0.5297180000000 1.0
C      1  0.5614940000000  0.4961780000000  0.5186030000000 1.0
C      1  0.4469770000000  0.4793130000000  0.4674580000000 1.0
C      1  0.5528820000000  0.4675700000000  0.4600240000000 1.0
C      1  0.5261190000000  0.5140050000000  0.4810640000000 1.0
C      1  0.4734490000000  0.5122240000000  0.4780570000000 1.0
C      1  0.4836530000000  0.5692320000000  0.4699740000000 1.0
C      1  0.5128390000000  0.5661930000000  0.4722170000000 1.0
C      1  0.5312890000000  0.4780280000000  0.4460350000000 1.0
C      1  0.4762710000000  0.4852280000000  0.4436200000000 1.0
C      1  0.5137020000000  0.4352460000000  0.5554250000000 1.0
C      1  0.4858960000000  0.4357050000000  0.5555520000000 1.0
C      1  0.4840730000000  0.4349320000000  0.4553490000000 1.0
C      1  0.5133740000000  0.4322170000000  0.4556340000000 1.0
C      1  0.5635060000000  0.5375970000000  0.5229560000000 1.0
C      1  0.4387400000000  0.5340380000000  0.5205530000000 1.0
C      1  0.5329310000000  0.4889900000000  0.5160200000000 1.0
C      1  0.4652960000000  0.4885860000000  0.5176820000000 1.0
C      1  0.4565590000000  0.5584620000000  0.5184710000000 1.0
C      1  0.5447230000000  0.5600580000000  0.5204320000000 1.0
C      1  0.5043510000000  0.5698780000000  0.5274500000000 1.0
END
