TITL C-2441161-5029-243 0.0781713253806954 125000 -7597.51290578356 0 0 67 (C1) n - 1
REM
REM in /home/bkarasulu/work/CARBON/AIRSS/Generating-Clusters/ReaxFF-fromJPCA2015/Units_Real/with-SteepDescent/Higher-Symm
REM
REM
REM
REM
REM
REM ./C.cell (1df0a924f5614ab8850e4351716899ee)
REM
REM compiler GCC version 9.2.1 20190827 (Red Hat 9.2.1-1)
REM options -cpp -mtune=generic -march=x86-64 -g -O0 -fpre-include=/usr/include/finclude/math-vector-fortran.h
REM seed -816053494 -1952724201 1403972092 2032093716 291087002 560002498 1403036063 -2136628079 2147337743 422540542 1503890734 153086007 1499881465 422884836 -2031207177 -1498249020 -275307102 -434714343 996760893 -1578271252 68258585 -1846693870 -315831241 580832739 790550277 4087080 1358320563 -814532253 1946407624 1356229047 -423888500 -2038237806 1617829243
REM
CELL 1.54180   50.00000   50.00000   50.00000   90.00000   90.00000   90.00000
LATT -1
SFAC C  
C      1  0.5182480000000  0.4501610000000  0.5343030000000 1.0
C      1  0.4814450000000  0.4494770000000  0.5348340000000 1.0
C      1  0.5163470000000  0.4239570000000  0.5010110000000 1.0
C      1  0.4844000000000  0.4245920000000  0.5010320000000 1.0
C      1  0.5290330000000  0.5455120000000  0.4582750000000 1.0
C      1  0.4710280000000  0.5450670000000  0.4594300000000 1.0
C      1  0.5154050000000  0.5089000000000  0.4912100000000 1.0
C      1  0.4854410000000  0.4997180000000  0.4878780000000 1.0
C      1  0.5434370000000  0.5572370000000  0.4835430000000 1.0
C      1  0.4556490000000  0.5592810000000  0.4836330000000 1.0
C      1  0.5438270000000  0.5027790000000  0.4773980000000 1.0
C      1  0.4571400000000  0.5033170000000  0.4766820000000 1.0
C      1  0.5505080000000  0.5078850000000  0.4459870000000 1.0
C      1  0.4497410000000  0.5077950000000  0.4461310000000 1.0
C      1  0.4867620000000  0.4421710000000  0.4795200000000 1.0
C      1  0.5123570000000  0.4412150000000  0.4790460000000 1.0
C      1  0.5143710000000  0.4721110000000  0.5140630000000 1.0
C      1  0.4863240000000  0.4737150000000  0.5180530000000 1.0
C      1  0.5527370000000  0.4798380000000  0.4441610000000 1.0
C      1  0.4478910000000  0.4800160000000  0.4437460000000 1.0
C      1  0.4730570000000  0.4772110000000  0.5686410000000 1.0
C      1  0.5271870000000  0.4774550000000  0.5684420000000 1.0
C      1  0.4849120000000  0.5246960000000  0.5689000000000 1.0
C      1  0.5145880000000  0.5252330000000  0.5681410000000 1.0
C      1  0.5268660000000  0.4991720000000  0.5303080000000 1.0
C      1  0.4737290000000  0.5000100000000  0.5305950000000 1.0
C      1  0.4870860000000  0.4936540000000  0.4470540000000 1.0
C      1  0.5126050000000  0.4936070000000  0.4479230000000 1.0
C      1  0.4889060000000  0.5652970000000  0.4453470000000 1.0
C      1  0.5112590000000  0.5659810000000  0.4446490000000 1.0
C      1  0.4653270000000  0.5557960000000  0.5270450000000 1.0
C      1  0.5333600000000  0.5538220000000  0.5270650000000 1.0
C      1  0.4586540000000  0.4622270000000  0.5469950000000 1.0
C      1  0.5412920000000  0.4615300000000  0.5471390000000 1.0
C      1  0.4789150000000  0.5600630000000  0.5011470000000 1.0
C      1  0.5210220000000  0.5606950000000  0.5014410000000 1.0
C      1  0.4638360000000  0.4576410000000  0.4492160000000 1.0
C      1  0.5364140000000  0.4579530000000  0.4504640000000 1.0
C      1  0.5283680000000  0.4638330000000  0.4797040000000 1.0
C      1  0.4711620000000  0.4651250000000  0.4774060000000 1.0
C      1  0.5712910000000  0.5119090000000  0.4819580000000 1.0
C      1  0.4295970000000  0.5113170000000  0.4829960000000 1.0
C      1  0.4881370000000  0.5235610000000  0.5263660000000 1.0
C      1  0.5130270000000  0.5204580000000  0.5210020000000 1.0
C      1  0.4490570000000  0.4618510000000  0.4975590000000 1.0
C      1  0.5518530000000  0.4614710000000  0.4974520000000 1.0
C      1  0.5108950000000  0.5361670000000  0.4849970000000 1.0
C      1  0.4858520000000  0.5343610000000  0.4854510000000 1.0
C      1  0.4451840000000  0.5037000000000  0.5208710000000 1.0
C      1  0.5548780000000  0.5035060000000  0.5215040000000 1.0
C      1  0.5396750000000  0.4383460000000  0.5102580000000 1.0
C      1  0.4608620000000  0.4389530000000  0.5103900000000 1.0
C      1  0.5546990000000  0.5327770000000  0.5245990000000 1.0
C      1  0.4459590000000  0.5333560000000  0.5243840000000 1.0
C      1  0.5156110000000  0.5479420000000  0.5487970000000 1.0
C      1  0.4849690000000  0.5472950000000  0.5480890000000 1.0
C      1  0.5340340000000  0.5049370000000  0.5619970000000 1.0
C      1  0.4657470000000  0.5047880000000  0.5625550000000 1.0
C      1  0.4399200000000  0.5386080000000  0.4970340000000 1.0
C      1  0.5604180000000  0.5381120000000  0.4972260000000 1.0
C      1  0.4754610000000  0.5197120000000  0.4425190000000 1.0
C      1  0.5243380000000  0.5194340000000  0.4430280000000 1.0
C      1  0.5149640000000  0.4678620000000  0.4325150000000 1.0
C      1  0.4854930000000  0.4677130000000  0.4317970000000 1.0
C      1  0.4431540000000  0.4739300000000  0.5243010000000 1.0
C      1  0.5569020000000  0.4734850000000  0.5244060000000 1.0
C      1  0.5000670000000  0.4830600000000  0.5616320000000 1.0
END
