TITL C-2441163-1170-324 0.0514161444854526 125000 -24019.7159986109 0 0 168 (C1) n - 1
REM
REM in /home/bkarasulu/work/CARBON/AIRSS/Generating-Clusters/ReaxFF-fromJPCA2015/Units_Real/with-SteepDescent/Higher-Symm
REM
REM
REM
REM
REM
REM ./C.cell (1df0a924f5614ab8850e4351716899ee)
REM
REM compiler GCC version 9.2.1 20190827 (Red Hat 9.2.1-1)
REM options -cpp -mtune=generic -march=x86-64 -g -O0 -fpre-include=/usr/include/finclude/math-vector-fortran.h
REM seed 835446781 868513493 1683695315 1160834115 809887113 -2043666634 -534080585 1375651573 35182566 -1017538605 -728730436 -2134987059 825095849 -1669779881 -2043223770 -1418832668 -821705192 -1393728253 11946895 210726714 -1751540217 -190868670 1537145136 1410151727 1358048133 -2072490558 1745979092 -775803856 -1986938123 801541190 1600355128 -76113380 678106067
REM
CELL 1.54180   50.00000   50.00000   50.00000   90.00000   90.00000   90.00000
LATT -1
SFAC C  
C      1  0.4601800000000  0.5421970000000  0.4119510000000 1.0
C      1  0.5981660000000  0.5386660000000  0.5072220000000 1.0
C      1  0.4441410000000  0.5431750000000  0.5779680000000 1.0
C      1  0.5645660000000  0.5292370000000  0.4291750000000 1.0
C      1  0.5295280000000  0.5263530000000  0.5962200000000 1.0
C      1  0.4012590000000  0.5260310000000  0.4730210000000 1.0
C      1  0.4645770000000  0.4464770000000  0.5883410000000 1.0
C      1  0.4418150000000  0.4451830000000  0.4238760000000 1.0
C      1  0.5939850000000  0.4485730000000  0.4873020000000 1.0
C      1  0.5281740000000  0.5344950000000  0.3952500000000 1.0
C      1  0.5694810000000  0.5321220000000  0.5786940000000 1.0
C      1  0.3964300000000  0.5336130000000  0.5305690000000 1.0
C      1  0.4764600000000  0.5481440000000  0.5439660000000 1.0
C      1  0.4698890000000  0.5368350000000  0.4559120000000 1.0
C      1  0.5477040000000  0.5535490000000  0.4976700000000 1.0
C      1  0.4922980000000  0.5643890000000  0.5253310000000 1.0
C      1  0.4907670000000  0.5559430000000  0.4977080000000 1.0
C      1  0.5194360000000  0.5609310000000  0.4897840000000 1.0
C      1  0.4507710000000  0.5059650000000  0.5131950000000 1.0
C      1  0.5116240000000  0.4964090000000  0.4425020000000 1.0
C      1  0.5464610000000  0.4948600000000  0.5364440000000 1.0
C      1  0.4351240000000  0.4448020000000  0.4948680000000 1.0
C      1  0.5361040000000  0.4461180000000  0.4466820000000 1.0
C      1  0.5279260000000  0.4462520000000  0.5587150000000 1.0
C      1  0.4485050000000  0.5522390000000  0.5325640000000 1.0
C      1  0.4931000000000  0.5461250000000  0.4432040000000 1.0
C      1  0.5587230000000  0.5435080000000  0.5246610000000 1.0
C      1  0.4712990000000  0.4900600000000  0.4061170000000 1.0
C      1  0.5903140000000  0.4883280000000  0.5250810000000 1.0
C      1  0.4362010000000  0.4906710000000  0.5701240000000 1.0
C      1  0.4444700000000  0.4846010000000  0.3990250000000 1.0
C      1  0.6215220000000  0.4925880000000  0.4988010000000 1.0
C      1  0.4433870000000  0.4857220000000  0.5975370000000 1.0
C      1  0.4187900000000  0.4827820000000  0.4546860000000 1.0
C      1  0.5831840000000  0.4874100000000  0.4451290000000 1.0
C      1  0.5052820000000  0.4864540000000  0.5979950000000 1.0
C      1  0.4289490000000  0.5214120000000  0.5017020000000 1.0
C      1  0.5185320000000  0.5235420000000  0.4490330000000 1.0
C      1  0.5262070000000  0.5353230000000  0.5495470000000 1.0
C      1  0.5537800000000  0.5024550000000  0.4908980000000 1.0
C      1  0.4816680000000  0.5079450000000  0.5513010000000 1.0
C      1  0.4693330000000  0.5079320000000  0.4593360000000 1.0
C      1  0.5831280000000  0.5586630000000  0.5241840000000 1.0
C      1  0.4393120000000  0.5643740000000  0.5569150000000 1.0
C      1  0.4824050000000  0.5600740000000  0.4205390000000 1.0
C      1  0.4093300000000  0.5416310000000  0.5075760000000 1.0
C      1  0.5480460000000  0.5469920000000  0.4119900000000 1.0
C      1  0.5488140000000  0.5480250000000  0.5889570000000 1.0
C      1  0.5205100000000  0.4368160000000  0.4239210000000 1.0
C      1  0.5551350000000  0.4368010000000  0.5567310000000 1.0
C      1  0.4241850000000  0.4370030000000  0.5201950000000 1.0
C      1  0.4926180000000  0.5149660000000  0.5258450000000 1.0
C      1  0.4885470000000  0.5098950000000  0.4818040000000 1.0
C      1  0.5302980000000  0.5161430000000  0.4977390000000 1.0
C      1  0.3987360000000  0.4808690000000  0.5233720000000 1.0
C      1  0.5306720000000  0.4801640000000  0.3984790000000 1.0
C      1  0.5726200000000  0.4813360000000  0.5751270000000 1.0
C      1  0.5600510000000  0.4850170000000  0.5128560000000 1.0
C      1  0.4580430000000  0.4923830000000  0.5428500000000 1.0
C      1  0.4834670000000  0.4891780000000  0.4397320000000 1.0
C      1  0.4845900000000  0.4626080000000  0.4039430000000 1.0
C      1  0.5929650000000  0.4610370000000  0.5357170000000 1.0
C      1  0.4254590000000  0.4632770000000  0.5613770000000 1.0
C      1  0.4276230000000  0.4666190000000  0.4115630000000 1.0
C      1  0.6114750000000  0.4710630000000  0.4822120000000 1.0
C      1  0.4616690000000  0.4676150000000  0.6072550000000 1.0
C      1  0.4743550000000  0.4485090000000  0.5113570000000 1.0
C      1  0.4978070000000  0.4565460000000  0.4717780000000 1.0
C      1  0.5173070000000  0.4492890000000  0.5164510000000 1.0
C      1  0.6148890000000  0.4971910000000  0.4724660000000 1.0
C      1  0.4632490000000  0.4964180000000  0.6122480000000 1.0
C      1  0.4229790000000  0.4952320000000  0.4110090000000 1.0
C      1  0.5230820000000  0.5069660000000  0.3897090000000 1.0
C      1  0.5789100000000  0.5097930000000  0.5655220000000 1.0
C      1  0.3920600000000  0.5062510000000  0.5363010000000 1.0
C      1  0.4315610000000  0.5615080000000  0.5089980000000 1.0
C      1  0.5422280000000  0.5700110000000  0.4289760000000 1.0
C      1  0.5346790000000  0.5594590000000  0.5648420000000 1.0
C      1  0.5154040000000  0.4422410000000  0.5842170000000 1.0
C      1  0.4192580000000  0.4402120000000  0.4713080000000 1.0
C      1  0.5656830000000  0.4427500000000  0.4452370000000 1.0
C      1  0.5113550000000  0.3895350000000  0.5118660000000 1.0
C      1  0.4826390000000  0.3893740000000  0.5044480000000 1.0
C      1  0.5031480000000  0.3907860000000  0.4834550000000 1.0
C      1  0.5684260000000  0.5847610000000  0.5240390000000 1.0
C      1  0.4448030000000  0.5916120000000  0.5467470000000 1.0
C      1  0.4898770000000  0.5867980000000  0.4331900000000 1.0
C      1  0.4756320000000  0.4663780000000  0.4575140000000 1.0
C      1  0.5430200000000  0.4587830000000  0.5062340000000 1.0
C      1  0.4695690000000  0.4662950000000  0.5336140000000 1.0
C      1  0.4124740000000  0.4585110000000  0.5365390000000 1.0
C      1  0.5125130000000  0.4578590000000  0.4052000000000 1.0
C      1  0.5763090000000  0.4567600000000  0.5596030000000 1.0
C      1  0.4704130000000  0.5426150000000  0.5911120000000 1.0
C      1  0.4365570000000  0.5412820000000  0.4287150000000 1.0
C      1  0.5913980000000  0.5420590000000  0.4795240000000 1.0
C      1  0.4850200000000  0.5581050000000  0.5708770000000 1.0
C      1  0.4433370000000  0.5503360000000  0.4578690000000 1.0
C      1  0.5665070000000  0.5583940000000  0.4757980000000 1.0
C      1  0.5304420000000  0.4801620000000  0.5561640000000 1.0
C      1  0.4383340000000  0.4805850000000  0.4945230000000 1.0
C      1  0.5349300000000  0.4800910000000  0.4457000000000 1.0
C      1  0.4613510000000  0.4233810000000  0.4595800000000 1.0
C      1  0.5515500000000  0.4308260000000  0.4880040000000 1.0
C      1  0.4840020000000  0.4242460000000  0.5541340000000 1.0
C      1  0.5132100000000  0.4089500000000  0.4632530000000 1.0
C      1  0.5242400000000  0.4060610000000  0.5315660000000 1.0
C      1  0.4589350000000  0.4057310000000  0.5068650000000 1.0
C      1  0.5655160000000  0.4230120000000  0.5131670000000 1.0
C      1  0.4558910000000  0.4235450000000  0.5502110000000 1.0
C      1  0.4789320000000  0.4234060000000  0.4370960000000 1.0
C      1  0.4425430000000  0.4165860000000  0.5273810000000 1.0
C      1  0.5056070000000  0.4169560000000  0.4371820000000 1.0
C      1  0.5512850000000  0.4155790000000  0.5371670000000 1.0
C      1  0.5193380000000  0.5239790000000  0.5237820000000 1.0
C      1  0.4750370000000  0.5215540000000  0.5043200000000 1.0
C      1  0.5126630000000  0.5236390000000  0.4769540000000 1.0
C      1  0.5628110000000  0.5178830000000  0.5409770000000 1.0
C      1  0.4074390000000  0.5230890000000  0.5535580000000 1.0
C      1  0.5024720000000  0.5230360000000  0.3994240000000 1.0
C      1  0.5572940000000  0.4971370000000  0.4621810000000 1.0
C      1  0.5033470000000  0.4957110000000  0.5678320000000 1.0
C      1  0.4472650000000  0.4828110000000  0.4660500000000 1.0
C      1  0.4994730000000  0.4810980000000  0.4900680000000 1.0
C      1  0.5191470000000  0.4746980000000  0.5077980000000 1.0
C      1  0.4783160000000  0.4751910000000  0.5076340000000 1.0
C      1  0.5444180000000  0.5952760000000  0.5384940000000 1.0
C      1  0.4470990000000  0.6014950000000  0.5192720000000 1.0
C      1  0.5202290000000  0.5882640000000  0.4367570000000 1.0
C      1  0.4367540000000  0.4323400000000  0.4496000000000 1.0
C      1  0.5739860000000  0.4369840000000  0.4708580000000 1.0
C      1  0.4885160000000  0.4342690000000  0.5796930000000 1.0
C      1  0.4938330000000  0.5930560000000  0.5316300000000 1.0
C      1  0.4797090000000  0.5827740000000  0.4847840000000 1.0
C      1  0.5266930000000  0.5897140000000  0.4888570000000 1.0
C      1  0.4799710000000  0.5891260000000  0.4595310000000 1.0
C      1  0.5458790000000  0.5982790000000  0.5098640000000 1.0
C      1  0.4681460000000  0.6041010000000  0.5365780000000 1.0
C      1  0.4184490000000  0.5191610000000  0.4271310000000 1.0
C      1  0.6021180000000  0.5210320000000  0.4614970000000 1.0
C      1  0.4805140000000  0.5196430000000  0.6072150000000 1.0
C      1  0.5475410000000  0.5212720000000  0.4491580000000 1.0
C      1  0.5182540000000  0.5199890000000  0.5708560000000 1.0
C      1  0.4293990000000  0.5292960000000  0.4744810000000 1.0
C      1  0.4440110000000  0.4426130000000  0.5686340000000 1.0
C      1  0.4692360000000  0.4419680000000  0.4167680000000 1.0
C      1  0.5883590000000  0.4408730000000  0.5147090000000 1.0
C      1  0.4749170000000  0.5192400000000  0.4016010000000 1.0
C      1  0.6059610000000  0.5108850000000  0.5161650000000 1.0
C      1  0.4287220000000  0.5194320000000  0.5711830000000 1.0
C      1  0.4612190000000  0.4297270000000  0.4907290000000 1.0
C      1  0.5222820000000  0.4354660000000  0.4711180000000 1.0
C      1  0.5092780000000  0.4308680000000  0.5384030000000 1.0
C      1  0.5565720000000  0.5767150000000  0.4544950000000 1.0
C      1  0.5102050000000  0.5741560000000  0.5707640000000 1.0
C      1  0.4377120000000  0.5713410000000  0.4829880000000 1.0
C      1  0.4527700000000  0.5946150000000  0.4905730000000 1.0
C      1  0.5349760000000  0.5961020000000  0.4612260000000 1.0
C      1  0.5166000000000  0.5940860000000  0.5500560000000 1.0
C      1  0.5086960000000  0.5123710000000  0.6111860000000 1.0
C      1  0.4033830000000  0.5082730000000  0.4505820000000 1.0
C      1  0.5894690000000  0.5142410000000  0.4360960000000 1.0
C      1  0.5448610000000  0.4809760000000  0.5831840000000 1.0
C      1  0.4081990000000  0.4811250000000  0.4956970000000 1.0
C      1  0.5506690000000  0.4804490000000  0.4192710000000 1.0
C      1  0.5739190000000  0.4651330000000  0.4287930000000 1.0
C      1  0.5252310000000  0.4653160000000  0.5988440000000 1.0
C      1  0.4036100000000  0.4644320000000  0.4713610000000 1.0
END
