TITL C-2441168-9922-1477 -2.43017529334996e-09 125000 -616.374170855426 0 0 5 (D(inf)h) n - 1
REM
REM in /home/bkarasulu/work/CARBON/AIRSS/Generating-Clusters/ReaxFF-fromJPCA2015/Units_Real/with-SteepDescent/Higher-Symm
REM
REM
REM
REM
REM
REM ./C.cell (1df0a924f5614ab8850e4351716899ee)
REM
REM compiler GCC version 9.2.1 20190827 (Red Hat 9.2.1-1)
REM options -cpp -mtune=generic -march=x86-64 -g -O0 -fpre-include=/usr/include/finclude/math-vector-fortran.h
REM seed -1232948097 57521209 -1211156764 105293411 -1390119257 -1967577246 2129023151 -760788679 590924723 -1308785160 1905582614 1769459704 -849789068 -283700262 -825053608 -1559848998 2073515078 361673787 -1569744410 2135236233 -900377456 -1750141521 -772337221 1845376237 775642436 -1261194018 426019910 1669945517 -2001630832 1543925530 -2040810231 1200254861 583207727
REM
CELL 1.54180   50.00000   50.00000   50.00000   90.00000   90.00000   90.00000
LATT -1
SFAC C  
C      1  0.5004490000000  0.5257130000000  0.5002280000000 1.0
C      1  0.5004490000000  0.4498650000000  0.5002280000000 1.0
C      1  0.5004490000000  0.5501350000000  0.5002280000000 1.0
C      1  0.5004490000000  0.4742870000000  0.5002280000000 1.0
C      1  0.5004490000000  0.5000000000000  0.5002280000000 1.0
END
