TITL C-2441167-4473-922 -7.14588406515566e-08 125000 -5000.40670610355 0 0 32 (D3h) n - 1
REM
REM in /home/bkarasulu/work/CARBON/AIRSS/Generating-Clusters/ReaxFF-fromJPCA2015/Units_Real/with-SteepDescent/Higher-Symm
REM
REM
REM
REM
REM
REM ./C.cell (1df0a924f5614ab8850e4351716899ee)
REM
REM compiler GCC version 9.2.1 20190827 (Red Hat 9.2.1-1)
REM options -cpp -mtune=generic -march=x86-64 -g -O0 -fpre-include=/usr/include/finclude/math-vector-fortran.h
REM seed -1834651669 1133861883 1962403108 -414611036 -1992437980 -594132260 213387171 1106155438 305470153 2146836043 -528180356 940435514 -1496785847 2098525306 80615701 352990257 -30085242 -136205927 -235505744 -1688279446 -1533634422 2054681312 1015994093 -1326234499 -430234659 -2073621583 -331521391 -1861176397 -475448245 962773547 -1742739794 1582872250 849767827
REM
CELL 1.54180   50.00000   50.00000   50.00000   90.00000   90.00000   90.00000
LATT -1
SFAC C  
C      1  0.4748270000000  0.4911830000000  0.4533290000000 1.0
C      1  0.5064130000000  0.5265790000000  0.4533300000000 1.0
C      1  0.5212740000000  0.4815270000000  0.4533300000000 1.0
C      1  0.4748260000000  0.4911830000000  0.5420140000000 1.0
C      1  0.5064110000000  0.5265790000000  0.5420150000000 1.0
C      1  0.5212730000000  0.4815270000000  0.5420150000000 1.0
C      1  0.4887490000000  0.5434690000000  0.4693710000000 1.0
C      1  0.5447330000000  0.4883800000000  0.4693720000000 1.0
C      1  0.4690320000000  0.4674410000000  0.4693700000000 1.0
C      1  0.4887480000000  0.5434690000000  0.5259730000000 1.0
C      1  0.5447310000000  0.4883790000000  0.5259740000000 1.0
C      1  0.4690310000000  0.4674410000000  0.5259720000000 1.0
C      1  0.5171250000000  0.4574430000000  0.5259730000000 1.0
C      1  0.4560420000000  0.5068170000000  0.5259720000000 1.0
C      1  0.5293430000000  0.5350300000000  0.5259740000000 1.0
C      1  0.5171270000000  0.4574430000000  0.4693710000000 1.0
C      1  0.4560430000000  0.5068170000000  0.4693700000000 1.0
C      1  0.5293440000000  0.5350300000000  0.4693720000000 1.0
C      1  0.5119420000000  0.5531830000000  0.5114250000000 1.0
C      1  0.5415470000000  0.4634360000000  0.5114260000000 1.0
C      1  0.4490210000000  0.4826710000000  0.5114240000000 1.0
C      1  0.5119430000000  0.5531830000000  0.4839190000000 1.0
C      1  0.5415480000000  0.4634360000000  0.4839200000000 1.0
C      1  0.4490220000000  0.4826710000000  0.4839180000000 1.0
C      1  0.4914630000000  0.4546660000000  0.4833510000000 1.0
C      1  0.4664700000000  0.5304310000000  0.4833500000000 1.0
C      1  0.5445800000000  0.5141930000000  0.4833520000000 1.0
C      1  0.4914620000000  0.4546660000000  0.5119930000000 1.0
C      1  0.4664690000000  0.5304310000000  0.5119930000000 1.0
C      1  0.5445800000000  0.5141930000000  0.5119940000000 1.0
C      1  0.5008380000000  0.4997630000000  0.4487440000000 1.0
C      1  0.5008360000000  0.4997630000000  0.5466000000000 1.0
END
