TITL C-2441158-471-668 0.0761664932184891 125000 -17684.0575758623 0 0 130 (C1) n - 1
REM
REM in /home/bkarasulu/work/CARBON/AIRSS/Generating-Clusters/ReaxFF-fromJPCA2015/Units_Real/with-SteepDescent/Higher-Symm
REM
REM
REM
REM
REM
REM ./C.cell (1df0a924f5614ab8850e4351716899ee)
REM
REM compiler GCC version 9.2.1 20190827 (Red Hat 9.2.1-1)
REM options -cpp -mtune=generic -march=x86-64 -g -O0 -fpre-include=/usr/include/finclude/math-vector-fortran.h
REM seed 61314478 1673726570 -1190031036 -936191816 164075505 -32351031 624832359 2091460199 -1032201862 1597305839 -1648749811 -1557110777 751487241 496343087 -2121450460 -387760298 786985336 -568937504 -784366991 -1512364452 -1508085838 716937596 323994122 -2013098491 653146508 -23233904 -650609523 -118032098 -447288077 1525806336 689620523 1951587948 1406447584
REM
CELL 1.54180   50.00000   50.00000   50.00000   90.00000   90.00000   90.00000
LATT -1
SFAC C  
C      1  0.4685240000000  0.4817680000000  0.5131010000000 1.0
C      1  0.4771270000000  0.5039020000000  0.5877220000000 1.0
C      1  0.4630900000000  0.5606750000000  0.5752770000000 1.0
C      1  0.5062070000000  0.4454420000000  0.5600260000000 1.0
C      1  0.4557100000000  0.4533750000000  0.5527570000000 1.0
C      1  0.4566040000000  0.4705520000000  0.5772050000000 1.0
C      1  0.5051910000000  0.5841900000000  0.4738820000000 1.0
C      1  0.4189920000000  0.4812760000000  0.4671230000000 1.0
C      1  0.5708580000000  0.4464830000000  0.5290560000000 1.0
C      1  0.4159330000000  0.5106740000000  0.5448560000000 1.0
C      1  0.5967400000000  0.4998140000000  0.4771860000000 1.0
C      1  0.4786740000000  0.5806490000000  0.5603580000000 1.0
C      1  0.4813210000000  0.5245160000000  0.5420700000000 1.0
C      1  0.4863710000000  0.4993950000000  0.5294820000000 1.0
C      1  0.4563890000000  0.5761270000000  0.4728280000000 1.0
C      1  0.4119030000000  0.5331850000000  0.4704130000000 1.0
C      1  0.5144090000000  0.4627390000000  0.4612270000000 1.0
C      1  0.4366030000000  0.4310440000000  0.4804790000000 1.0
C      1  0.4053510000000  0.5057260000000  0.4743150000000 1.0
C      1  0.5508480000000  0.5032990000000  0.4203370000000 1.0
C      1  0.5007070000000  0.5954880000000  0.5267590000000 1.0
C      1  0.5218460000000  0.4917720000000  0.4480900000000 1.0
C      1  0.5686290000000  0.5051950000000  0.5208630000000 1.0
C      1  0.5007250000000  0.3967040000000  0.4604560000000 1.0
C      1  0.5266740000000  0.4102900000000  0.4715050000000 1.0
C      1  0.5143140000000  0.5212370000000  0.4498190000000 1.0
C      1  0.5586960000000  0.5473430000000  0.4517130000000 1.0
C      1  0.4007380000000  0.5097090000000  0.5022410000000 1.0
C      1  0.5873390000000  0.4630520000000  0.5103840000000 1.0
C      1  0.5122600000000  0.5792800000000  0.4463530000000 1.0
C      1  0.6022920000000  0.4884410000000  0.5058390000000 1.0
C      1  0.5253810000000  0.5580870000000  0.5574720000000 1.0
C      1  0.4556470000000  0.5332730000000  0.5309840000000 1.0
C      1  0.5844270000000  0.5527230000000  0.5289220000000 1.0
C      1  0.4549750000000  0.5398990000000  0.5038140000000 1.0
C      1  0.5173110000000  0.4447530000000  0.4338050000000 1.0
C      1  0.5480070000000  0.4338780000000  0.4374130000000 1.0
C      1  0.5066770000000  0.4727300000000  0.5708100000000 1.0
C      1  0.5559160000000  0.4518480000000  0.5547820000000 1.0
C      1  0.5263200000000  0.4736220000000  0.5202780000000 1.0
C      1  0.5390040000000  0.5686140000000  0.4563040000000 1.0
C      1  0.5266130000000  0.5666650000000  0.4829200000000 1.0
C      1  0.4245910000000  0.4418170000000  0.5054190000000 1.0
C      1  0.5529280000000  0.4781050000000  0.5661750000000 1.0
C      1  0.4761200000000  0.5292400000000  0.4710850000000 1.0
C      1  0.5711680000000  0.4922840000000  0.4629530000000 1.0
C      1  0.5224360000000  0.5313660000000  0.5217470000000 1.0
C      1  0.5667550000000  0.5268910000000  0.5628070000000 1.0
C      1  0.5238170000000  0.4902230000000  0.4197460000000 1.0
C      1  0.4502100000000  0.4733920000000  0.5333530000000 1.0
C      1  0.4851350000000  0.5203840000000  0.4460990000000 1.0
C      1  0.5268930000000  0.5874320000000  0.5171090000000 1.0
C      1  0.4156060000000  0.4671230000000  0.4918300000000 1.0
C      1  0.4312610000000  0.5184540000000  0.5678710000000 1.0
C      1  0.4325740000000  0.5473490000000  0.5384710000000 1.0
C      1  0.4317010000000  0.5365960000000  0.4504200000000 1.0
C      1  0.5211580000000  0.5373800000000  0.4791420000000 1.0
C      1  0.5422740000000  0.5371170000000  0.5733300000000 1.0
C      1  0.4781600000000  0.5932650000000  0.5109160000000 1.0
C      1  0.5689550000000  0.4837240000000  0.4337990000000 1.0
C      1  0.5268590000000  0.4231140000000  0.5283780000000 1.0
C      1  0.4948200000000  0.5459810000000  0.4154050000000 1.0
C      1  0.4110890000000  0.4858040000000  0.5106010000000 1.0
C      1  0.5016670000000  0.4025450000000  0.5271810000000 1.0
C      1  0.5327570000000  0.4339860000000  0.5550820000000 1.0
C      1  0.4690170000000  0.4933210000000  0.4080100000000 1.0
C      1  0.5723810000000  0.4558360000000  0.4864560000000 1.0
C      1  0.5530230000000  0.4177250000000  0.4615940000000 1.0
C      1  0.4880000000000  0.5501390000000  0.5857170000000 1.0
C      1  0.4529840000000  0.5189550000000  0.4841410000000 1.0
C      1  0.4497100000000  0.4498890000000  0.4636180000000 1.0
C      1  0.4617100000000  0.4762550000000  0.4284590000000 1.0
C      1  0.4481150000000  0.4784340000000  0.4606590000000 1.0
C      1  0.5630160000000  0.5244660000000  0.5008090000000 1.0
C      1  0.5599130000000  0.4575480000000  0.4351050000000 1.0
C      1  0.4708680000000  0.4291770000000  0.5062690000000 1.0
C      1  0.5162000000000  0.4636640000000  0.4107950000000 1.0
C      1  0.4397260000000  0.5568860000000  0.4345440000000 1.0
C      1  0.4835360000000  0.4772330000000  0.5859850000000 1.0
C      1  0.4790390000000  0.4353840000000  0.5540690000000 1.0
C      1  0.5113130000000  0.4898600000000  0.5384370000000 1.0
C      1  0.4241440000000  0.4847950000000  0.5351120000000 1.0
C      1  0.4156000000000  0.5474700000000  0.4959130000000 1.0
C      1  0.5537420000000  0.5950210000000  0.5054280000000 1.0
C      1  0.5930100000000  0.5256660000000  0.4669600000000 1.0
C      1  0.4967100000000  0.4448770000000  0.4145530000000 1.0
C      1  0.5408560000000  0.5734410000000  0.5384690000000 1.0
C      1  0.5033450000000  0.5706810000000  0.5729870000000 1.0
C      1  0.5724940000000  0.5407670000000  0.4778040000000 1.0
C      1  0.5024160000000  0.3948960000000  0.5001150000000 1.0
C      1  0.4503330000000  0.4993870000000  0.5782330000000 1.0
C      1  0.5248040000000  0.5164130000000  0.5839270000000 1.0
C      1  0.5100420000000  0.4507660000000  0.5210760000000 1.0
C      1  0.5040750000000  0.4964250000000  0.4877620000000 1.0
C      1  0.5900590000000  0.5307770000000  0.5447380000000 1.0
C      1  0.4570690000000  0.4120770000000  0.4850600000000 1.0
C      1  0.5009050000000  0.5458860000000  0.5348530000000 1.0
C      1  0.5368300000000  0.5219330000000  0.4969990000000 1.0
C      1  0.4853760000000  0.4570450000000  0.5054830000000 1.0
C      1  0.4097530000000  0.5325430000000  0.5233210000000 1.0
C      1  0.5653340000000  0.5710430000000  0.5231600000000 1.0
C      1  0.4716170000000  0.4491290000000  0.4245640000000 1.0
C      1  0.4664720000000  0.4345910000000  0.4480590000000 1.0
C      1  0.4728000000000  0.4082570000000  0.4607110000000 1.0
C      1  0.5492180000000  0.5318050000000  0.4278320000000 1.0
C      1  0.4882330000000  0.5682900000000  0.4329490000000 1.0
C      1  0.5553280000000  0.4264860000000  0.5154950000000 1.0
C      1  0.5629560000000  0.4279280000000  0.4874660000000 1.0
C      1  0.5308320000000  0.4876510000000  0.5813720000000 1.0
C      1  0.5960220000000  0.5042560000000  0.5293600000000 1.0
C      1  0.4612590000000  0.5714130000000  0.4449610000000 1.0
C      1  0.4581310000000  0.4914490000000  0.4854030000000 1.0
C      1  0.5539210000000  0.5034130000000  0.5467510000000 1.0
C      1  0.5324630000000  0.4879470000000  0.4959850000000 1.0
C      1  0.4766420000000  0.4156050000000  0.5338980000000 1.0
C      1  0.5159600000000  0.4373750000000  0.4789150000000 1.0
C      1  0.5278040000000  0.5110850000000  0.5402970000000 1.0
C      1  0.4811360000000  0.5739410000000  0.5322970000000 1.0
C      1  0.4435240000000  0.5306240000000  0.4252420000000 1.0
C      1  0.4921780000000  0.4714390000000  0.4787980000000 1.0
C      1  0.4957110000000  0.4216960000000  0.4922580000000 1.0
C      1  0.4720210000000  0.5237770000000  0.4206750000000 1.0
C      1  0.4347980000000  0.4332600000000  0.5310610000000 1.0
C      1  0.4395760000000  0.5631260000000  0.4935400000000 1.0
C      1  0.5526930000000  0.4754940000000  0.4777900000000 1.0
C      1  0.4973680000000  0.5245130000000  0.4906300000000 1.0
C      1  0.5212100000000  0.5398120000000  0.4251370000000 1.0
C      1  0.4388220000000  0.5464920000000  0.5663870000000 1.0
C      1  0.4795290000000  0.5858940000000  0.4849780000000 1.0
C      1  0.4960520000000  0.5235660000000  0.5804260000000 1.0
END
