TITL C-2441159-1093-1376 0.000642486488479534 125000 -4587.85630903943 0 0 33 (C1) n - 1
REM
REM in /home/bkarasulu/work/CARBON/AIRSS/Generating-Clusters/ReaxFF-fromJPCA2015/Units_Real/with-SteepDescent/Higher-Symm
REM
REM
REM
REM
REM
REM ./C.cell (1df0a924f5614ab8850e4351716899ee)
REM
REM compiler GCC version 9.2.1 20190827 (Red Hat 9.2.1-1)
REM options -cpp -mtune=generic -march=x86-64 -g -O0 -fpre-include=/usr/include/finclude/math-vector-fortran.h
REM seed -2096480424 -185350958 1116394533 -1150851764 -877262265 -974050533 -1954087011 -1491492481 -311183304 581494997 580071786 1031960461 -1344193591 820616140 -1971062861 -2140114136 -1156952557 -1062039809 1496795205 -508724214 1292111861 -1672310536 98320576 -1619611460 1084691358 1578318800 -1840982705 -1591440662 776985236 -1916843034 993764188 -1050928190 555894310
REM
CELL 1.54180   50.00000   50.00000   50.00000   90.00000   90.00000   90.00000
LATT -1
SFAC C  
C      1  0.5191130000000  0.4882000000000  0.5505580000000 1.0
C      1  0.5168640000000  0.5169610000000  0.5538080000000 1.0
C      1  0.4573410000000  0.5280690000000  0.4937920000000 1.0
C      1  0.4562490000000  0.4709080000000  0.4929740000000 1.0
C      1  0.5021900000000  0.5377560000000  0.4699970000000 1.0
C      1  0.5018590000000  0.4618900000000  0.4702510000000 1.0
C      1  0.4513870000000  0.4845150000000  0.5184150000000 1.0
C      1  0.4523090000000  0.5141740000000  0.5189200000000 1.0
C      1  0.5520780000000  0.4821860000000  0.4758910000000 1.0
C      1  0.5522080000000  0.5172280000000  0.4760360000000 1.0
C      1  0.5292400000000  0.5339120000000  0.4731680000000 1.0
C      1  0.5289300000000  0.4655260000000  0.4731640000000 1.0
C      1  0.5211810000000  0.4619770000000  0.5314510000000 1.0
C      1  0.5208500000000  0.5390870000000  0.5328560000000 1.0
C      1  0.4971700000000  0.4844730000000  0.4515140000000 1.0
C      1  0.4974340000000  0.5148860000000  0.4514370000000 1.0
C      1  0.4712280000000  0.5305330000000  0.5349000000000 1.0
C      1  0.4701690000000  0.4674070000000  0.5332710000000 1.0
C      1  0.4495600000000  0.4852500000000  0.4679450000000 1.0
C      1  0.4500520000000  0.5146640000000  0.4684880000000 1.0
C      1  0.5676220000000  0.5361730000000  0.4851220000000 1.0
C      1  0.5674460000000  0.4634330000000  0.4849150000000 1.0
C      1  0.5441130000000  0.4504640000000  0.5271050000000 1.0
C      1  0.5445530000000  0.5485590000000  0.5263190000000 1.0
C      1  0.4916240000000  0.5446410000000  0.5200650000000 1.0
C      1  0.4915550000000  0.4533620000000  0.5200550000000 1.0
C      1  0.4913070000000  0.4886010000000  0.5422540000000 1.0
C      1  0.4879740000000  0.5154660000000  0.5539260000000 1.0
C      1  0.4829260000000  0.5430970000000  0.4933830000000 1.0
C      1  0.4821000000000  0.4559940000000  0.4935240000000 1.0
C      1  0.4682200000000  0.4850640000000  0.4445000000000 1.0
C      1  0.4684660000000  0.5149140000000  0.4447440000000 1.0
C      1  0.5072520000000  0.4951530000000  0.5124680000000 1.0
END
