TITL C-2441164-471-1380 0.126528229677391 125000 -22615.6462343989 0 0 172 (C1) n - 1
REM
REM in /home/bkarasulu/work/CARBON/AIRSS/Generating-Clusters/ReaxFF-fromJPCA2015/Units_Real/with-SteepDescent/Higher-Symm
REM
REM
REM
REM
REM
REM ./C.cell (1df0a924f5614ab8850e4351716899ee)
REM
REM compiler GCC version 9.2.1 20190827 (Red Hat 9.2.1-1)
REM options -cpp -mtune=generic -march=x86-64 -g -O0 -fpre-include=/usr/include/finclude/math-vector-fortran.h
REM seed -678719123 -1674218006 -1242314569 -1111309631 582127365 763694645 -1785866909 1789361479 -846060075 611051063 -596535353 -873119742 -2091619226 -664026735 -1865901816 539366961 149070187 1610291801 -1613210481 1160646202 1933638949 -105946114 -1343465244 -255193368 -2103184446 -458080271 -187906075 451467888 -742863097 -149390076 2076148605 123875549 -1123602412
REM
CELL 1.54180   50.00000   50.00000   50.00000   90.00000   90.00000   90.00000
LATT -1
SFAC C  
C      1  0.4451220000000  0.4220500000000  0.5435860000000 1.0
C      1  0.4252980000000  0.5387480000000  0.4181410000000 1.0
C      1  0.4500500000000  0.4717150000000  0.5089240000000 1.0
C      1  0.4227840000000  0.4373570000000  0.4748170000000 1.0
C      1  0.5813880000000  0.4461080000000  0.5476740000000 1.0
C      1  0.4615780000000  0.5692670000000  0.5602430000000 1.0
C      1  0.4504850000000  0.5535620000000  0.4179190000000 1.0
C      1  0.4680580000000  0.4073650000000  0.5349940000000 1.0
C      1  0.5354700000000  0.5743010000000  0.5668950000000 1.0
C      1  0.4093020000000  0.5459960000000  0.5484760000000 1.0
C      1  0.4069240000000  0.5373960000000  0.5212350000000 1.0
C      1  0.5438390000000  0.5284980000000  0.5896200000000 1.0
C      1  0.4571150000000  0.4064400000000  0.5083040000000 1.0
C      1  0.5811970000000  0.4482000000000  0.4694930000000 1.0
C      1  0.4806030000000  0.5409010000000  0.5982930000000 1.0
C      1  0.4581390000000  0.5220670000000  0.4491870000000 1.0
C      1  0.5017980000000  0.4953970000000  0.4299630000000 1.0
C      1  0.4781160000000  0.5779400000000  0.5189700000000 1.0
C      1  0.4334420000000  0.5720020000000  0.4936080000000 1.0
C      1  0.4922310000000  0.4300100000000  0.5124080000000 1.0
C      1  0.4945380000000  0.4059270000000  0.4537110000000 1.0
C      1  0.6030410000000  0.5160210000000  0.4855640000000 1.0
C      1  0.4401060000000  0.4894270000000  0.5844250000000 1.0
C      1  0.4968530000000  0.4009560000000  0.5059870000000 1.0
C      1  0.4549280000000  0.5068460000000  0.4235260000000 1.0
C      1  0.5373650000000  0.4466500000000  0.4890480000000 1.0
C      1  0.5114940000000  0.4900600000000  0.5943980000000 1.0
C      1  0.4894250000000  0.4230590000000  0.5512480000000 1.0
C      1  0.5645150000000  0.5677550000000  0.4478140000000 1.0
C      1  0.5933140000000  0.4979120000000  0.4411640000000 1.0
C      1  0.5189250000000  0.5660820000000  0.4269510000000 1.0
C      1  0.5181880000000  0.4918760000000  0.4713880000000 1.0
C      1  0.4870410000000  0.4840530000000  0.3930480000000 1.0
C      1  0.5352450000000  0.5063620000000  0.6061370000000 1.0
C      1  0.5150500000000  0.4743640000000  0.3939700000000 1.0
C      1  0.5444830000000  0.5596820000000  0.4902640000000 1.0
C      1  0.5369990000000  0.4924020000000  0.3972470000000 1.0
C      1  0.4514870000000  0.5875660000000  0.5118930000000 1.0
C      1  0.5698290000000  0.5012780000000  0.4232190000000 1.0
C      1  0.5579240000000  0.5317700000000  0.4160140000000 1.0
C      1  0.5570570000000  0.4593310000000  0.5074960000000 1.0
C      1  0.5241530000000  0.4783810000000  0.5216090000000 1.0
C      1  0.6065640000000  0.4885150000000  0.4922330000000 1.0
C      1  0.5522350000000  0.5362470000000  0.5425380000000 1.0
C      1  0.3924600000000  0.4963290000000  0.5442450000000 1.0
C      1  0.5920160000000  0.5373110000000  0.5321440000000 1.0
C      1  0.5081090000000  0.5859110000000  0.4447250000000 1.0
C      1  0.5136450000000  0.5202280000000  0.5084530000000 1.0
C      1  0.5443870000000  0.3990570000000  0.4935700000000 1.0
C      1  0.5195150000000  0.5052900000000  0.5284840000000 1.0
C      1  0.4335480000000  0.4180130000000  0.4969920000000 1.0
C      1  0.4904170000000  0.4643260000000  0.4941410000000 1.0
C      1  0.4261240000000  0.5259370000000  0.5603550000000 1.0
C      1  0.4245950000000  0.4265030000000  0.5240190000000 1.0
C      1  0.5939710000000  0.5210620000000  0.4582670000000 1.0
C      1  0.5706320000000  0.5418210000000  0.4606360000000 1.0
C      1  0.4873230000000  0.4452910000000  0.5978600000000 1.0
C      1  0.4738110000000  0.5242710000000  0.4920190000000 1.0
C      1  0.4991670000000  0.5092800000000  0.5472530000000 1.0
C      1  0.5085220000000  0.5187930000000  0.4141590000000 1.0
C      1  0.5608320000000  0.5793760000000  0.5512370000000 1.0
C      1  0.5539170000000  0.4951390000000  0.4467390000000 1.0
C      1  0.4682330000000  0.4448550000000  0.5014100000000 1.0
C      1  0.5926890000000  0.4764840000000  0.4671160000000 1.0
C      1  0.4655120000000  0.4409170000000  0.4719730000000 1.0
C      1  0.4938440000000  0.4783770000000  0.5159750000000 1.0
C      1  0.4587580000000  0.5318630000000  0.5202960000000 1.0
C      1  0.4580700000000  0.5672890000000  0.4468110000000 1.0
C      1  0.5532030000000  0.4587260000000  0.5864130000000 1.0
C      1  0.5410200000000  0.4160480000000  0.4689350000000 1.0
C      1  0.5184960000000  0.4311220000000  0.5529410000000 1.0
C      1  0.4741660000000  0.5465470000000  0.5474210000000 1.0
C      1  0.4971880000000  0.5453990000000  0.4222680000000 1.0
C      1  0.5592200000000  0.4501060000000  0.4503560000000 1.0
C      1  0.5233840000000  0.5458660000000  0.4725590000000 1.0
C      1  0.4691800000000  0.5200340000000  0.5814190000000 1.0
C      1  0.4289980000000  0.4423390000000  0.4464450000000 1.0
C      1  0.5002690000000  0.5381630000000  0.5563570000000 1.0
C      1  0.5399190000000  0.5324100000000  0.4572680000000 1.0
C      1  0.5548540000000  0.4728670000000  0.4078950000000 1.0
C      1  0.5354240000000  0.5206040000000  0.4042580000000 1.0
C      1  0.5477530000000  0.5572350000000  0.4255910000000 1.0
C      1  0.4719820000000  0.5395140000000  0.4039780000000 1.0
C      1  0.5323600000000  0.5554620000000  0.5897050000000 1.0
C      1  0.5336720000000  0.4626390000000  0.4640810000000 1.0
C      1  0.4782340000000  0.5982910000000  0.4814100000000 1.0
C      1  0.5387080000000  0.4780830000000  0.6030130000000 1.0
C      1  0.5841710000000  0.5302520000000  0.5047080000000 1.0
C      1  0.5251940000000  0.4000280000000  0.5148580000000 1.0
C      1  0.4172010000000  0.5723640000000  0.5384350000000 1.0
C      1  0.4395870000000  0.5194960000000  0.5848220000000 1.0
C      1  0.4226150000000  0.4682750000000  0.4337410000000 1.0
C      1  0.4646330000000  0.4679220000000  0.4589950000000 1.0
C      1  0.4439100000000  0.5837610000000  0.5403920000000 1.0
C      1  0.5371360000000  0.5206680000000  0.5613880000000 1.0
C      1  0.5221090000000  0.6032470000000  0.4922690000000 1.0
C      1  0.5356520000000  0.5583770000000  0.5203620000000 1.0
C      1  0.3845670000000  0.5042270000000  0.5186940000000 1.0
C      1  0.4839320000000  0.4676900000000  0.5438890000000 1.0
C      1  0.4739060000000  0.4344700000000  0.5732610000000 1.0
C      1  0.5103760000000  0.4435850000000  0.4970600000000 1.0
C      1  0.4693040000000  0.4909740000000  0.5872220000000 1.0
C      1  0.5357350000000  0.4346460000000  0.5781840000000 1.0
C      1  0.5352170000000  0.4523390000000  0.4048970000000 1.0
C      1  0.4771420000000  0.5440650000000  0.4492310000000 1.0
C      1  0.4663120000000  0.4659330000000  0.4031650000000 1.0
C      1  0.4368460000000  0.4827390000000  0.5587520000000 1.0
C      1  0.5313760000000  0.5092440000000  0.4896520000000 1.0
C      1  0.5104300000000  0.5857310000000  0.5560800000000 1.0
C      1  0.5136630000000  0.4367710000000  0.5934370000000 1.0
C      1  0.4760160000000  0.4455620000000  0.4203560000000 1.0
C      1  0.4297430000000  0.5200010000000  0.5147060000000 1.0
C      1  0.5505710000000  0.4927890000000  0.5512400000000 1.0
C      1  0.4104800000000  0.4922540000000  0.4439370000000 1.0
C      1  0.5645180000000  0.4282540000000  0.5349730000000 1.0
C      1  0.4459420000000  0.4372370000000  0.5675070000000 1.0
C      1  0.5193010000000  0.4229830000000  0.4480770000000 1.0
C      1  0.5959120000000  0.4804810000000  0.5178690000000 1.0
C      1  0.5052590000000  0.4778040000000  0.5613710000000 1.0
C      1  0.4275930000000  0.5325800000000  0.4633540000000 1.0
C      1  0.5001300000000  0.3909550000000  0.4774270000000 1.0
C      1  0.4801680000000  0.5877930000000  0.4552130000000 1.0
C      1  0.4911730000000  0.5443550000000  0.4756050000000 1.0
C      1  0.4178310000000  0.5140150000000  0.4869180000000 1.0
C      1  0.5736670000000  0.5542410000000  0.4930600000000 1.0
C      1  0.5117040000000  0.4512190000000  0.4495080000000 1.0
C      1  0.4972950000000  0.5975170000000  0.5326290000000 1.0
C      1  0.5513360000000  0.5826070000000  0.4690500000000 1.0
C      1  0.5101400000000  0.5489410000000  0.5147430000000 1.0
C      1  0.4954500000000  0.6099680000000  0.5006780000000 1.0
C      1  0.4138790000000  0.4506840000000  0.5361990000000 1.0
C      1  0.5056220000000  0.5458800000000  0.5841140000000 1.0
C      1  0.4970110000000  0.4655340000000  0.4307270000000 1.0
C      1  0.5300520000000  0.5888040000000  0.5182440000000 1.0
C      1  0.5760310000000  0.4957210000000  0.5652800000000 1.0
C      1  0.5575740000000  0.5940750000000  0.5262780000000 1.0
C      1  0.4112090000000  0.5637250000000  0.5112230000000 1.0
C      1  0.4931060000000  0.5639610000000  0.4981080000000 1.0
C      1  0.5664100000000  0.4909430000000  0.4713320000000 1.0
C      1  0.5770450000000  0.5231510000000  0.5514250000000 1.0
C      1  0.4248030000000  0.5023370000000  0.5434750000000 1.0
C      1  0.5378820000000  0.4176250000000  0.5346640000000 1.0
C      1  0.4727290000000  0.5091660000000  0.5319910000000 1.0
C      1  0.4188470000000  0.4673910000000  0.5137600000000 1.0
C      1  0.3861430000000  0.5075060000000  0.4908490000000 1.0
C      1  0.4195120000000  0.4875050000000  0.4732080000000 1.0
C      1  0.4673390000000  0.4164130000000  0.4554220000000 1.0
C      1  0.5662350000000  0.4854030000000  0.5195920000000 1.0
C      1  0.4484890000000  0.4842090000000  0.4787820000000 1.0
C      1  0.5286140000000  0.3888950000000  0.4718260000000 1.0
C      1  0.4132760000000  0.5208240000000  0.4391780000000 1.0
C      1  0.4583840000000  0.5590930000000  0.5888840000000 1.0
C      1  0.5779610000000  0.5769500000000  0.5131780000000 1.0
C      1  0.4267140000000  0.4584340000000  0.5620380000000 1.0
C      1  0.5277770000000  0.5978170000000  0.4638020000000 1.0
C      1  0.4874280000000  0.4747890000000  0.6023460000000 1.0
C      1  0.5448470000000  0.4382320000000  0.4279590000000 1.0
C      1  0.4707920000000  0.5106090000000  0.4004710000000 1.0
C      1  0.5832480000000  0.5642360000000  0.5384050000000 1.0
C      1  0.5282380000000  0.5071530000000  0.4471020000000 1.0
C      1  0.5754200000000  0.4670550000000  0.5698800000000 1.0
C      1  0.5793780000000  0.4424890000000  0.4985820000000 1.0
C      1  0.5592700000000  0.5057810000000  0.4962160000000 1.0
C      1  0.4662300000000  0.5061240000000  0.4726690000000 1.0
C      1  0.4875740000000  0.5057340000000  0.5076950000000 1.0
C      1  0.5958520000000  0.4515260000000  0.5222980000000 1.0
C      1  0.5315340000000  0.4697310000000  0.5490570000000 1.0
C      1  0.4505550000000  0.4779890000000  0.4280150000000 1.0
C      1  0.4877150000000  0.4836330000000  0.4705660000000 1.0
C      1  0.4536910000000  0.4305790000000  0.4336960000000 1.0
C      1  0.4372640000000  0.5603380000000  0.4680300000000 1.0
C      1  0.4112480000000  0.4605730000000  0.4868880000000 1.0
END
