TITL C-2441156-4686-992 0.107941444196378 125000 -16958.8079860965 0 0 139 (C1) n - 1
REM
REM in /home/bkarasulu/work/CARBON/AIRSS/Generating-Clusters/ReaxFF-fromJPCA2015/Units_Real/with-SteepDescent/Higher-Symm
REM
REM
REM
REM
REM
REM ./C.cell (1df0a924f5614ab8850e4351716899ee)
REM
REM compiler GCC version 9.2.1 20190827 (Red Hat 9.2.1-1)
REM options -cpp -mtune=generic -march=x86-64 -g -O0 -fpre-include=/usr/include/finclude/math-vector-fortran.h
REM seed -1755001420 2070885655 580787726 -502268544 1366411080 1823844418 584674964 1801497145 -441407599 2107544390 843429926 -729595648 1268503469 -541275187 191994501 -1211562058 1028798634 -1696939879 -1887080863 946243037 1557343658 -401731851 469759380 1820344170 -1932736716 -1111034734 988596670 -662691997 -2045786023 90923783 1090757383 -408330331 1757981075
REM
CELL 1.54180   50.00000   50.00000   50.00000   90.00000   90.00000   90.00000
LATT -1
SFAC C  
C      1  0.4926880000000  0.5503920000000  0.5228440000000 1.0
C      1  0.4890070000000  0.4458140000000  0.4780380000000 1.0
C      1  0.4961350000000  0.4501320000000  0.5221330000000 1.0
C      1  0.4936580000000  0.5502690000000  0.4778200000000 1.0
C      1  0.4488670000000  0.5283990000000  0.5151720000000 1.0
C      1  0.4483290000000  0.4704980000000  0.4817500000000 1.0
C      1  0.4502710000000  0.4703740000000  0.5149050000000 1.0
C      1  0.4495980000000  0.5285410000000  0.4834590000000 1.0
C      1  0.5124160000000  0.4676830000000  0.5847110000000 1.0
C      1  0.5133940000000  0.5322560000000  0.4163630000000 1.0
C      1  0.5162100000000  0.5320720000000  0.5844330000000 1.0
C      1  0.5110210000000  0.4674770000000  0.4145650000000 1.0
C      1  0.5108090000000  0.5689110000000  0.4875650000000 1.0
C      1  0.5117410000000  0.4308190000000  0.5124360000000 1.0
C      1  0.5143720000000  0.4348900000000  0.4858770000000 1.0
C      1  0.5116120000000  0.5675520000000  0.5129600000000 1.0
C      1  0.4418780000000  0.4467070000000  0.4618100000000 1.0
C      1  0.4350660000000  0.5539060000000  0.5319310000000 1.0
C      1  0.4415430000000  0.5525300000000  0.4618690000000 1.0
C      1  0.4342660000000  0.4480290000000  0.5328350000000 1.0
C      1  0.5566980000000  0.5253310000000  0.4370180000000 1.0
C      1  0.5571680000000  0.4746370000000  0.5630810000000 1.0
C      1  0.5574500000000  0.4755530000000  0.4342230000000 1.0
C      1  0.5570030000000  0.5247230000000  0.5620840000000 1.0
C      1  0.4661440000000  0.5765100000000  0.4843940000000 1.0
C      1  0.4678720000000  0.4242660000000  0.5156050000000 1.0
C      1  0.4685180000000  0.4246930000000  0.4865700000000 1.0
C      1  0.4676650000000  0.5771980000000  0.5138180000000 1.0
C      1  0.5354350000000  0.4113950000000  0.5371580000000 1.0
C      1  0.5358190000000  0.5887930000000  0.4636290000000 1.0
C      1  0.5347020000000  0.5887440000000  0.5368680000000 1.0
C      1  0.5365420000000  0.4101000000000  0.4638270000000 1.0
C      1  0.4629240000000  0.4385080000000  0.5616680000000 1.0
C      1  0.4596020000000  0.5596230000000  0.4396750000000 1.0
C      1  0.4584750000000  0.5591590000000  0.5590500000000 1.0
C      1  0.4589070000000  0.4407470000000  0.4380150000000 1.0
C      1  0.4341640000000  0.5715390000000  0.4826870000000 1.0
C      1  0.4384050000000  0.4264120000000  0.5136110000000 1.0
C      1  0.4290060000000  0.4326210000000  0.4841220000000 1.0
C      1  0.4371830000000  0.5755930000000  0.5128560000000 1.0
C      1  0.5595050000000  0.4850590000000  0.5144590000000 1.0
C      1  0.5597220000000  0.5146510000000  0.4854420000000 1.0
C      1  0.5589290000000  0.5162170000000  0.5141790000000 1.0
C      1  0.5568670000000  0.4816120000000  0.4843580000000 1.0
C      1  0.4755400000000  0.5324930000000  0.5850740000000 1.0
C      1  0.4704150000000  0.4612860000000  0.4168740000000 1.0
C      1  0.4724280000000  0.4587540000000  0.5824190000000 1.0
C      1  0.4727480000000  0.5371570000000  0.4165880000000 1.0
C      1  0.4536420000000  0.4804070000000  0.4302180000000 1.0
C      1  0.4494470000000  0.5288920000000  0.5701790000000 1.0
C      1  0.4518930000000  0.5209730000000  0.4292440000000 1.0
C      1  0.4549710000000  0.4781660000000  0.5695490000000 1.0
C      1  0.5826600000000  0.5302910000000  0.5258690000000 1.0
C      1  0.5815880000000  0.4692140000000  0.4738800000000 1.0
C      1  0.5828150000000  0.4698250000000  0.5254700000000 1.0
C      1  0.5813460000000  0.5299280000000  0.4741780000000 1.0
C      1  0.5436980000000  0.5437000000000  0.4556490000000 1.0
C      1  0.5426600000000  0.4563660000000  0.5458970000000 1.0
C      1  0.5396660000000  0.4582030000000  0.4502300000000 1.0
C      1  0.5440480000000  0.5439040000000  0.5440930000000 1.0
C      1  0.5767950000000  0.4427270000000  0.5149900000000 1.0
C      1  0.5763430000000  0.5566370000000  0.4853640000000 1.0
C      1  0.5769010000000  0.5573370000000  0.5150460000000 1.0
C      1  0.5767950000000  0.4422170000000  0.4850320000000 1.0
C      1  0.4850610000000  0.4444800000000  0.4500870000000 1.0
C      1  0.4842370000000  0.5506490000000  0.5483410000000 1.0
C      1  0.4857080000000  0.5535210000000  0.4514400000000 1.0
C      1  0.4841760000000  0.4494310000000  0.5455060000000 1.0
C      1  0.5163840000000  0.5783470000000  0.4426180000000 1.0
C      1  0.5149100000000  0.4214730000000  0.5574620000000 1.0
C      1  0.5164280000000  0.4203560000000  0.4419440000000 1.0
C      1  0.5141910000000  0.5767830000000  0.5566650000000 1.0
C      1  0.4850620000000  0.6011590000000  0.5117830000000 1.0
C      1  0.4851950000000  0.4004750000000  0.4853230000000 1.0
C      1  0.4844980000000  0.3995760000000  0.5163110000000 1.0
C      1  0.4831390000000  0.6006240000000  0.4820280000000 1.0
C      1  0.4249410000000  0.5157430000000  0.5272240000000 1.0
C      1  0.4233120000000  0.4809080000000  0.4750450000000 1.0
C      1  0.4251050000000  0.4859660000000  0.5239710000000 1.0
C      1  0.4225910000000  0.5180610000000  0.4754260000000 1.0
C      1  0.4702510000000  0.4861050000000  0.4722830000000 1.0
C      1  0.4701920000000  0.5129550000000  0.5263390000000 1.0
C      1  0.4717520000000  0.5135530000000  0.4740840000000 1.0
C      1  0.4718850000000  0.4860530000000  0.5246150000000 1.0
C      1  0.5807100000000  0.4850660000000  0.4492900000000 1.0
C      1  0.5818220000000  0.5146300000000  0.5502400000000 1.0
C      1  0.5808110000000  0.5148420000000  0.4496110000000 1.0
C      1  0.5814810000000  0.4847970000000  0.5502130000000 1.0
C      1  0.4954650000000  0.4765690000000  0.5097150000000 1.0
C      1  0.4908070000000  0.5266220000000  0.4880690000000 1.0
C      1  0.4921040000000  0.5256240000000  0.5124750000000 1.0
C      1  0.4878080000000  0.4706590000000  0.4851530000000 1.0
C      1  0.5132400000000  0.5968030000000  0.4792640000000 1.0
C      1  0.5132890000000  0.4014180000000  0.5208280000000 1.0
C      1  0.5137080000000  0.4047770000000  0.4796620000000 1.0
C      1  0.5126890000000  0.5984790000000  0.5210620000000 1.0
C      1  0.5388340000000  0.5352600000000  0.4845110000000 1.0
C      1  0.5377080000000  0.4665760000000  0.5186740000000 1.0
C      1  0.5340940000000  0.4619320000000  0.4907260000000 1.0
C      1  0.5366000000000  0.5375180000000  0.5145350000000 1.0
C      1  0.4956940000000  0.5166410000000  0.5715450000000 1.0
C      1  0.5007060000000  0.4847890000000  0.4351550000000 1.0
C      1  0.4952600000000  0.4850780000000  0.5695090000000 1.0
C      1  0.4945440000000  0.5142980000000  0.4310900000000 1.0
C      1  0.5247110000000  0.4452390000000  0.4283640000000 1.0
C      1  0.5264200000000  0.5526970000000  0.5660610000000 1.0
C      1  0.5251940000000  0.5520160000000  0.4343290000000 1.0
C      1  0.5249950000000  0.4468480000000  0.5679250000000 1.0
C      1  0.5385660000000  0.5134470000000  0.5824960000000 1.0
C      1  0.5367820000000  0.4855630000000  0.4156010000000 1.0
C      1  0.5369770000000  0.4841760000000  0.5826210000000 1.0
C      1  0.5370550000000  0.5146080000000  0.4170610000000 1.0
C      1  0.4109050000000  0.4599180000000  0.5185670000000 1.0
C      1  0.4123650000000  0.5422710000000  0.4890130000000 1.0
C      1  0.4108880000000  0.5419950000000  0.5175380000000 1.0
C      1  0.4119130000000  0.4564420000000  0.4892160000000 1.0
C      1  0.5541380000000  0.5771540000000  0.5149910000000 1.0
C      1  0.5543140000000  0.4224210000000  0.4851930000000 1.0
C      1  0.5543890000000  0.4230560000000  0.5153220000000 1.0
C      1  0.5541910000000  0.5771490000000  0.4850440000000 1.0
C      1  0.4852830000000  0.4204620000000  0.5521710000000 1.0
C      1  0.4878890000000  0.5814620000000  0.4465060000000 1.0
C      1  0.4844820000000  0.5768520000000  0.5585100000000 1.0
C      1  0.4888250000000  0.4166160000000  0.4473660000000 1.0
C      1  0.4586020000000  0.4849690000000  0.5972880000000 1.0
C      1  0.4597380000000  0.5137300000000  0.4033160000000 1.0
C      1  0.4578860000000  0.5129440000000  0.5972750000000 1.0
C      1  0.4601480000000  0.4854200000000  0.4032600000000 1.0
C      1  0.5096510000000  0.4804470000000  0.5454920000000 1.0
C      1  0.5096500000000  0.5204940000000  0.4555690000000 1.0
C      1  0.5104640000000  0.5209900000000  0.5458460000000 1.0
C      1  0.5177400000000  0.4775480000000  0.4569390000000 1.0
C      1  0.4294020000000  0.4859680000000  0.4463420000000 1.0
C      1  0.4309120000000  0.5118190000000  0.5553560000000 1.0
C      1  0.4295160000000  0.5139050000000  0.4463400000000 1.0
C      1  0.4304060000000  0.4835130000000  0.5544780000000 1.0
C      1  0.5203890000000  0.5012050000000  0.4739190000000 1.0
C      1  0.5213440000000  0.5015400000000  0.5298390000000 1.0
C      1  0.5136110000000  0.4996160000000  0.5032430000000 1.0
END
