TITL C-2441166-8118-804 0.0152017553874889 125000 -17292.0085775744 0 0 126 (C1) n - 1
REM
REM in /home/bkarasulu/work/CARBON/AIRSS/Generating-Clusters/ReaxFF-fromJPCA2015/Units_Real/with-SteepDescent/Higher-Symm
REM
REM
REM
REM
REM
REM ./C.cell (1df0a924f5614ab8850e4351716899ee)
REM
REM compiler GCC version 9.2.1 20190827 (Red Hat 9.2.1-1)
REM options -cpp -mtune=generic -march=x86-64 -g -O0 -fpre-include=/usr/include/finclude/math-vector-fortran.h
REM seed -1439076787 -1098030824 56262857 1718901311 2130111116 -1682111547 -2094317577 -34987570 2056324419 -1742841826 -1420136433 992559667 -896467150 1220739034 1875983144 467777015 -707350212 -116377382 -1031636740 285451093 -839276892 1445579251 341943949 -2068005064 117268460 -594436759 -553171032 136899165 -1964229638 793054060 -1740051828 -1535518689 744471306
REM
CELL 1.54180   50.00000   50.00000   50.00000   90.00000   90.00000   90.00000
LATT -1
SFAC C  
C      1  0.4855220000000  0.4631220000000  0.4721760000000 1.0
C      1  0.4712890000000  0.4858270000000  0.4634770000000 1.0
C      1  0.4625420000000  0.4716930000000  0.4859260000000 1.0
C      1  0.4858230000000  0.5360520000000  0.5263990000000 1.0
C      1  0.5138960000000  0.5368100000000  0.4722370000000 1.0
C      1  0.5140980000000  0.4633110000000  0.5270650000000 1.0
C      1  0.4718550000000  0.5134550000000  0.5364160000000 1.0
C      1  0.5276260000000  0.5138860000000  0.4636620000000 1.0
C      1  0.5278320000000  0.4860010000000  0.5361470000000 1.0
C      1  0.4623630000000  0.5266080000000  0.5134950000000 1.0
C      1  0.5371760000000  0.5277100000000  0.4861470000000 1.0
C      1  0.5371490000000  0.4724260000000  0.5136740000000 1.0
C      1  0.5131570000000  0.4626190000000  0.4733550000000 1.0
C      1  0.5264750000000  0.4861810000000  0.4639930000000 1.0
C      1  0.5364790000000  0.4719430000000  0.4867160000000 1.0
C      1  0.5136420000000  0.5359550000000  0.5265360000000 1.0
C      1  0.4860250000000  0.5360200000000  0.4734720000000 1.0
C      1  0.4862920000000  0.4636440000000  0.5260650000000 1.0
C      1  0.5276240000000  0.5131550000000  0.5357050000000 1.0
C      1  0.4718900000000  0.5129960000000  0.4639400000000 1.0
C      1  0.4721550000000  0.4863690000000  0.5361990000000 1.0
C      1  0.5370290000000  0.5268690000000  0.5130840000000 1.0
C      1  0.4623760000000  0.5267140000000  0.4865100000000 1.0
C      1  0.4628580000000  0.4733880000000  0.5130050000000 1.0
C      1  0.4373020000000  0.5755870000000  0.4483610000000 1.0
C      1  0.4478210000000  0.4373950000000  0.5761260000000 1.0
C      1  0.5763840000000  0.4473220000000  0.4378600000000 1.0
C      1  0.4374320000000  0.4237440000000  0.5519880000000 1.0
C      1  0.5624520000000  0.4234110000000  0.4486230000000 1.0
C      1  0.5627900000000  0.5754810000000  0.5517750000000 1.0
C      1  0.4480960000000  0.5622630000000  0.4242100000000 1.0
C      1  0.5528190000000  0.5618520000000  0.5759000000000 1.0
C      1  0.5523170000000  0.4369770000000  0.4244420000000 1.0
C      1  0.5765530000000  0.5514710000000  0.5619410000000 1.0
C      1  0.4238980000000  0.5515190000000  0.4373340000000 1.0
C      1  0.4238080000000  0.4476030000000  0.5623550000000 1.0
C      1  0.5624260000000  0.5759920000000  0.4483980000000 1.0
C      1  0.5528150000000  0.4372570000000  0.5761460000000 1.0
C      1  0.4239540000000  0.4478210000000  0.4375340000000 1.0
C      1  0.5627050000000  0.4235070000000  0.5520270000000 1.0
C      1  0.4374790000000  0.4236720000000  0.4480840000000 1.0
C      1  0.4372240000000  0.5753440000000  0.5517530000000 1.0
C      1  0.5523780000000  0.5624280000000  0.4241840000000 1.0
C      1  0.4475340000000  0.5618200000000  0.5759530000000 1.0
C      1  0.4481110000000  0.4373820000000  0.4240530000000 1.0
C      1  0.4236870000000  0.5513160000000  0.5619880000000 1.0
C      1  0.5765830000000  0.5522330000000  0.4375270000000 1.0
C      1  0.5766270000000  0.4473610000000  0.5622220000000 1.0
C      1  0.5612460000000  0.4527620000000  0.5143920000000 1.0
C      1  0.5148830000000  0.5609220000000  0.4525640000000 1.0
C      1  0.4527310000000  0.5138350000000  0.5602290000000 1.0
C      1  0.5608140000000  0.5469090000000  0.4855270000000 1.0
C      1  0.4387370000000  0.5463610000000  0.5142530000000 1.0
C      1  0.4387590000000  0.4524930000000  0.4852880000000 1.0
C      1  0.5152400000000  0.4370580000000  0.5476950000000 1.0
C      1  0.4854950000000  0.4383700000000  0.4521640000000 1.0
C      1  0.4850950000000  0.5628290000000  0.5479360000000 1.0
C      1  0.4525800000000  0.4851680000000  0.4393220000000 1.0
C      1  0.5470570000000  0.4849420000000  0.5611360000000 1.0
C      1  0.5482160000000  0.5149430000000  0.4371010000000 1.0
C      1  0.4386380000000  0.4529040000000  0.5143610000000 1.0
C      1  0.4858510000000  0.5615730000000  0.4520830000000 1.0
C      1  0.5469200000000  0.5142190000000  0.5608150000000 1.0
C      1  0.4390980000000  0.5466380000000  0.4854700000000 1.0
C      1  0.5608670000000  0.5462910000000  0.5141760000000 1.0
C      1  0.5604330000000  0.4528100000000  0.4856040000000 1.0
C      1  0.4852320000000  0.4367970000000  0.5478380000000 1.0
C      1  0.5146060000000  0.4387610000000  0.4529950000000 1.0
C      1  0.5151210000000  0.5622180000000  0.5475020000000 1.0
C      1  0.5479610000000  0.4847350000000  0.4373150000000 1.0
C      1  0.4529980000000  0.4854020000000  0.5600940000000 1.0
C      1  0.4526910000000  0.5140230000000  0.4393540000000 1.0
C      1  0.4790260000000  0.4196320000000  0.5240080000000 1.0
C      1  0.5243270000000  0.4786300000000  0.4202830000000 1.0
C      1  0.4194060000000  0.5232060000000  0.4781560000000 1.0
C      1  0.4783210000000  0.5800100000000  0.4759010000000 1.0
C      1  0.5211130000000  0.5794980000000  0.5239810000000 1.0
C      1  0.5214290000000  0.4194920000000  0.4762610000000 1.0
C      1  0.5241090000000  0.5206360000000  0.5792120000000 1.0
C      1  0.4763530000000  0.5213600000000  0.4203230000000 1.0
C      1  0.4763660000000  0.4782350000000  0.5792620000000 1.0
C      1  0.4200370000000  0.4753210000000  0.5210480000000 1.0
C      1  0.5798990000000  0.4764340000000  0.4787080000000 1.0
C      1  0.5797010000000  0.5234380000000  0.5207890000000 1.0
C      1  0.5210910000000  0.4198760000000  0.5240940000000 1.0
C      1  0.4764610000000  0.4783230000000  0.4201910000000 1.0
C      1  0.5803770000000  0.5232530000000  0.4781220000000 1.0
C      1  0.5215030000000  0.5798390000000  0.4763530000000 1.0
C      1  0.4789600000000  0.5797790000000  0.5238970000000 1.0
C      1  0.4782030000000  0.4192470000000  0.4760830000000 1.0
C      1  0.4762850000000  0.5212750000000  0.5794300000000 1.0
C      1  0.5242370000000  0.5207080000000  0.4201420000000 1.0
C      1  0.5241930000000  0.4786840000000  0.5793440000000 1.0
C      1  0.5797630000000  0.4754350000000  0.5210230000000 1.0
C      1  0.4195040000000  0.4764030000000  0.4787850000000 1.0
C      1  0.4199700000000  0.5234360000000  0.5208180000000 1.0
C      1  0.4251110000000  0.4736040000000  0.5490220000000 1.0
C      1  0.5497610000000  0.4253200000000  0.4745880000000 1.0
C      1  0.4743390000000  0.5498340000000  0.4257630000000 1.0
C      1  0.4252780000000  0.5254270000000  0.4499530000000 1.0
C      1  0.5750210000000  0.5254650000000  0.5488330000000 1.0
C      1  0.5749670000000  0.4734380000000  0.4504410000000 1.0
C      1  0.5491360000000  0.5743470000000  0.5260580000000 1.0
C      1  0.4500130000000  0.5739620000000  0.4743360000000 1.0
C      1  0.4510580000000  0.4250880000000  0.5262860000000 1.0
C      1  0.4739830000000  0.4497800000000  0.5745530000000 1.0
C      1  0.5264560000000  0.4505650000000  0.4256320000000 1.0
C      1  0.5267800000000  0.5487090000000  0.5748650000000 1.0
C      1  0.5752070000000  0.4733500000000  0.5489640000000 1.0
C      1  0.4499060000000  0.4251240000000  0.4742090000000 1.0
C      1  0.5265450000000  0.5487770000000  0.4252690000000 1.0
C      1  0.5754280000000  0.5260490000000  0.4498620000000 1.0
C      1  0.4250330000000  0.5252530000000  0.5489010000000 1.0
C      1  0.4251250000000  0.4737600000000  0.4506100000000 1.0
C      1  0.4509960000000  0.5742480000000  0.5261010000000 1.0
C      1  0.5498390000000  0.5742100000000  0.4744400000000 1.0
C      1  0.5491150000000  0.4247200000000  0.5262820000000 1.0
C      1  0.5268850000000  0.4506350000000  0.5751100000000 1.0
C      1  0.4743040000000  0.4498890000000  0.4253940000000 1.0
C      1  0.4738130000000  0.5496930000000  0.5746210000000 1.0
C      1  0.4971180000000  0.4999410000000  0.4152960000000 1.0
C      1  0.4997270000000  0.5847370000000  0.4969540000000 1.0
C      1  0.4995740000000  0.4145850000000  0.4969060000000 1.0
C      1  0.4972330000000  0.4998740000000  0.5844390000000 1.0
C      1  0.4144070000000  0.5004630000000  0.4978660000000 1.0
C      1  0.5853250000000  0.5003190000000  0.4976380000000 1.0
END
