TITL C-2441158-471-393 -0.000290819165107866 125000 -9093.57858167326 0 0 62 (C1) n - 1
REM
REM in /home/bkarasulu/work/CARBON/AIRSS/Generating-Clusters/ReaxFF-fromJPCA2015/Units_Real/with-SteepDescent/Higher-Symm
REM
REM
REM
REM
REM
REM ./C.cell (1df0a924f5614ab8850e4351716899ee)
REM
REM compiler GCC version 9.2.1 20190827 (Red Hat 9.2.1-1)
REM options -cpp -mtune=generic -march=x86-64 -g -O0 -fpre-include=/usr/include/finclude/math-vector-fortran.h
REM seed 1605913628 1037395363 15948186 440212898 -702736638 -287159498 157426831 -936530371 1149896298 -2043995019 -294458508 898179418 -1813493322 1728203452 -569519077 2100077289 397530397 -1737049233 623322751 1799885766 -1184232960 -254646360 -506327776 1783848892 1438259997 1085669090 2136146118 -176705434 1054324880 -1550073296 778712996 1727214540 -354091209
REM
CELL 1.54180   50.00000   50.00000   50.00000   90.00000   90.00000   90.00000
LATT -1
SFAC C  
C      1  0.5418840000000  0.4592310000000  0.5255280000000 1.0
C      1  0.4833230000000  0.5323350000000  0.5691730000000 1.0
C      1  0.4401100000000  0.5230450000000  0.5066690000000 1.0
C      1  0.4575890000000  0.5190490000000  0.4388880000000 1.0
C      1  0.4984280000000  0.5645050000000  0.5307210000000 1.0
C      1  0.5518970000000  0.5161320000000  0.4496070000000 1.0
C      1  0.4668330000000  0.4668620000000  0.4535060000000 1.0
C      1  0.4493220000000  0.4703550000000  0.5477290000000 1.0
C      1  0.5234260000000  0.4486280000000  0.5503120000000 1.0
C      1  0.4677970000000  0.5308590000000  0.5129160000000 1.0
C      1  0.5601290000000  0.5428490000000  0.4604710000000 1.0
C      1  0.4463320000000  0.4519030000000  0.4917000000000 1.0
C      1  0.5265670000000  0.5120520000000  0.4351220000000 1.0
C      1  0.5084290000000  0.5101630000000  0.4812210000000 1.0
C      1  0.4609000000000  0.5120480000000  0.5683230000000 1.0
C      1  0.5239990000000  0.5217570000000  0.5006690000000 1.0
C      1  0.5019550000000  0.5106170000000  0.5755900000000 1.0
C      1  0.4369300000000  0.5096410000000  0.4554130000000 1.0
C      1  0.5199660000000  0.5195160000000  0.5516360000000 1.0
C      1  0.5011990000000  0.5690050000000  0.5022930000000 1.0
C      1  0.5458690000000  0.4397670000000  0.5007580000000 1.0
C      1  0.4878720000000  0.4841200000000  0.4416980000000 1.0
C      1  0.4482990000000  0.4730470000000  0.5168500000000 1.0
C      1  0.4755230000000  0.4820490000000  0.5121900000000 1.0
C      1  0.5078490000000  0.5345680000000  0.4332900000000 1.0
C      1  0.5295190000000  0.4644320000000  0.4526890000000 1.0
C      1  0.5031410000000  0.5455070000000  0.5521090000000 1.0
C      1  0.5123180000000  0.5055330000000  0.5214890000000 1.0
C      1  0.5559810000000  0.4873970000000  0.5651900000000 1.0
C      1  0.4749400000000  0.4653280000000  0.5605750000000 1.0
C      1  0.5629490000000  0.5097460000000  0.5297510000000 1.0
C      1  0.5529320000000  0.5238760000000  0.5056160000000 1.0
C      1  0.4414520000000  0.4982150000000  0.5505750000000 1.0
C      1  0.4778770000000  0.5577370000000  0.5129910000000 1.0
C      1  0.5496520000000  0.5152730000000  0.5553030000000 1.0
C      1  0.5236960000000  0.4273720000000  0.4865730000000 1.0
C      1  0.4969430000000  0.4634540000000  0.5172540000000 1.0
C      1  0.5560690000000  0.4941490000000  0.4661260000000 1.0
C      1  0.4397900000000  0.4788480000000  0.4583980000000 1.0
C      1  0.4840470000000  0.5079430000000  0.5164190000000 1.0
C      1  0.4484030000000  0.5479920000000  0.4673140000000 1.0
C      1  0.4257150000000  0.4628260000000  0.4766750000000 1.0
C      1  0.4333930000000  0.4998810000000  0.5225600000000 1.0
C      1  0.4950210000000  0.4515920000000  0.5441670000000 1.0
C      1  0.4799160000000  0.4907580000000  0.5753060000000 1.0
C      1  0.5002250000000  0.5562050000000  0.4535670000000 1.0
C      1  0.5157380000000  0.5639440000000  0.4776470000000 1.0
C      1  0.4925240000000  0.4984690000000  0.4651920000000 1.0
C      1  0.5627040000000  0.4809100000000  0.5369260000000 1.0
C      1  0.5376180000000  0.4659010000000  0.5663770000000 1.0
C      1  0.5569760000000  0.4586150000000  0.4832530000000 1.0
C      1  0.4726430000000  0.5553430000000  0.4598280000000 1.0
C      1  0.5448250000000  0.5627720000000  0.4751580000000 1.0
C      1  0.5218550000000  0.4771880000000  0.5109790000000 1.0
C      1  0.4321580000000  0.5277520000000  0.4785420000000 1.0
C      1  0.4707220000000  0.4475030000000  0.4751960000000 1.0
C      1  0.4952190000000  0.4314130000000  0.4767700000000 1.0
C      1  0.4807810000000  0.5278860000000  0.4294690000000 1.0
C      1  0.5167570000000  0.4842090000000  0.4345460000000 1.0
C      1  0.5410400000000  0.4770010000000  0.4779430000000 1.0
C      1  0.5178850000000  0.4380780000000  0.4599450000000 1.0
C      1  0.5641490000000  0.5448480000000  0.4893060000000 1.0
END
