TITL C-2441156-4686-1239 0.0827270996860942 125000 -16582.1359417865 0 0 121 (C1) n - 1
REM
REM in /home/bkarasulu/work/CARBON/AIRSS/Generating-Clusters/ReaxFF-fromJPCA2015/Units_Real/with-SteepDescent/Higher-Symm
REM
REM
REM
REM
REM
REM ./C.cell (1df0a924f5614ab8850e4351716899ee)
REM
REM compiler GCC version 9.2.1 20190827 (Red Hat 9.2.1-1)
REM options -cpp -mtune=generic -march=x86-64 -g -O0 -fpre-include=/usr/include/finclude/math-vector-fortran.h
REM seed 1307461118 -825224840 -1814254120 1867830422 -932781594 788307876 -358708224 1898360 -1136117092 1550124668 -1009374653 85004847 701834050 932849488 1674548298 945439303 -1578686470 -649479702 -1501965132 -1870915215 -2132206155 -51683400 44624425 1491772712 391874855 851543481 -1151932790 -782124135 -2038251363 2034875006 997532767 -1303771336 -1251734922
REM
CELL 1.54180   50.00000   50.00000   50.00000   90.00000   90.00000   90.00000
LATT -1
SFAC C  
C      1  0.5049580000000  0.4890840000000  0.4635000000000 1.0
C      1  0.4444990000000  0.4901910000000  0.4991200000000 1.0
C      1  0.5356410000000  0.4921780000000  0.5314720000000 1.0
C      1  0.5765970000000  0.5573220000000  0.4903380000000 1.0
C      1  0.4544160000000  0.5535100000000  0.4393290000000 1.0
C      1  0.4702950000000  0.5579130000000  0.5699190000000 1.0
C      1  0.5337650000000  0.4364070000000  0.4374120000000 1.0
C      1  0.4310940000000  0.4369080000000  0.5037460000000 1.0
C      1  0.5434280000000  0.4358150000000  0.5589510000000 1.0
C      1  0.5040060000000  0.5364130000000  0.4816690000000 1.0
C      1  0.4901780000000  0.5441120000000  0.5059130000000 1.0
C      1  0.5138010000000  0.5357820000000  0.5200210000000 1.0
C      1  0.4696620000000  0.5380850000000  0.4179960000000 1.0
C      1  0.4489200000000  0.5377050000000  0.5701460000000 1.0
C      1  0.5877460000000  0.5356860000000  0.5071670000000 1.0
C      1  0.5394020000000  0.4579220000000  0.5777250000000 1.0
C      1  0.5624590000000  0.4741160000000  0.4278700000000 1.0
C      1  0.4048920000000  0.4724930000000  0.4871970000000 1.0
C      1  0.5066740000000  0.4034780000000  0.4658370000000 1.0
C      1  0.4768280000000  0.4121650000000  0.5088820000000 1.0
C      1  0.5175600000000  0.4151870000000  0.5186920000000 1.0
C      1  0.4320470000000  0.5238380000000  0.5502790000000 1.0
C      1  0.5791090000000  0.5261470000000  0.5332570000000 1.0
C      1  0.4955280000000  0.5217100000000  0.4143310000000 1.0
C      1  0.4194620000000  0.5068010000000  0.5027340000000 1.0
C      1  0.5396850000000  0.5050930000000  0.5781520000000 1.0
C      1  0.5471570000000  0.5118520000000  0.4223330000000 1.0
C      1  0.4916770000000  0.5364490000000  0.4583210000000 1.0
C      1  0.4721790000000  0.5299360000000  0.5242620000000 1.0
C      1  0.5392160000000  0.5328890000000  0.5099270000000 1.0
C      1  0.5246370000000  0.4679130000000  0.5267930000000 1.0
C      1  0.5112010000000  0.4470760000000  0.4773790000000 1.0
C      1  0.4787530000000  0.4568290000000  0.5052940000000 1.0
C      1  0.4960930000000  0.4457800000000  0.4531220000000 1.0
C      1  0.4616890000000  0.4470380000000  0.5285070000000 1.0
C      1  0.5454520000000  0.4479900000000  0.5196490000000 1.0
C      1  0.5688640000000  0.5657230000000  0.5296030000000 1.0
C      1  0.4904930000000  0.5683420000000  0.4258070000000 1.0
C      1  0.4422390000000  0.5686090000000  0.5426420000000 1.0
C      1  0.4629890000000  0.5136680000000  0.5798950000000 1.0
C      1  0.5888330000000  0.5114230000000  0.4895130000000 1.0
C      1  0.4613610000000  0.5142620000000  0.4339890000000 1.0
C      1  0.4733810000000  0.5744680000000  0.4480950000000 1.0
C      1  0.4680000000000  0.5776800000000  0.5476350000000 1.0
C      1  0.5581210000000  0.5752030000000  0.5048470000000 1.0
C      1  0.5234250000000  0.4724430000000  0.4795300000000 1.0
C      1  0.4790910000000  0.4791620000000  0.4781070000000 1.0
C      1  0.4958800000000  0.4711970000000  0.5226370000000 1.0
C      1  0.4678420000000  0.4675880000000  0.5638500000000 1.0
C      1  0.5714550000000  0.4674650000000  0.4934180000000 1.0
C      1  0.4583070000000  0.4649420000000  0.4340100000000 1.0
C      1  0.4940230000000  0.5436070000000  0.5781270000000 1.0
C      1  0.5714140000000  0.5428090000000  0.4653820000000 1.0
C      1  0.4342970000000  0.5365040000000  0.4546870000000 1.0
C      1  0.5686700000000  0.4469100000000  0.4723060000000 1.0
C      1  0.4426230000000  0.4515440000000  0.4560600000000 1.0
C      1  0.4896980000000  0.4510420000000  0.5736820000000 1.0
C      1  0.4301720000000  0.4945750000000  0.5529160000000 1.0
C      1  0.5691510000000  0.4960060000000  0.5309770000000 1.0
C      1  0.4963450000000  0.4940600000000  0.4258710000000 1.0
C      1  0.4675040000000  0.4891900000000  0.4216330000000 1.0
C      1  0.4504190000000  0.4887460000000  0.5729270000000 1.0
C      1  0.5860930000000  0.4884640000000  0.5063430000000 1.0
C      1  0.5506990000000  0.5310730000000  0.5362110000000 1.0
C      1  0.5080110000000  0.5311550000000  0.4375600000000 1.0
C      1  0.4443160000000  0.5295520000000  0.5248520000000 1.0
C      1  0.5529320000000  0.4235340000000  0.4791580000000 1.0
C      1  0.4561680000000  0.4259720000000  0.4661770000000 1.0
C      1  0.4935230000000  0.4269470000000  0.5571470000000 1.0
C      1  0.4731910000000  0.4209760000000  0.5365090000000 1.0
C      1  0.5432790000000  0.4216990000000  0.5067820000000 1.0
C      1  0.4828160000000  0.4192130000000  0.4564070000000 1.0
C      1  0.4370740000000  0.5477330000000  0.4811120000000 1.0
C      1  0.5164080000000  0.5476500000000  0.5640120000000 1.0
C      1  0.5474210000000  0.5485820000000  0.4544750000000 1.0
C      1  0.5120280000000  0.5817960000000  0.5255090000000 1.0
C      1  0.5158960000000  0.5809370000000  0.4771720000000 1.0
C      1  0.4726960000000  0.5799430000000  0.4970230000000 1.0
C      1  0.5352820000000  0.5339790000000  0.4348760000000 1.0
C      1  0.4255110000000  0.5369530000000  0.5048810000000 1.0
C      1  0.5386680000000  0.5303860000000  0.5636880000000 1.0
C      1  0.4700810000000  0.5188210000000  0.4608860000000 1.0
C      1  0.4861030000000  0.5096500000000  0.5388570000000 1.0
C      1  0.5422730000000  0.5116010000000  0.4903740000000 1.0
C      1  0.5640490000000  0.4482690000000  0.5420190000000 1.0
C      1  0.5099020000000  0.4497770000000  0.4273770000000 1.0
C      1  0.4323250000000  0.4487320000000  0.5304170000000 1.0
C      1  0.5128710000000  0.4967810000000  0.5844450000000 1.0
C      1  0.5676230000000  0.5008920000000  0.4391460000000 1.0
C      1  0.4080950000000  0.4982720000000  0.4738420000000 1.0
C      1  0.5471540000000  0.4830050000000  0.4911390000000 1.0
C      1  0.4515140000000  0.4811370000000  0.4575610000000 1.0
C      1  0.4782540000000  0.4827840000000  0.5415820000000 1.0
C      1  0.5123230000000  0.4676730000000  0.5816200000000 1.0
C      1  0.5549670000000  0.4540390000000  0.4474880000000 1.0
C      1  0.4329640000000  0.4631800000000  0.4883000000000 1.0
C      1  0.5177470000000  0.5125430000000  0.4762820000000 1.0
C      1  0.4668770000000  0.5036780000000  0.4875650000000 1.0
C      1  0.5134710000000  0.5103530000000  0.5318830000000 1.0
C      1  0.4876470000000  0.5815640000000  0.4731310000000 1.0
C      1  0.4841350000000  0.5832880000000  0.5232350000000 1.0
C      1  0.5291350000000  0.5815560000000  0.5022970000000 1.0
C      1  0.5393450000000  0.4852420000000  0.4127370000000 1.0
C      1  0.4016730000000  0.4841710000000  0.5134980000000 1.0
C      1  0.5569160000000  0.4812800000000  0.5747480000000 1.0
C      1  0.4179440000000  0.4740750000000  0.5357750000000 1.0
C      1  0.5727400000000  0.4744830000000  0.5516790000000 1.0
C      1  0.5130520000000  0.4746940000000  0.4153270000000 1.0
C      1  0.5200830000000  0.4213190000000  0.5471100000000 1.0
C      1  0.5329520000000  0.4155990000000  0.4585610000000 1.0
C      1  0.4522320000000  0.4184780000000  0.4936280000000 1.0
C      1  0.5322010000000  0.5724990000000  0.4542580000000 1.0
C      1  0.4449170000000  0.5719300000000  0.4941160000000 1.0
C      1  0.5223740000000  0.5721600000000  0.5511310000000 1.0
C      1  0.5503030000000  0.5677370000000  0.5504030000000 1.0
C      1  0.5174290000000  0.5692830000000  0.4307520000000 1.0
C      1  0.4293180000000  0.5668560000000  0.5179680000000 1.0
C      1  0.5788730000000  0.5151190000000  0.4623690000000 1.0
C      1  0.4296980000000  0.5065890000000  0.4569170000000 1.0
C      1  0.4909630000000  0.5162120000000  0.5852510000000 1.0
C      1  0.4987510000000  0.4317720000000  0.5002430000000 1.0
END
