TITL C-2441157-2117-1184 0.142516661207032 125000 -14478.7511543881 0 0 122 (C1) n - 1
REM
REM in /home/bkarasulu/work/CARBON/AIRSS/Generating-Clusters/ReaxFF-fromJPCA2015/Units_Real/with-SteepDescent/Higher-Symm
REM
REM
REM
REM
REM
REM ./C.cell (1df0a924f5614ab8850e4351716899ee)
REM
REM compiler GCC version 9.2.1 20190827 (Red Hat 9.2.1-1)
REM options -cpp -mtune=generic -march=x86-64 -g -O0 -fpre-include=/usr/include/finclude/math-vector-fortran.h
REM seed 760350346 1316243662 1884987732 -654499029 -452028206 -269081702 -1254070185 897709716 1168868644 -941139284 2054257488 1152129203 2029613883 -1882071529 553622874 1560860867 -1457407411 1605628797 -556778294 2125502731 -607389505 -1213409422 1791137542 -207157290 -1785313204 896002192 -117529123 -1247044711 153471855 318456670 -1435694110 -323351732 2067862377
REM
CELL 1.54180   50.00000   50.00000   50.00000   90.00000   90.00000   90.00000
LATT -1
SFAC C  
C      1  0.4494470000000  0.4697470000000  0.5795180000000 1.0
C      1  0.5504800000000  0.4707180000000  0.5794960000000 1.0
C      1  0.5541130000000  0.5321010000000  0.4306390000000 1.0
C      1  0.4461480000000  0.5324680000000  0.4313170000000 1.0
C      1  0.4703580000000  0.4522340000000  0.5694830000000 1.0
C      1  0.5320780000000  0.4495450000000  0.5703650000000 1.0
C      1  0.4850330000000  0.5162110000000  0.5379930000000 1.0
C      1  0.5140160000000  0.5163500000000  0.5380140000000 1.0
C      1  0.5832760000000  0.5062200000000  0.5372300000000 1.0
C      1  0.4158940000000  0.5059120000000  0.5382650000000 1.0
C      1  0.4131530000000  0.5169400000000  0.5115460000000 1.0
C      1  0.5846020000000  0.5173740000000  0.5109940000000 1.0
C      1  0.5683010000000  0.5550980000000  0.5332850000000 1.0
C      1  0.4325480000000  0.5544310000000  0.5330660000000 1.0
C      1  0.5140750000000  0.5524200000000  0.4902130000000 1.0
C      1  0.4844110000000  0.5531490000000  0.4879570000000 1.0
C      1  0.4852430000000  0.4134280000000  0.4947300000000 1.0
C      1  0.5151900000000  0.4126150000000  0.4948920000000 1.0
C      1  0.4194870000000  0.5538500000000  0.4853430000000 1.0
C      1  0.5813980000000  0.5538440000000  0.4858210000000 1.0
C      1  0.5690310000000  0.4337620000000  0.5109380000000 1.0
C      1  0.4309960000000  0.4342830000000  0.5110970000000 1.0
C      1  0.5140640000000  0.4827470000000  0.4479920000000 1.0
C      1  0.4872870000000  0.4755470000000  0.4505740000000 1.0
C      1  0.4617430000000  0.4483790000000  0.4307900000000 1.0
C      1  0.5371310000000  0.4487380000000  0.4306710000000 1.0
C      1  0.5824570000000  0.5374170000000  0.4643470000000 1.0
C      1  0.4186870000000  0.5370140000000  0.4638020000000 1.0
C      1  0.4760910000000  0.5395900000000  0.5756360000000 1.0
C      1  0.5241710000000  0.5412250000000  0.5764340000000 1.0
C      1  0.5380150000000  0.4959090000000  0.5867240000000 1.0
C      1  0.4603980000000  0.4958760000000  0.5883270000000 1.0
C      1  0.4527800000000  0.5700570000000  0.5222550000000 1.0
C      1  0.5474030000000  0.5702340000000  0.5230960000000 1.0
C      1  0.5622070000000  0.4238890000000  0.4835970000000 1.0
C      1  0.4378620000000  0.4244550000000  0.4839120000000 1.0
C      1  0.5486490000000  0.5374350000000  0.5646570000000 1.0
C      1  0.4513060000000  0.5365940000000  0.5647460000000 1.0
C      1  0.5919800000000  0.4708030000000  0.4944810000000 1.0
C      1  0.4080040000000  0.4699780000000  0.4946140000000 1.0
C      1  0.5172550000000  0.4513520000000  0.4720710000000 1.0
C      1  0.4877340000000  0.4524350000000  0.4693990000000 1.0
C      1  0.4793240000000  0.4844310000000  0.5015630000000 1.0
C      1  0.5199000000000  0.4845930000000  0.5018090000000 1.0
C      1  0.5286940000000  0.5440970000000  0.4237910000000 1.0
C      1  0.4707160000000  0.5451900000000  0.4232910000000 1.0
C      1  0.4369320000000  0.4703830000000  0.4910580000000 1.0
C      1  0.5627630000000  0.4692930000000  0.4914060000000 1.0
C      1  0.5537860000000  0.5030170000000  0.4350560000000 1.0
C      1  0.4460690000000  0.5027720000000  0.4348130000000 1.0
C      1  0.4647010000000  0.5348680000000  0.4741040000000 1.0
C      1  0.5382250000000  0.5291100000000  0.4718230000000 1.0
C      1  0.4571800000000  0.4247510000000  0.5235180000000 1.0
C      1  0.5435390000000  0.4240180000000  0.5233490000000 1.0
C      1  0.4734270000000  0.5808480000000  0.4888580000000 1.0
C      1  0.5263260000000  0.5792090000000  0.4890820000000 1.0
C      1  0.4370980000000  0.4607660000000  0.4421310000000 1.0
C      1  0.5614450000000  0.4616180000000  0.4422280000000 1.0
C      1  0.4501200000000  0.4921800000000  0.5605560000000 1.0
C      1  0.5486530000000  0.4925870000000  0.5604030000000 1.0
C      1  0.4764300000000  0.4391020000000  0.5055810000000 1.0
C      1  0.5235630000000  0.4389760000000  0.5055350000000 1.0
C      1  0.4355150000000  0.5271590000000  0.5447240000000 1.0
C      1  0.5643890000000  0.5276540000000  0.5447700000000 1.0
C      1  0.5487360000000  0.4888920000000  0.5079100000000 1.0
C      1  0.4505260000000  0.4903110000000  0.5070650000000 1.0
C      1  0.4868630000000  0.5538370000000  0.5517610000000 1.0
C      1  0.5127620000000  0.5539160000000  0.5516800000000 1.0
C      1  0.5532650000000  0.4787600000000  0.5363270000000 1.0
C      1  0.4467980000000  0.4793460000000  0.5358410000000 1.0
C      1  0.5887950000000  0.4561500000000  0.5194050000000 1.0
C      1  0.4112970000000  0.4557950000000  0.5196530000000 1.0
C      1  0.4761380000000  0.5751490000000  0.5347040000000 1.0
C      1  0.5236100000000  0.5750890000000  0.5349650000000 1.0
C      1  0.4853460000000  0.5636650000000  0.4414550000000 1.0
C      1  0.5140610000000  0.5632680000000  0.4418020000000 1.0
C      1  0.5135420000000  0.4875390000000  0.5308510000000 1.0
C      1  0.4859980000000  0.4876090000000  0.5301620000000 1.0
C      1  0.5125360000000  0.4494830000000  0.5296660000000 1.0
C      1  0.4872670000000  0.4498870000000  0.5295110000000 1.0
C      1  0.4229400000000  0.4864810000000  0.4403680000000 1.0
C      1  0.5765380000000  0.4858340000000  0.4387380000000 1.0
C      1  0.5953050000000  0.4991890000000  0.4904650000000 1.0
C      1  0.4046080000000  0.4988790000000  0.4895780000000 1.0
C      1  0.4863820000000  0.5111170000000  0.5839500000000 1.0
C      1  0.5151820000000  0.5139230000000  0.5868430000000 1.0
C      1  0.4505700000000  0.5220480000000  0.4978020000000 1.0
C      1  0.5505640000000  0.5212400000000  0.4988690000000 1.0
C      1  0.5863010000000  0.5471420000000  0.5118200000000 1.0
C      1  0.4147960000000  0.5467820000000  0.5113970000000 1.0
C      1  0.4490830000000  0.4703180000000  0.4673310000000 1.0
C      1  0.5473880000000  0.4705920000000  0.4677250000000 1.0
C      1  0.5136490000000  0.5111490000000  0.4508720000000 1.0
C      1  0.4832670000000  0.5144860000000  0.4534410000000 1.0
C      1  0.4861220000000  0.5907880000000  0.5126390000000 1.0
C      1  0.5140550000000  0.5906780000000  0.5128110000000 1.0
C      1  0.4171850000000  0.5053740000000  0.4644100000000 1.0
C      1  0.5823540000000  0.5050630000000  0.4651190000000 1.0
C      1  0.4744810000000  0.4324610000000  0.4518710000000 1.0
C      1  0.5259130000000  0.4317160000000  0.4517470000000 1.0
C      1  0.5113430000000  0.5100140000000  0.4933930000000 1.0
C      1  0.4872130000000  0.5105630000000  0.4942510000000 1.0
C      1  0.5285990000000  0.4329190000000  0.5467010000000 1.0
C      1  0.4720350000000  0.4337300000000  0.5476040000000 1.0
C      1  0.4184260000000  0.4766660000000  0.5388220000000 1.0
C      1  0.5817900000000  0.4771150000000  0.5387290000000 1.0
C      1  0.4845980000000  0.5197720000000  0.4221690000000 1.0
C      1  0.5133980000000  0.5191960000000  0.4219040000000 1.0
C      1  0.5500000000000  0.5001000000000  0.4639710000000 1.0
C      1  0.4553870000000  0.4970940000000  0.4613690000000 1.0
C      1  0.4885150000000  0.4753590000000  0.5678120000000 1.0
C      1  0.5111180000000  0.4673020000000  0.5701520000000 1.0
C      1  0.5246520000000  0.5306820000000  0.5113000000000 1.0
C      1  0.4744680000000  0.5298090000000  0.5125780000000 1.0
C      1  0.4848410000000  0.4647240000000  0.4230090000000 1.0
C      1  0.5144450000000  0.4661370000000  0.4233500000000 1.0
C      1  0.4852800000000  0.5852180000000  0.4624240000000 1.0
C      1  0.5147010000000  0.5847300000000  0.4625240000000 1.0
C      1  0.4447040000000  0.5483990000000  0.4559790000000 1.0
C      1  0.5566820000000  0.5482930000000  0.4551220000000 1.0
C      1  0.5362280000000  0.4139630000000  0.4733460000000 1.0
C      1  0.4640600000000  0.4152620000000  0.4731600000000 1.0
END
