TITL C-2441169-1362-1413 0.145927848493165 125000 -24850.6778157433 0 0 188 (C1) n - 1
REM
REM in /home/bkarasulu/work/CARBON/AIRSS/Generating-Clusters/ReaxFF-fromJPCA2015/Units_Real/with-SteepDescent/Higher-Symm
REM
REM
REM
REM
REM
REM ./C.cell (1df0a924f5614ab8850e4351716899ee)
REM
REM compiler GCC version 9.2.1 20190827 (Red Hat 9.2.1-1)
REM options -cpp -mtune=generic -march=x86-64 -g -O0 -fpre-include=/usr/include/finclude/math-vector-fortran.h
REM seed -1071028530 324610531 1865610241 -794155028 956530065 -2096768023 -2138226726 -823214800 -724778394 -1529074975 125089496 -1826481687 360761849 540843958 -3114186 -612663948 -2121371662 941484567 300593022 -898868359 1240492837 -1380693349 -163232610 1472185438 1855321669 -1098986038 37565576 -1960823154 -664393079 -1474891597 -710403405 304721500 1225551386
REM
CELL 1.54180   50.00000   50.00000   50.00000   90.00000   90.00000   90.00000
LATT -1
SFAC C  
C      1  0.4519200000000  0.5395680000000  0.5794820000000 1.0
C      1  0.4104810000000  0.5448670000000  0.4759670000000 1.0
C      1  0.4925560000000  0.5464410000000  0.3903070000000 1.0
C      1  0.5939530000000  0.5512550000000  0.4603590000000 1.0
C      1  0.5678480000000  0.5420300000000  0.5736650000000 1.0
C      1  0.3945940000000  0.4714990000000  0.4829660000000 1.0
C      1  0.4928490000000  0.4785170000000  0.3994870000000 1.0
C      1  0.6040080000000  0.4777320000000  0.4542010000000 1.0
C      1  0.5673430000000  0.4674280000000  0.5731680000000 1.0
C      1  0.4474120000000  0.4776590000000  0.5851410000000 1.0
C      1  0.5318550000000  0.4631620000000  0.5118790000000 1.0
C      1  0.4902600000000  0.4567020000000  0.5395120000000 1.0
C      1  0.4753780000000  0.4573770000000  0.4986920000000 1.0
C      1  0.4843450000000  0.4694830000000  0.4623100000000 1.0
C      1  0.5218710000000  0.4556640000000  0.4834070000000 1.0
C      1  0.5125580000000  0.4720990000000  0.5331970000000 1.0
C      1  0.4693570000000  0.4661140000000  0.5246850000000 1.0
C      1  0.4672790000000  0.4803780000000  0.4816830000000 1.0
C      1  0.5108620000000  0.4784870000000  0.4688810000000 1.0
C      1  0.5453550000000  0.4888520000000  0.5052290000000 1.0
C      1  0.4746770000000  0.5039630000000  0.4422590000000 1.0
C      1  0.5572540000000  0.4969380000000  0.4575400000000 1.0
C      1  0.5573790000000  0.4966350000000  0.5320530000000 1.0
C      1  0.4734700000000  0.5027650000000  0.5524490000000 1.0
C      1  0.4301210000000  0.5001930000000  0.5024200000000 1.0
C      1  0.5197860000000  0.5252140000000  0.4588750000000 1.0
C      1  0.5259570000000  0.5368350000000  0.5024230000000 1.0
C      1  0.5025530000000  0.5529750000000  0.5354620000000 1.0
C      1  0.4754200000000  0.5372900000000  0.5071430000000 1.0
C      1  0.4788780000000  0.5481310000000  0.4685270000000 1.0
C      1  0.5507910000000  0.5266780000000  0.4612270000000 1.0
C      1  0.5482340000000  0.5242870000000  0.5381670000000 1.0
C      1  0.4711440000000  0.5300440000000  0.5601150000000 1.0
C      1  0.4300600000000  0.5278080000000  0.4901970000000 1.0
C      1  0.4864220000000  0.5290360000000  0.4328290000000 1.0
C      1  0.4234990000000  0.5365440000000  0.4506450000000 1.0
C      1  0.5271860000000  0.5400680000000  0.4086250000000 1.0
C      1  0.5993070000000  0.5460370000000  0.4899300000000 1.0
C      1  0.5424110000000  0.5388100000000  0.5885410000000 1.0
C      1  0.4193000000000  0.5423650000000  0.5566830000000 1.0
C      1  0.4160450000000  0.5387770000000  0.5157440000000 1.0
C      1  0.4584310000000  0.5365690000000  0.4283660000000 1.0
C      1  0.5581730000000  0.5331790000000  0.4332920000000 1.0
C      1  0.5718440000000  0.5347680000000  0.5260810000000 1.0
C      1  0.4940620000000  0.5358810000000  0.5836940000000 1.0
C      1  0.4030560000000  0.5110090000000  0.4539920000000 1.0
C      1  0.5097940000000  0.5233020000000  0.3854810000000 1.0
C      1  0.6063550000000  0.5163220000000  0.4836620000000 1.0
C      1  0.5502750000000  0.5097770000000  0.5974470000000 1.0
C      1  0.4273670000000  0.5214270000000  0.5778570000000 1.0
C      1  0.3801030000000  0.5098280000000  0.5040640000000 1.0
C      1  0.4606210000000  0.5104750000000  0.3862220000000 1.0
C      1  0.5867340000000  0.4998540000000  0.4410720000000 1.0
C      1  0.5845970000000  0.5168120000000  0.5718800000000 1.0
C      1  0.4631330000000  0.5113340000000  0.6149720000000 1.0
C      1  0.4796850000000  0.5071650000000  0.4944410000000 1.0
C      1  0.5066270000000  0.5043200000000  0.4799300000000 1.0
C      1  0.5222910000000  0.5084110000000  0.5049250000000 1.0
C      1  0.5059150000000  0.4998680000000  0.5282110000000 1.0
C      1  0.4770470000000  0.4971060000000  0.5239900000000 1.0
C      1  0.5919530000000  0.4937140000000  0.4964070000000 1.0
C      1  0.5327380000000  0.4863490000000  0.6012860000000 1.0
C      1  0.4213270000000  0.4940240000000  0.5562260000000 1.0
C      1  0.4132470000000  0.4876500000000  0.4412030000000 1.0
C      1  0.5304600000000  0.4942780000000  0.3972650000000 1.0
C      1  0.5187050000000  0.5680190000000  0.5873030000000 1.0
C      1  0.4182950000000  0.5695090000000  0.5434280000000 1.0
C      1  0.4338280000000  0.5657410000000  0.4379860000000 1.0
C      1  0.5336540000000  0.5681840000000  0.4174890000000 1.0
C      1  0.5937520000000  0.5703510000000  0.5114530000000 1.0
C      1  0.6026800000000  0.4705670000000  0.4815910000000 1.0
C      1  0.5418690000000  0.4623120000000  0.5878120000000 1.0
C      1  0.4319510000000  0.4683110000000  0.5613530000000 1.0
C      1  0.4077460000000  0.4654320000000  0.4582210000000 1.0
C      1  0.5193470000000  0.4687820000000  0.4015620000000 1.0
C      1  0.5236650000000  0.5972530000000  0.4930670000000 1.0
C      1  0.5189850000000  0.6018300000000  0.5206170000000 1.0
C      1  0.4928420000000  0.5982020000000  0.5245110000000 1.0
C      1  0.4786360000000  0.5946840000000  0.5009400000000 1.0
C      1  0.4982610000000  0.5946770000000  0.4790900000000 1.0
C      1  0.5450410000000  0.4111890000000  0.4461460000000 1.0
C      1  0.5667080000000  0.4139720000000  0.5288080000000 1.0
C      1  0.4933690000000  0.4102410000000  0.5726420000000 1.0
C      1  0.4272690000000  0.4097540000000  0.5167290000000 1.0
C      1  0.4638620000000  0.4102580000000  0.4385880000000 1.0
C      1  0.4472450000000  0.5259480000000  0.4049390000000 1.0
C      1  0.5755320000000  0.5154860000000  0.4192680000000 1.0
C      1  0.6005130000000  0.5333860000000  0.5342290000000 1.0
C      1  0.4865580000000  0.5254520000000  0.6087500000000 1.0
C      1  0.3909020000000  0.5275120000000  0.5212860000000 1.0
C      1  0.4412350000000  0.4529270000000  0.4231280000000 1.0
C      1  0.5661270000000  0.4550890000000  0.4278740000000 1.0
C      1  0.5920310000000  0.4579290000000  0.5287340000000 1.0
C      1  0.4919300000000  0.4521630000000  0.6059020000000 1.0
C      1  0.3988940000000  0.4607030000000  0.5126670000000 1.0
C      1  0.5162180000000  0.5871260000000  0.5663420000000 1.0
C      1  0.4430010000000  0.5834130000000  0.5364530000000 1.0
C      1  0.4451320000000  0.5834180000000  0.4567250000000 1.0
C      1  0.5251500000000  0.5826390000000  0.4412570000000 1.0
C      1  0.5687510000000  0.5834780000000  0.5095100000000 1.0
C      1  0.4416960000000  0.5033140000000  0.5972960000000 1.0
C      1  0.3906980000000  0.4997300000000  0.4783400000000 1.0
C      1  0.4884860000000  0.5032110000000  0.3857890000000 1.0
C      1  0.6102710000000  0.5053920000000  0.4574760000000 1.0
C      1  0.5724140000000  0.4947230000000  0.5861570000000 1.0
C      1  0.5588200000000  0.5807860000000  0.5376160000000 1.0
C      1  0.4910820000000  0.5813740000000  0.5473460000000 1.0
C      1  0.4514200000000  0.5888000000000  0.5077210000000 1.0
C      1  0.4710540000000  0.5851040000000  0.4399980000000 1.0
C      1  0.5496690000000  0.5818040000000  0.4583870000000 1.0
C      1  0.5610420000000  0.5610450000000  0.4243040000000 1.0
C      1  0.5986280000000  0.5621480000000  0.5386610000000 1.0
C      1  0.4905110000000  0.5654080000000  0.5925520000000 1.0
C      1  0.4056360000000  0.5668430000000  0.5180170000000 1.0
C      1  0.4552350000000  0.5743310000000  0.4179780000000 1.0
C      1  0.5500650000000  0.5892480000000  0.4861190000000 1.0
C      1  0.5340960000000  0.5935200000000  0.5440380000000 1.0
C      1  0.4621300000000  0.5822640000000  0.5578210000000 1.0
C      1  0.4348180000000  0.5858490000000  0.4847570000000 1.0
C      1  0.4981220000000  0.5893170000000  0.4509810000000 1.0
C      1  0.4641320000000  0.4354900000000  0.4245940000000 1.0
C      1  0.5611930000000  0.4353700000000  0.4494390000000 1.0
C      1  0.5750130000000  0.4393460000000  0.5433520000000 1.0
C      1  0.4819430000000  0.4337530000000  0.5858540000000 1.0
C      1  0.4160450000000  0.4349850000000  0.5064830000000 1.0
C      1  0.5513500000000  0.4811120000000  0.4310340000000 1.0
C      1  0.5908640000000  0.4879390000000  0.5285270000000 1.0
C      1  0.5039780000000  0.4798910000000  0.6054330000000 1.0
C      1  0.4158030000000  0.4890220000000  0.5270960000000 1.0
C      1  0.4336970000000  0.4808680000000  0.4217040000000 1.0
C      1  0.5535750000000  0.4748980000000  0.5494970000000 1.0
C      1  0.4733610000000  0.4822410000000  0.5722560000000 1.0
C      1  0.4392050000000  0.4783930000000  0.4876880000000 1.0
C      1  0.4799560000000  0.4814120000000  0.4249610000000 1.0
C      1  0.5619060000000  0.4820790000000  0.4821300000000 1.0
C      1  0.4524400000000  0.4010830000000  0.5046140000000 1.0
C      1  0.4804920000000  0.3972150000000  0.4592290000000 1.0
C      1  0.5329860000000  0.3998700000000  0.4701790000000 1.0
C      1  0.5393050000000  0.4037890000000  0.5237490000000 1.0
C      1  0.4893670000000  0.4035180000000  0.5440100000000 1.0
C      1  0.5089380000000  0.4402050000000  0.4390920000000 1.0
C      1  0.5708360000000  0.4364220000000  0.4917860000000 1.0
C      1  0.5297230000000  0.4351220000000  0.5567460000000 1.0
C      1  0.4553660000000  0.4261460000000  0.5432340000000 1.0
C      1  0.4436930000000  0.4362470000000  0.4685870000000 1.0
C      1  0.4778490000000  0.4062570000000  0.5178670000000 1.0
C      1  0.4570210000000  0.3953240000000  0.4765670000000 1.0
C      1  0.5046490000000  0.3999850000000  0.4748240000000 1.0
C      1  0.5470190000000  0.3983380000000  0.4959910000000 1.0
C      1  0.5180000000000  0.3967880000000  0.5421940000000 1.0
C      1  0.5251770000000  0.4203930000000  0.4267090000000 1.0
C      1  0.5719200000000  0.4105160000000  0.5006650000000 1.0
C      1  0.5225800000000  0.4094660000000  0.5677820000000 1.0
C      1  0.4321820000000  0.4088000000000  0.5476240000000 1.0
C      1  0.4418230000000  0.4101600000000  0.4575490000000 1.0
C      1  0.5538470000000  0.4521850000000  0.4743130000000 1.0
C      1  0.5478630000000  0.4494050000000  0.5393420000000 1.0
C      1  0.4885100000000  0.4583830000000  0.5668200000000 1.0
C      1  0.4347520000000  0.4501900000000  0.4909050000000 1.0
C      1  0.4831790000000  0.4542200000000  0.4384180000000 1.0
C      1  0.5572700000000  0.4968400000000  0.4064750000000 1.0
C      1  0.6005290000000  0.5086810000000  0.5482460000000 1.0
C      1  0.4896820000000  0.5011240000000  0.6190980000000 1.0
C      1  0.3908900000000  0.5031660000000  0.5310900000000 1.0
C      1  0.4382360000000  0.5003070000000  0.4013040000000 1.0
C      1  0.5198330000000  0.5306030000000  0.5732390000000 1.0
C      1  0.4364420000000  0.5335950000000  0.5354480000000 1.0
C      1  0.4498730000000  0.5216970000000  0.4518610000000 1.0
C      1  0.5258840000000  0.5214950000000  0.4302160000000 1.0
C      1  0.5716990000000  0.5381390000000  0.5000700000000 1.0
C      1  0.5197140000000  0.4575090000000  0.5700420000000 1.0
C      1  0.4466290000000  0.4533170000000  0.5405390000000 1.0
C      1  0.4302330000000  0.4504750000000  0.4493720000000 1.0
C      1  0.5257200000000  0.4482610000000  0.4201510000000 1.0
C      1  0.5937490000000  0.4506080000000  0.5006620000000 1.0
C      1  0.4102500000000  0.5708100000000  0.4898870000000 1.0
C      1  0.4773240000000  0.5623770000000  0.4051130000000 1.0
C      1  0.5753980000000  0.5702190000000  0.4478910000000 1.0
C      1  0.5748030000000  0.5646590000000  0.5562760000000 1.0
C      1  0.4623060000000  0.5668480000000  0.5822080000000 1.0
C      1  0.4632260000000  0.5411300000000  0.5336210000000 1.0
C      1  0.4578190000000  0.5458310000000  0.4828760000000 1.0
C      1  0.4991100000000  0.5472120000000  0.4530710000000 1.0
C      1  0.5485310000000  0.5419270000000  0.4863040000000 1.0
C      1  0.5240690000000  0.5371900000000  0.5468270000000 1.0
C      1  0.4977480000000  0.4406400000000  0.4927120000000 1.0
C      1  0.5015810000000  0.5504520000000  0.5072670000000 1.0
C      1  0.4983070000000  0.4132400000000  0.4995470000000 1.0
END
