TITL C-2441164-471-393 0.0703551497967356 125000 -10634.9237297499 0 0 87 (C1) n - 1
REM
REM in /home/bkarasulu/work/CARBON/AIRSS/Generating-Clusters/ReaxFF-fromJPCA2015/Units_Real/with-SteepDescent/Higher-Symm
REM
REM
REM
REM
REM
REM ./C.cell (1df0a924f5614ab8850e4351716899ee)
REM
REM compiler GCC version 9.2.1 20190827 (Red Hat 9.2.1-1)
REM options -cpp -mtune=generic -march=x86-64 -g -O0 -fpre-include=/usr/include/finclude/math-vector-fortran.h
REM seed 237627264 738982380 904580731 1819815619 33336491 -1458514328 2125174274 346269323 -1048902678 -527026506 521300597 1242569646 -2058019219 693760898 -2037771581 -791582067 -50289268 242637927 -181040127 -1144032768 306388018 373269038 -810382811 -1646555062 -1450268286 -1632677870 891772343 1872102077 1556419308 1746811233 845984712 704698299 897783764
REM
CELL 1.54180   50.00000   50.00000   50.00000   90.00000   90.00000   90.00000
LATT -1
SFAC C  
C      1  0.4451000000000  0.5038140000000  0.4454320000000 1.0
C      1  0.5737540000000  0.5045570000000  0.4812570000000 1.0
C      1  0.4784940000000  0.5047250000000  0.5746170000000 1.0
C      1  0.5240420000000  0.4410080000000  0.4909720000000 1.0
C      1  0.4950500000000  0.4413080000000  0.5250950000000 1.0
C      1  0.4804630000000  0.4417810000000  0.4834730000000 1.0
C      1  0.4873790000000  0.4659310000000  0.4679870000000 1.0
C      1  0.5340680000000  0.4651660000000  0.5049620000000 1.0
C      1  0.4766890000000  0.4647520000000  0.5260740000000 1.0
C      1  0.4658200000000  0.5702930000000  0.4803160000000 1.0
C      1  0.5344430000000  0.5706250000000  0.4804030000000 1.0
C      1  0.5003760000000  0.5706490000000  0.5397790000000 1.0
C      1  0.5154260000000  0.5117570000000  0.4710170000000 1.0
C      1  0.5174620000000  0.5116070000000  0.5286100000000 1.0
C      1  0.4668820000000  0.5123500000000  0.5009680000000 1.0
C      1  0.4547410000000  0.4860060000000  0.5714350000000 1.0
C      1  0.4608400000000  0.4862550000000  0.4261080000000 1.0
C      1  0.5837960000000  0.4859930000000  0.5032560000000 1.0
C      1  0.5802660000000  0.4910400000000  0.5318350000000 1.0
C      1  0.4321030000000  0.4918990000000  0.5538930000000 1.0
C      1  0.4878740000000  0.4909470000000  0.4152030000000 1.0
C      1  0.4836590000000  0.5339210000000  0.5677000000000 1.0
C      1  0.4485180000000  0.5338310000000  0.4520200000000 1.0
C      1  0.5670170000000  0.5343010000000  0.4790780000000 1.0
C      1  0.4330420000000  0.5491100000000  0.5014490000000 1.0
C      1  0.5308960000000  0.5508660000000  0.4391590000000 1.0
C      1  0.5349970000000  0.5489770000000  0.5565490000000 1.0
C      1  0.5198440000000  0.4325120000000  0.5346910000000 1.0
C      1  0.4624770000000  0.4295170000000  0.4985700000000 1.0
C      1  0.5210470000000  0.4322530000000  0.4651140000000 1.0
C      1  0.5151040000000  0.5712320000000  0.4581670000000 1.0
C      1  0.5287690000000  0.5712630000000  0.5342420000000 1.0
C      1  0.4564620000000  0.5706930000000  0.5081280000000 1.0
C      1  0.5152840000000  0.4697420000000  0.5708090000000 1.0
C      1  0.4314440000000  0.4702130000000  0.4776220000000 1.0
C      1  0.5550690000000  0.4641890000000  0.4528310000000 1.0
C      1  0.4432090000000  0.5542950000000  0.4723950000000 1.0
C      1  0.5520140000000  0.5545080000000  0.4642640000000 1.0
C      1  0.5048360000000  0.5540600000000  0.5630310000000 1.0
C      1  0.4852020000000  0.4909960000000  0.5081230000000 1.0
C      1  0.4981360000000  0.4912010000000  0.4840920000000 1.0
C      1  0.5131370000000  0.4910220000000  0.5075010000000 1.0
C      1  0.4930810000000  0.5604740000000  0.4743270000000 1.0
C      1  0.5258690000000  0.5611520000000  0.5073890000000 1.0
C      1  0.4816140000000  0.5610450000000  0.5193510000000 1.0
C      1  0.5220030000000  0.4962870000000  0.5809790000000 1.0
C      1  0.4191500000000  0.4969960000000  0.4778970000000 1.0
C      1  0.5534800000000  0.4995970000000  0.4410270000000 1.0
C      1  0.4713160000000  0.5346050000000  0.5212010000000 1.0
C      1  0.4966470000000  0.5340530000000  0.4636160000000 1.0
C      1  0.5330220000000  0.5348910000000  0.5157110000000 1.0
C      1  0.5657190000000  0.4639000000000  0.5002210000000 1.0
C      1  0.4677060000000  0.4646550000000  0.5567920000000 1.0
C      1  0.4669390000000  0.4641080000000  0.4434360000000 1.0
C      1  0.5415920000000  0.5040140000000  0.4138750000000 1.0
C      1  0.5506410000000  0.5018970000000  0.5799470000000 1.0
C      1  0.4055910000000  0.5019960000000  0.5033820000000 1.0
C      1  0.4445880000000  0.5377890000000  0.5315270000000 1.0
C      1  0.5003300000000  0.5387600000000  0.4354130000000 1.0
C      1  0.5557960000000  0.5382350000000  0.5326610000000 1.0
C      1  0.4912860000000  0.5128590000000  0.5508220000000 1.0
C      1  0.4602250000000  0.5136630000000  0.4674150000000 1.0
C      1  0.5473710000000  0.5141100000000  0.4826260000000 1.0
C      1  0.5317650000000  0.4590420000000  0.4372840000000 1.0
C      1  0.5386110000000  0.4603640000000  0.5560180000000 1.0
C      1  0.4316430000000  0.4620690000000  0.5053180000000 1.0
C      1  0.4904680000000  0.5158410000000  0.4237090000000 1.0
C      1  0.5723300000000  0.5164490000000  0.5294970000000 1.0
C      1  0.4391420000000  0.5167520000000  0.5483410000000 1.0
C      1  0.5644700000000  0.4486260000000  0.4752270000000 1.0
C      1  0.4909940000000  0.4523920000000  0.5682040000000 1.0
C      1  0.4453290000000  0.4521440000000  0.4582450000000 1.0
C      1  0.4548210000000  0.4501400000000  0.5127550000000 1.0
C      1  0.5113490000000  0.4556520000000  0.4563740000000 1.0
C      1  0.5327680000000  0.4546760000000  0.5318390000000 1.0
C      1  0.5191430000000  0.4852020000000  0.4240930000000 1.0
C      1  0.5563650000000  0.4837130000000  0.5543300000000 1.0
C      1  0.4250720000000  0.4850330000000  0.5218110000000 1.0
C      1  0.5259470000000  0.4966910000000  0.4496580000000 1.0
C      1  0.5366680000000  0.4978350000000  0.5413580000000 1.0
C      1  0.4456820000000  0.4997630000000  0.5111720000000 1.0
C      1  0.5448510000000  0.4265270000000  0.4804380000000 1.0
C      1  0.4961890000000  0.4292370000000  0.5507380000000 1.0
C      1  0.4583010000000  0.4286530000000  0.4706570000000 1.0
C      1  0.4185030000000  0.5247410000000  0.4921220000000 1.0
C      1  0.5469300000000  0.5281040000000  0.4287040000000 1.0
C      1  0.5334630000000  0.5241040000000  0.5742640000000 1.0
END
