TITL C-2441158-471-186 0.0119077534527893 125000 -16181.6114034588 0 0 110 (C1) n - 1
REM
REM in /home/bkarasulu/work/CARBON/AIRSS/Generating-Clusters/ReaxFF-fromJPCA2015/Units_Real/with-SteepDescent/Higher-Symm
REM
REM
REM
REM
REM
REM ./C.cell (1df0a924f5614ab8850e4351716899ee)
REM
REM compiler GCC version 9.2.1 20190827 (Red Hat 9.2.1-1)
REM options -cpp -mtune=generic -march=x86-64 -g -O0 -fpre-include=/usr/include/finclude/math-vector-fortran.h
REM seed -1152088116 -1849799789 1891414045 -1146751607 -573444827 -1759692430 2028628395 -479193003 -165785205 458246944 924683956 91870421 1641329764 -1689330384 435963383 2139701364 -2128197961 1118386813 1277818307 23971836 -1797209048 -740078381 -1946771815 -1845403295 -1247969166 1932313346 -934633253 21257870 -1751819345 -2028462242 1287412528 1307685098 -1986697277
REM
CELL 1.54180   50.00000   50.00000   50.00000   90.00000   90.00000   90.00000
LATT -1
SFAC C  
C      1  0.4318710000000  0.5368660000000  0.5543840000000 1.0
C      1  0.5690510000000  0.5357310000000  0.5547570000000 1.0
C      1  0.5719440000000  0.4590190000000  0.5365890000000 1.0
C      1  0.4264500000000  0.4611070000000  0.5375600000000 1.0
C      1  0.4838920000000  0.4881870000000  0.5429780000000 1.0
C      1  0.5147560000000  0.4875850000000  0.5427450000000 1.0
C      1  0.4868400000000  0.5099870000000  0.5030710000000 1.0
C      1  0.5147530000000  0.5118440000000  0.5035040000000 1.0
C      1  0.5150100000000  0.5166110000000  0.5521900000000 1.0
C      1  0.4850940000000  0.5172450000000  0.5517430000000 1.0
C      1  0.5500400000000  0.4239660000000  0.5044140000000 1.0
C      1  0.4467020000000  0.4245740000000  0.5070420000000 1.0
C      1  0.5338400000000  0.5571730000000  0.4329030000000 1.0
C      1  0.4681770000000  0.5516060000000  0.4368970000000 1.0
C      1  0.4818210000000  0.4646640000000  0.4981120000000 1.0
C      1  0.5101730000000  0.4725180000000  0.4911480000000 1.0
C      1  0.4748830000000  0.4871270000000  0.5151680000000 1.0
C      1  0.5227810000000  0.4861790000000  0.5137160000000 1.0
C      1  0.5539750000000  0.4846060000000  0.4213750000000 1.0
C      1  0.4417510000000  0.4968430000000  0.4271710000000 1.0
C      1  0.5269000000000  0.4494790000000  0.4347920000000 1.0
C      1  0.4762400000000  0.4491290000000  0.4422170000000 1.0
C      1  0.5583310000000  0.5540910000000  0.4501350000000 1.0
C      1  0.4431180000000  0.5487380000000  0.4506430000000 1.0
C      1  0.5144060000000  0.4419140000000  0.5690090000000 1.0
C      1  0.4847990000000  0.4428050000000  0.5700000000000 1.0
C      1  0.5787470000000  0.4863640000000  0.5336530000000 1.0
C      1  0.4196720000000  0.4889020000000  0.5330330000000 1.0
C      1  0.4884960000000  0.5055790000000  0.4566550000000 1.0
C      1  0.5125930000000  0.4905070000000  0.4660000000000 1.0
C      1  0.5126040000000  0.4665080000000  0.4151060000000 1.0
C      1  0.4839230000000  0.4684090000000  0.4213660000000 1.0
C      1  0.5716990000000  0.5077520000000  0.5540250000000 1.0
C      1  0.4267200000000  0.5094940000000  0.5550240000000 1.0
C      1  0.5139460000000  0.5749640000000  0.5368140000000 1.0
C      1  0.4844760000000  0.5756490000000  0.5372510000000 1.0
C      1  0.4863450000000  0.4424890000000  0.5162230000000 1.0
C      1  0.5114140000000  0.4323280000000  0.5141370000000 1.0
C      1  0.5163970000000  0.5466100000000  0.5809590000000 1.0
C      1  0.4836470000000  0.5472700000000  0.5799350000000 1.0
C      1  0.4775800000000  0.4710570000000  0.5693660000000 1.0
C      1  0.5219660000000  0.4700020000000  0.5686400000000 1.0
C      1  0.5306320000000  0.4235410000000  0.4686300000000 1.0
C      1  0.4741920000000  0.4105800000000  0.4626020000000 1.0
C      1  0.5539730000000  0.5168070000000  0.4772850000000 1.0
C      1  0.4524400000000  0.5132290000000  0.4755460000000 1.0
C      1  0.4052900000000  0.5139750000000  0.4605970000000 1.0
C      1  0.5938290000000  0.5286350000000  0.4695900000000 1.0
C      1  0.4882420000000  0.4221910000000  0.4416350000000 1.0
C      1  0.5194340000000  0.4218420000000  0.4434690000000 1.0
C      1  0.4674080000000  0.4914560000000  0.4133840000000 1.0
C      1  0.5297650000000  0.4889330000000  0.4069410000000 1.0
C      1  0.4852770000000  0.5134470000000  0.4066900000000 1.0
C      1  0.5145940000000  0.5144770000000  0.4035130000000 1.0
C      1  0.5150610000000  0.5537500000000  0.4753060000000 1.0
C      1  0.4859090000000  0.5555140000000  0.4759200000000 1.0
C      1  0.5136530000000  0.5868060000000  0.5096850000000 1.0
C      1  0.4844210000000  0.5867380000000  0.5100510000000 1.0
C      1  0.4457190000000  0.5578130000000  0.5430400000000 1.0
C      1  0.5558900000000  0.5580650000000  0.5447240000000 1.0
C      1  0.4636370000000  0.4543000000000  0.4692880000000 1.0
C      1  0.5351970000000  0.4690580000000  0.4553980000000 1.0
C      1  0.5429590000000  0.5487900000000  0.5167580000000 1.0
C      1  0.4598180000000  0.5466800000000  0.5160200000000 1.0
C      1  0.4662830000000  0.4249480000000  0.5283700000000 1.0
C      1  0.5329760000000  0.4204480000000  0.5279720000000 1.0
C      1  0.4507010000000  0.4755270000000  0.5779520000000 1.0
C      1  0.5489670000000  0.4738720000000  0.5771800000000 1.0
C      1  0.4612100000000  0.4319940000000  0.5563800000000 1.0
C      1  0.5373520000000  0.4300290000000  0.5551910000000 1.0
C      1  0.4405010000000  0.4523510000000  0.5618190000000 1.0
C      1  0.5581830000000  0.4501960000000  0.5609320000000 1.0
C      1  0.5346400000000  0.5688700000000  0.4932090000000 1.0
C      1  0.4652870000000  0.5671670000000  0.4932350000000 1.0
C      1  0.4049010000000  0.5164580000000  0.4890940000000 1.0
C      1  0.5956620000000  0.5092930000000  0.4900970000000 1.0
C      1  0.4352830000000  0.5187400000000  0.4506020000000 1.0
C      1  0.5686170000000  0.5270270000000  0.4539060000000 1.0
C      1  0.5807950000000  0.5483030000000  0.4893150000000 1.0
C      1  0.4219310000000  0.5426350000000  0.4927780000000 1.0
C      1  0.4337710000000  0.4613240000000  0.4663400000000 1.0
C      1  0.5640610000000  0.4656050000000  0.4633100000000 1.0
C      1  0.5706700000000  0.4772390000000  0.4390330000000 1.0
C      1  0.4340250000000  0.4769600000000  0.4438700000000 1.0
C      1  0.5605180000000  0.5655600000000  0.4768050000000 1.0
C      1  0.4390130000000  0.5600860000000  0.4770340000000 1.0
C      1  0.5619330000000  0.5301640000000  0.5027710000000 1.0
C      1  0.4436070000000  0.5253310000000  0.5008390000000 1.0
C      1  0.5151430000000  0.5435310000000  0.5318210000000 1.0
C      1  0.4853850000000  0.5414610000000  0.5311160000000 1.0
C      1  0.4196770000000  0.4656920000000  0.4923600000000 1.0
C      1  0.5776540000000  0.4625050000000  0.4900750000000 1.0
C      1  0.5244830000000  0.5197600000000  0.4765190000000 1.0
C      1  0.4790870000000  0.5212160000000  0.4775210000000 1.0
C      1  0.4633470000000  0.5615480000000  0.5655700000000 1.0
C      1  0.5379960000000  0.5592030000000  0.5674780000000 1.0
C      1  0.5171600000000  0.5359080000000  0.4224620000000 1.0
C      1  0.4878980000000  0.5272710000000  0.4337030000000 1.0
C      1  0.4465690000000  0.5047970000000  0.5767080000000 1.0
C      1  0.5528140000000  0.5031680000000  0.5763910000000 1.0
C      1  0.4128700000000  0.4907640000000  0.5053370000000 1.0
C      1  0.5879250000000  0.4864000000000  0.5052730000000 1.0
C      1  0.5145070000000  0.5699960000000  0.4501620000000 1.0
C      1  0.4856350000000  0.5703920000000  0.4494980000000 1.0
C      1  0.4277650000000  0.4460500000000  0.5122350000000 1.0
C      1  0.5707280000000  0.4440170000000  0.5103880000000 1.0
C      1  0.5286100000000  0.4402380000000  0.4916100000000 1.0
C      1  0.4591090000000  0.4253640000000  0.4796530000000 1.0
C      1  0.5277270000000  0.5196220000000  0.5789030000000 1.0
C      1  0.4718640000000  0.5208640000000  0.5786650000000 1.0
END
