TITL C-2441157-2117-900 0.0188426457618778 125000 -12497.5511493735 0 0 86 (C1) n - 1
REM
REM in /home/bkarasulu/work/CARBON/AIRSS/Generating-Clusters/ReaxFF-fromJPCA2015/Units_Real/with-SteepDescent/Higher-Symm
REM
REM
REM
REM
REM
REM ./C.cell (1df0a924f5614ab8850e4351716899ee)
REM
REM compiler GCC version 9.2.1 20190827 (Red Hat 9.2.1-1)
REM options -cpp -mtune=generic -march=x86-64 -g -O0 -fpre-include=/usr/include/finclude/math-vector-fortran.h
REM seed 250489987 -1708214441 -1903736431 -112613172 -1798198898 1160630402 830492156 155137050 763433143 396044464 -114399200 767345906 -1076219760 1796913812 2086506590 933488293 -1859811090 -27062477 -680383009 1344170767 -634855523 873374979 1081646746 -1728368830 1315555212 276926635 -868760345 721027074 -1285103832 1615427663 -70945247 1647820333 -2020898954
REM
CELL 1.54180   50.00000   50.00000   50.00000   90.00000   90.00000   90.00000
LATT -1
SFAC C  
C      1  0.4669880000000  0.4633890000000  0.5038840000000 1.0
C      1  0.4669600000000  0.4925630000000  0.5359420000000 1.0
C      1  0.4727290000000  0.5388940000000  0.5239130000000 1.0
C      1  0.4646990000000  0.5262110000000  0.4758870000000 1.0
C      1  0.4668540000000  0.4861590000000  0.4656650000000 1.0
C      1  0.5294760000000  0.4635330000000  0.5018590000000 1.0
C      1  0.5310670000000  0.4908850000000  0.5365650000000 1.0
C      1  0.5348550000000  0.5353290000000  0.5171890000000 1.0
C      1  0.5330470000000  0.5308040000000  0.4756670000000 1.0
C      1  0.5243240000000  0.4817050000000  0.4587100000000 1.0
C      1  0.4425080000000  0.5418020000000  0.5533140000000 1.0
C      1  0.4415310000000  0.5644520000000  0.4746310000000 1.0
C      1  0.4445000000000  0.4992090000000  0.4308120000000 1.0
C      1  0.4484240000000  0.4350930000000  0.4782830000000 1.0
C      1  0.4451890000000  0.4607210000000  0.5550800000000 1.0
C      1  0.5585650000000  0.5436820000000  0.5537400000000 1.0
C      1  0.5523640000000  0.5674710000000  0.4769440000000 1.0
C      1  0.5540510000000  0.4983800000000  0.4322900000000 1.0
C      1  0.5570810000000  0.4351960000000  0.4821130000000 1.0
C      1  0.5553970000000  0.4612030000000  0.5570620000000 1.0
C      1  0.4808890000000  0.5098920000000  0.4589560000000 1.0
C      1  0.4837930000000  0.4688630000000  0.4814740000000 1.0
C      1  0.4839670000000  0.4701320000000  0.5267060000000 1.0
C      1  0.4825740000000  0.5159470000000  0.5392410000000 1.0
C      1  0.4801510000000  0.5265140000000  0.4988460000000 1.0
C      1  0.5193860000000  0.5070350000000  0.4754880000000 1.0
C      1  0.5117890000000  0.4660960000000  0.4799970000000 1.0
C      1  0.5137450000000  0.4711380000000  0.5249860000000 1.0
C      1  0.5215190000000  0.5114830000000  0.5217280000000 1.0
C      1  0.5199890000000  0.5462920000000  0.4958070000000 1.0
C      1  0.5150620000000  0.4166370000000  0.5068380000000 1.0
C      1  0.5068600000000  0.4706030000000  0.5781420000000 1.0
C      1  0.5150340000000  0.5706120000000  0.5456320000000 1.0
C      1  0.5130220000000  0.5559210000000  0.4419510000000 1.0
C      1  0.5122970000000  0.4792690000000  0.4286980000000 1.0
C      1  0.4863530000000  0.4167140000000  0.5051940000000 1.0
C      1  0.4824340000000  0.4837860000000  0.5859650000000 1.0
C      1  0.4875800000000  0.5628000000000  0.5475530000000 1.0
C      1  0.4839140000000  0.5612860000000  0.4438320000000 1.0
C      1  0.4856730000000  0.4700540000000  0.4235180000000 1.0
C      1  0.4491030000000  0.5675710000000  0.5034360000000 1.0
C      1  0.4443950000000  0.5282390000000  0.4366410000000 1.0
C      1  0.4482320000000  0.4501270000000  0.4530640000000 1.0
C      1  0.4482090000000  0.4409090000000  0.5322610000000 1.0
C      1  0.4473650000000  0.5151440000000  0.5667860000000 1.0
C      1  0.5507250000000  0.5711190000000  0.5075420000000 1.0
C      1  0.5538530000000  0.5282240000000  0.4380450000000 1.0
C      1  0.5490060000000  0.4480530000000  0.4563820000000 1.0
C      1  0.5493690000000  0.4423660000000  0.5349690000000 1.0
C      1  0.5515510000000  0.5168230000000  0.5649430000000 1.0
C      1  0.4708830000000  0.4950520000000  0.4192000000000 1.0
C      1  0.4750680000000  0.4231510000000  0.4790760000000 1.0
C      1  0.4665600000000  0.4651870000000  0.5726770000000 1.0
C      1  0.4675370000000  0.5504810000000  0.5626450000000 1.0
C      1  0.4684660000000  0.5740170000000  0.4660490000000 1.0
C      1  0.5272000000000  0.5018480000000  0.4190570000000 1.0
C      1  0.5322100000000  0.4189480000000  0.4823380000000 1.0
C      1  0.5302460000000  0.4617730000000  0.5685450000000 1.0
C      1  0.5326740000000  0.5544030000000  0.5632090000000 1.0
C      1  0.5305200000000  0.5689950000000  0.4594760000000 1.0
C      1  0.5588860000000  0.5406800000000  0.4647260000000 1.0
C      1  0.5541750000000  0.4763710000000  0.4515980000000 1.0
C      1  0.5550760000000  0.4506530000000  0.5070640000000 1.0
C      1  0.5558820000000  0.4906440000000  0.5515950000000 1.0
C      1  0.5595020000000  0.5490640000000  0.5246870000000 1.0
C      1  0.4399270000000  0.5371620000000  0.4641070000000 1.0
C      1  0.4420580000000  0.4789010000000  0.4522090000000 1.0
C      1  0.4425580000000  0.4479030000000  0.5044390000000 1.0
C      1  0.4420320000000  0.4905120000000  0.5503250000000 1.0
C      1  0.4438200000000  0.5478250000000  0.5244310000000 1.0
C      1  0.4733990000000  0.5131560000000  0.5804080000000 1.0
C      1  0.4762700000000  0.5772550000000  0.4939710000000 1.0
C      1  0.4702770000000  0.5404690000000  0.4291500000000 1.0
C      1  0.4748080000000  0.4478540000000  0.4405710000000 1.0
C      1  0.4742840000000  0.4273810000000  0.5307930000000 1.0
C      1  0.5247480000000  0.5274410000000  0.5721400000000 1.0
C      1  0.5251820000000  0.5794480000000  0.5190290000000 1.0
C      1  0.5264320000000  0.5309130000000  0.4285920000000 1.0
C      1  0.5227050000000  0.4319520000000  0.4581730000000 1.0
C      1  0.5224180000000  0.4291420000000  0.5326420000000 1.0
C      1  0.4971120000000  0.5186440000000  0.5643720000000 1.0
C      1  0.4929280000000  0.4330510000000  0.4574460000000 1.0
C      1  0.4973310000000  0.4401210000000  0.5424780000000 1.0
C      1  0.5052080000000  0.5710790000000  0.4991660000000 1.0
C      1  0.4876220000000  0.5166190000000  0.4309850000000 1.0
C      1  0.5024410000000  0.5081540000000  0.4991550000000 1.0
END
