TITL C-2441169-1362-1266 0.137456319708999 125000 -24746.9693820209 0 0 191 (C1) n - 1
REM
REM in /home/bkarasulu/work/CARBON/AIRSS/Generating-Clusters/ReaxFF-fromJPCA2015/Units_Real/with-SteepDescent/Higher-Symm
REM
REM
REM
REM
REM
REM ./C.cell (1df0a924f5614ab8850e4351716899ee)
REM
REM compiler GCC version 9.2.1 20190827 (Red Hat 9.2.1-1)
REM options -cpp -mtune=generic -march=x86-64 -g -O0 -fpre-include=/usr/include/finclude/math-vector-fortran.h
REM seed 348385743 -1801613488 -1573202985 -67413954 227766921 976641765 1179119461 873522064 1939920386 -1487357569 -364303008 216535767 396937690 -1907687321 1409474277 -981901530 -905636470 -1644647226 20539131 -674890850 -593357205 229567096 -1847052144 -89315112 -305506681 1825942582 -2101494879 1381010852 2121227804 1180362153 -463983874 292330355 1718131657
REM
CELL 1.54180   50.00000   50.00000   50.00000   90.00000   90.00000   90.00000
LATT -1
SFAC C  
C      1  0.4371140000000  0.5814620000000  0.4573750000000 1.0
C      1  0.4636900000000  0.3903100000000  0.5309270000000 1.0
C      1  0.5734860000000  0.4295410000000  0.4650980000000 1.0
C      1  0.4879650000000  0.4530580000000  0.6035390000000 1.0
C      1  0.5421130000000  0.5405530000000  0.4611420000000 1.0
C      1  0.4935560000000  0.5495850000000  0.4758220000000 1.0
C      1  0.5322720000000  0.4951970000000  0.6045270000000 1.0
C      1  0.4786310000000  0.6016090000000  0.5137880000000 1.0
C      1  0.4246460000000  0.5665940000000  0.5431340000000 1.0
C      1  0.5619770000000  0.5409850000000  0.4169530000000 1.0
C      1  0.4131660000000  0.5190730000000  0.5694170000000 1.0
C      1  0.5031630000000  0.4774960000000  0.4376110000000 1.0
C      1  0.5766230000000  0.4703560000000  0.4340760000000 1.0
C      1  0.5711730000000  0.4328520000000  0.5495660000000 1.0
C      1  0.4764160000000  0.5272330000000  0.5198080000000 1.0
C      1  0.4916480000000  0.5073400000000  0.5378760000000 1.0
C      1  0.4403490000000  0.4919830000000  0.5214290000000 1.0
C      1  0.4617640000000  0.5976180000000  0.4641470000000 1.0
C      1  0.4512600000000  0.4849450000000  0.4010090000000 1.0
C      1  0.3918470000000  0.5062890000000  0.4770430000000 1.0
C      1  0.5249490000000  0.4319360000000  0.5746950000000 1.0
C      1  0.4357210000000  0.5814540000000  0.5027700000000 1.0
C      1  0.5132520000000  0.5449640000000  0.5853330000000 1.0
C      1  0.4729530000000  0.4011130000000  0.4518680000000 1.0
C      1  0.5912320000000  0.5154790000000  0.4390530000000 1.0
C      1  0.5234760000000  0.4312690000000  0.4091480000000 1.0
C      1  0.4650170000000  0.5513280000000  0.4793960000000 1.0
C      1  0.4702870000000  0.4780070000000  0.6096580000000 1.0
C      1  0.4682630000000  0.5472300000000  0.4335760000000 1.0
C      1  0.4615130000000  0.5372990000000  0.3953400000000 1.0
C      1  0.5549670000000  0.4705850000000  0.5782410000000 1.0
C      1  0.5590520000000  0.4387380000000  0.5083400000000 1.0
C      1  0.5017380000000  0.4050710000000  0.4538080000000 1.0
C      1  0.5766490000000  0.5828570000000  0.4855160000000 1.0
C      1  0.5415320000000  0.4938000000000  0.4874500000000 1.0
C      1  0.5208320000000  0.4020050000000  0.5433590000000 1.0
C      1  0.4778220000000  0.4124960000000  0.5233730000000 1.0
C      1  0.5167650000000  0.4587850000000  0.4024610000000 1.0
C      1  0.5102500000000  0.5265930000000  0.4815120000000 1.0
C      1  0.5984650000000  0.4701850000000  0.5474780000000 1.0
C      1  0.5305740000000  0.4827410000000  0.5245500000000 1.0
C      1  0.4843860000000  0.5365810000000  0.5898810000000 1.0
C      1  0.5669190000000  0.5535610000000  0.5773400000000 1.0
C      1  0.5557270000000  0.5984440000000  0.5229880000000 1.0
C      1  0.5788620000000  0.5120940000000  0.5562550000000 1.0
C      1  0.5552120000000  0.5142870000000  0.4081180000000 1.0
C      1  0.4127790000000  0.4729720000000  0.5165710000000 1.0
C      1  0.5021470000000  0.6126670000000  0.5473650000000 1.0
C      1  0.4577460000000  0.4206850000000  0.4347860000000 1.0
C      1  0.5822620000000  0.5426440000000  0.4379880000000 1.0
C      1  0.5940210000000  0.4471590000000  0.4701880000000 1.0
C      1  0.4750180000000  0.5149840000000  0.4932730000000 1.0
C      1  0.4781440000000  0.5131120000000  0.5668470000000 1.0
C      1  0.4718950000000  0.4121200000000  0.5695740000000 1.0
C      1  0.4868100000000  0.4386480000000  0.4890250000000 1.0
C      1  0.6056860000000  0.4915040000000  0.4748790000000 1.0
C      1  0.5475600000000  0.5499710000000  0.5353980000000 1.0
C      1  0.5316110000000  0.4584920000000  0.5648820000000 1.0
C      1  0.5135830000000  0.5288290000000  0.5358760000000 1.0
C      1  0.5229320000000  0.5261230000000  0.5645920000000 1.0
C      1  0.5395710000000  0.5261940000000  0.5206610000000 1.0
C      1  0.6017990000000  0.4580840000000  0.5215590000000 1.0
C      1  0.5321010000000  0.5399010000000  0.4905730000000 1.0
C      1  0.5127720000000  0.5628820000000  0.4951460000000 1.0
C      1  0.5645650000000  0.5586540000000  0.4575850000000 1.0
C      1  0.4850740000000  0.3891460000000  0.5088190000000 1.0
C      1  0.4123710000000  0.5216120000000  0.4644890000000 1.0
C      1  0.5282340000000  0.5090990000000  0.3958460000000 1.0
C      1  0.4272000000000  0.4454120000000  0.4794520000000 1.0
C      1  0.5237820000000  0.5892750000000  0.4833150000000 1.0
C      1  0.5060970000000  0.6118090000000  0.5179020000000 1.0
C      1  0.5659160000000  0.4421330000000  0.4380510000000 1.0
C      1  0.4886900000000  0.4634950000000  0.4153390000000 1.0
C      1  0.5468460000000  0.5926820000000  0.5507990000000 1.0
C      1  0.4469160000000  0.5222790000000  0.5238330000000 1.0
C      1  0.4700270000000  0.4538030000000  0.5369810000000 1.0
C      1  0.4944090000000  0.4170170000000  0.5500110000000 1.0
C      1  0.5078780000000  0.4723490000000  0.5623710000000 1.0
C      1  0.5408750000000  0.4236980000000  0.5487060000000 1.0
C      1  0.4476390000000  0.4607850000000  0.4646470000000 1.0
C      1  0.5159390000000  0.3946340000000  0.5160530000000 1.0
C      1  0.4272950000000  0.4173490000000  0.4711030000000 1.0
C      1  0.5239060000000  0.4415930000000  0.5266170000000 1.0
C      1  0.5640100000000  0.4638860000000  0.4997450000000 1.0
C      1  0.5027650000000  0.5666640000000  0.5443590000000 1.0
C      1  0.5250460000000  0.6061150000000  0.5659910000000 1.0
C      1  0.4747970000000  0.6006240000000  0.5433640000000 1.0
C      1  0.4118200000000  0.5664690000000  0.4934880000000 1.0
C      1  0.5105810000000  0.5318780000000  0.3959900000000 1.0
C      1  0.4763470000000  0.4495250000000  0.4641600000000 1.0
C      1  0.5425920000000  0.5106620000000  0.5808530000000 1.0
C      1  0.4757000000000  0.5060640000000  0.6104500000000 1.0
C      1  0.5166860000000  0.5550460000000  0.4125670000000 1.0
C      1  0.4505980000000  0.5017220000000  0.5641250000000 1.0
C      1  0.5405710000000  0.5538620000000  0.5890420000000 1.0
C      1  0.4464330000000  0.5612350000000  0.5783240000000 1.0
C      1  0.4712060000000  0.4346500000000  0.5882090000000 1.0
C      1  0.4555720000000  0.5058710000000  0.4610760000000 1.0
C      1  0.5832660000000  0.4354440000000  0.5238150000000 1.0
C      1  0.4804120000000  0.4883590000000  0.3920830000000 1.0
C      1  0.3926440000000  0.4922700000000  0.5260930000000 1.0
C      1  0.5382920000000  0.4671420000000  0.4229470000000 1.0
C      1  0.5435000000000  0.5658560000000  0.4155820000000 1.0
C      1  0.5632470000000  0.5082330000000  0.5320070000000 1.0
C      1  0.4052960000000  0.4606590000000  0.4918680000000 1.0
C      1  0.4019260000000  0.5071840000000  0.5476480000000 1.0
C      1  0.5689230000000  0.5243490000000  0.5815700000000 1.0
C      1  0.5382270000000  0.4669670000000  0.6027540000000 1.0
C      1  0.4731030000000  0.5636960000000  0.5863610000000 1.0
C      1  0.4300180000000  0.5179580000000  0.4874620000000 1.0
C      1  0.5982160000000  0.4699220000000  0.4552220000000 1.0
C      1  0.4797800000000  0.5768540000000  0.5594970000000 1.0
C      1  0.5104910000000  0.4866450000000  0.3896930000000 1.0
C      1  0.5158400000000  0.5448530000000  0.4420760000000 1.0
C      1  0.5356960000000  0.4898080000000  0.4394970000000 1.0
C      1  0.4344070000000  0.4301350000000  0.5400290000000 1.0
C      1  0.4407540000000  0.5046250000000  0.4194170000000 1.0
C      1  0.4866300000000  0.4933110000000  0.4819910000000 1.0
C      1  0.4220730000000  0.4515830000000  0.4313140000000 1.0
C      1  0.5163650000000  0.4235960000000  0.4359580000000 1.0
C      1  0.4692790000000  0.3956350000000  0.4802480000000 1.0
C      1  0.4267780000000  0.5469610000000  0.5650440000000 1.0
C      1  0.5776900000000  0.4566420000000  0.5638050000000 1.0
C      1  0.5762500000000  0.5382190000000  0.5000850000000 1.0
C      1  0.4501480000000  0.4067940000000  0.5508940000000 1.0
C      1  0.5534170000000  0.4223540000000  0.4864980000000 1.0
C      1  0.4142960000000  0.4749820000000  0.4452850000000 1.0
C      1  0.6025440000000  0.4994680000000  0.5447150000000 1.0
C      1  0.3896920000000  0.5141810000000  0.5050230000000 1.0
C      1  0.4342770000000  0.5069940000000  0.5873620000000 1.0
C      1  0.5501100000000  0.4684030000000  0.4756020000000 1.0
C      1  0.4718660000000  0.4743330000000  0.4948310000000 1.0
C      1  0.4441980000000  0.5410190000000  0.5014220000000 1.0
C      1  0.5048660000000  0.4163910000000  0.4810230000000 1.0
C      1  0.5325380000000  0.6052070000000  0.5058560000000 1.0
C      1  0.5139190000000  0.4995050000000  0.4781600000000 1.0
C      1  0.5124810000000  0.4779340000000  0.5067010000000 1.0
C      1  0.5144740000000  0.4905900000000  0.5430060000000 1.0
C      1  0.4776520000000  0.5735100000000  0.4348420000000 1.0
C      1  0.5515610000000  0.5127960000000  0.4545140000000 1.0
C      1  0.4355830000000  0.4593470000000  0.5799910000000 1.0
C      1  0.4663210000000  0.4436440000000  0.4183480000000 1.0
C      1  0.4512640000000  0.4311570000000  0.5167100000000 1.0
C      1  0.4031930000000  0.5655030000000  0.5223730000000 1.0
C      1  0.5279450000000  0.4508060000000  0.4702330000000 1.0
C      1  0.5795480000000  0.5840810000000  0.5130730000000 1.0
C      1  0.5296190000000  0.4056550000000  0.4927510000000 1.0
C      1  0.4480870000000  0.4113380000000  0.4910210000000 1.0
C      1  0.5183050000000  0.5962490000000  0.4552770000000 1.0
C      1  0.4682760000000  0.4791560000000  0.5225230000000 1.0
C      1  0.6075110000000  0.4809140000000  0.5028730000000 1.0
C      1  0.5748950000000  0.4972940000000  0.4221270000000 1.0
C      1  0.5031370000000  0.4581690000000  0.4570490000000 1.0
C      1  0.4471290000000  0.4861300000000  0.4801820000000 1.0
C      1  0.4228960000000  0.5431080000000  0.4311430000000 1.0
C      1  0.4987420000000  0.4456770000000  0.5409650000000 1.0
C      1  0.4954130000000  0.4925130000000  0.5784530000000 1.0
C      1  0.5595270000000  0.4811990000000  0.5222560000000 1.0
C      1  0.5308880000000  0.5680730000000  0.5473370000000 1.0
C      1  0.4196540000000  0.5594160000000  0.4551210000000 1.0
C      1  0.4607410000000  0.5929250000000  0.4928160000000 1.0
C      1  0.4451360000000  0.5631130000000  0.5226630000000 1.0
C      1  0.5153140000000  0.4508930000000  0.4990660000000 1.0
C      1  0.5866420000000  0.5561320000000  0.5225940000000 1.0
C      1  0.4305180000000  0.4247140000000  0.4428720000000 1.0
C      1  0.4364320000000  0.4826040000000  0.5476620000000 1.0
C      1  0.4966800000000  0.5522160000000  0.5205960000000 1.0
C      1  0.4432540000000  0.4590000000000  0.4111640000000 1.0
C      1  0.4615130000000  0.4537940000000  0.5677860000000 1.0
C      1  0.5438130000000  0.4255590000000  0.4284320000000 1.0
C      1  0.6020210000000  0.5280880000000  0.4967830000000 1.0
C      1  0.5621110000000  0.5127480000000  0.4810750000000 1.0
C      1  0.6075470000000  0.5057740000000  0.5158560000000 1.0
C      1  0.3977610000000  0.5422240000000  0.5066110000000 1.0
C      1  0.4608130000000  0.4971040000000  0.4375180000000 1.0
C      1  0.5699560000000  0.5603920000000  0.4824920000000 1.0
C      1  0.5343880000000  0.5840960000000  0.4354050000000 1.0
C      1  0.4583400000000  0.5334680000000  0.4584690000000 1.0
C      1  0.4834830000000  0.5194520000000  0.3947360000000 1.0
C      1  0.5730260000000  0.5533960000000  0.5478500000000 1.0
C      1  0.5022920000000  0.5230880000000  0.4406510000000 1.0
C      1  0.4424420000000  0.4815160000000  0.5999510000000 1.0
C      1  0.5164440000000  0.4470840000000  0.5993830000000 1.0
C      1  0.4229870000000  0.4564150000000  0.5530230000000 1.0
C      1  0.4875290000000  0.5951430000000  0.4479790000000 1.0
C      1  0.3986130000000  0.4788250000000  0.4685650000000 1.0
C      1  0.4461990000000  0.5522420000000  0.4131720000000 1.0
C      1  0.4884160000000  0.5007890000000  0.4391860000000 1.0
C      1  0.4180890000000  0.5144250000000  0.4353130000000 1.0
C      1  0.6028710000000  0.5184590000000  0.4683020000000 1.0
C      1  0.5034620000000  0.5024770000000  0.6037880000000 1.0
END
