TITL C-2441157-2117-685 0.0180889979274188 125000 -15161.9503444497 0 0 104 (C1) n - 1
REM
REM in /home/bkarasulu/work/CARBON/AIRSS/Generating-Clusters/ReaxFF-fromJPCA2015/Units_Real/with-SteepDescent/Higher-Symm
REM
REM
REM
REM
REM
REM ./C.cell (1df0a924f5614ab8850e4351716899ee)
REM
REM compiler GCC version 9.2.1 20190827 (Red Hat 9.2.1-1)
REM options -cpp -mtune=generic -march=x86-64 -g -O0 -fpre-include=/usr/include/finclude/math-vector-fortran.h
REM seed 426992118 451073578 1734061305 1960510558 138698109 1888662521 -363699921 1952982488 -776407150 -114471864 1866707470 1382666740 -1771288938 789985881 336208757 -141097257 -1562530730 116441728 -294861794 630272147 -917101689 80407128 98447850 1322324387 -1175081480 -1404569563 492347726 -2096082961 349368906 1994577133 -2116203480 -1052492638 -1665705227
REM
CELL 1.54180   50.00000   50.00000   50.00000   90.00000   90.00000   90.00000
LATT -1
SFAC C  
C      1  0.4691140000000  0.4491030000000  0.4425670000000 1.0
C      1  0.5370910000000  0.5834970000000  0.5016210000000 1.0
C      1  0.5154640000000  0.4443900000000  0.4338350000000 1.0
C      1  0.5214830000000  0.5110400000000  0.4648850000000 1.0
C      1  0.5288360000000  0.5321570000000  0.5087010000000 1.0
C      1  0.4088110000000  0.4927580000000  0.5203800000000 1.0
C      1  0.5406650000000  0.4585760000000  0.4346640000000 1.0
C      1  0.5510580000000  0.5510390000000  0.5638130000000 1.0
C      1  0.5596300000000  0.5667680000000  0.4935440000000 1.0
C      1  0.5051090000000  0.4713190000000  0.4867730000000 1.0
C      1  0.4491810000000  0.5561980000000  0.5077250000000 1.0
C      1  0.4745570000000  0.5119160000000  0.4344150000000 1.0
C      1  0.4597790000000  0.5444660000000  0.5708410000000 1.0
C      1  0.5927530000000  0.5073550000000  0.4877400000000 1.0
C      1  0.4895280000000  0.4819290000000  0.5335090000000 1.0
C      1  0.5466860000000  0.4316860000000  0.4714450000000 1.0
C      1  0.5228730000000  0.5018180000000  0.5688760000000 1.0
C      1  0.4788520000000  0.4902450000000  0.5797960000000 1.0
C      1  0.5140480000000  0.5304250000000  0.4851350000000 1.0
C      1  0.4402700000000  0.4901230000000  0.4548610000000 1.0
C      1  0.4319530000000  0.5068940000000  0.5614100000000 1.0
C      1  0.4690060000000  0.5349430000000  0.5047760000000 1.0
C      1  0.4728800000000  0.5689430000000  0.5256310000000 1.0
C      1  0.4564540000000  0.4477490000000  0.5578680000000 1.0
C      1  0.5184190000000  0.5746760000000  0.4508100000000 1.0
C      1  0.5023950000000  0.5482130000000  0.5696250000000 1.0
C      1  0.5016300000000  0.5359450000000  0.5431670000000 1.0
C      1  0.4656300000000  0.5634900000000  0.5518450000000 1.0
C      1  0.4776300000000  0.5659290000000  0.4744090000000 1.0
C      1  0.4871120000000  0.5408150000000  0.4841460000000 1.0
C      1  0.4995240000000  0.4980610000000  0.4058010000000 1.0
C      1  0.5018330000000  0.5577070000000  0.5236770000000 1.0
C      1  0.4363730000000  0.5350470000000  0.5519930000000 1.0
C      1  0.4961640000000  0.5032620000000  0.4519250000000 1.0
C      1  0.4968310000000  0.5844710000000  0.4666840000000 1.0
C      1  0.4178710000000  0.5196990000000  0.4831790000000 1.0
C      1  0.4871910000000  0.4850310000000  0.4709030000000 1.0
C      1  0.4834580000000  0.5220330000000  0.4083100000000 1.0
C      1  0.5092180000000  0.4265270000000  0.4547160000000 1.0
C      1  0.4841610000000  0.4636930000000  0.5627210000000 1.0
C      1  0.4353980000000  0.4647270000000  0.5553130000000 1.0
C      1  0.5518280000000  0.5005660000000  0.5655510000000 1.0
C      1  0.4323230000000  0.4328720000000  0.5183350000000 1.0
C      1  0.5132730000000  0.5527810000000  0.4324300000000 1.0
C      1  0.5265520000000  0.4156900000000  0.4714010000000 1.0
C      1  0.5554170000000  0.5420670000000  0.5082930000000 1.0
C      1  0.5081600000000  0.4503430000000  0.5705040000000 1.0
C      1  0.4487560000000  0.5638300000000  0.4762590000000 1.0
C      1  0.5735600000000  0.4627430000000  0.4767280000000 1.0
C      1  0.4730310000000  0.4266360000000  0.5150890000000 1.0
C      1  0.5836360000000  0.5305660000000  0.4750140000000 1.0
C      1  0.4545670000000  0.4698520000000  0.4985810000000 1.0
C      1  0.4821990000000  0.4202370000000  0.4876090000000 1.0
C      1  0.5262980000000  0.5045550000000  0.4156110000000 1.0
C      1  0.4264800000000  0.5160770000000  0.4581090000000 1.0
C      1  0.4153220000000  0.4442140000000  0.4996870000000 1.0
C      1  0.5639300000000  0.5007050000000  0.4453830000000 1.0
C      1  0.5800060000000  0.4893920000000  0.4672930000000 1.0
C      1  0.4620090000000  0.5498890000000  0.4394090000000 1.0
C      1  0.4611950000000  0.4908300000000  0.4797490000000 1.0
C      1  0.4802190000000  0.4768320000000  0.4150620000000 1.0
C      1  0.5795150000000  0.4801910000000  0.5277110000000 1.0
C      1  0.5114110000000  0.5066750000000  0.5408590000000 1.0
C      1  0.4118280000000  0.5211890000000  0.5106760000000 1.0
C      1  0.4850560000000  0.5486590000000  0.4222410000000 1.0
C      1  0.4945750000000  0.4391300000000  0.5267130000000 1.0
C      1  0.5429270000000  0.4863040000000  0.5034130000000 1.0
C      1  0.5127820000000  0.4229140000000  0.5412040000000 1.0
C      1  0.4894210000000  0.4526430000000  0.4241430000000 1.0
C      1  0.4710360000000  0.4336710000000  0.4646740000000 1.0
C      1  0.5506440000000  0.4396780000000  0.5221270000000 1.0
C      1  0.4082490000000  0.4735060000000  0.4991960000000 1.0
C      1  0.5280020000000  0.4859690000000  0.4792830000000 1.0
C      1  0.5642110000000  0.4769890000000  0.5518970000000 1.0
C      1  0.4306410000000  0.4657280000000  0.4847580000000 1.0
C      1  0.5611630000000  0.5260480000000  0.5545950000000 1.0
C      1  0.5642010000000  0.4635560000000  0.5064110000000 1.0
C      1  0.5703950000000  0.5262880000000  0.5274630000000 1.0
C      1  0.4624020000000  0.4876200000000  0.5216850000000 1.0
C      1  0.5242580000000  0.5771380000000  0.5269910000000 1.0
C      1  0.5459380000000  0.4860030000000  0.4275520000000 1.0
C      1  0.5524650000000  0.4498820000000  0.5483380000000 1.0
C      1  0.5346540000000  0.5074690000000  0.5211850000000 1.0
C      1  0.5587820000000  0.4494770000000  0.4563390000000 1.0
C      1  0.5866420000000  0.5054030000000  0.5167090000000 1.0
C      1  0.5298700000000  0.4354190000000  0.5630630000000 1.0
C      1  0.4592140000000  0.5101800000000  0.5039680000000 1.0
C      1  0.5203250000000  0.5793820000000  0.4789250000000 1.0
C      1  0.5290240000000  0.4208960000000  0.5172050000000 1.0
C      1  0.4517870000000  0.4263140000000  0.5365750000000 1.0
C      1  0.4573210000000  0.4874700000000  0.4311490000000 1.0
C      1  0.5651210000000  0.5505930000000  0.4696110000000 1.0
C      1  0.5318370000000  0.5314690000000  0.4269590000000 1.0
C      1  0.4167620000000  0.4849650000000  0.5474360000000 1.0
C      1  0.5277170000000  0.5605300000000  0.5745170000000 1.0
C      1  0.4836140000000  0.5329440000000  0.5858450000000 1.0
C      1  0.5385200000000  0.5740160000000  0.5519980000000 1.0
C      1  0.5020220000000  0.4631980000000  0.5147710000000 1.0
C      1  0.4397460000000  0.5459940000000  0.4551430000000 1.0
C      1  0.5500630000000  0.5264870000000  0.4498770000000 1.0
C      1  0.4288200000000  0.5408170000000  0.5247640000000 1.0
C      1  0.4592690000000  0.4982850000000  0.5609350000000 1.0
C      1  0.5115020000000  0.4149710000000  0.4941380000000 1.0
C      1  0.5005860000000  0.5085990000000  0.5868230000000 1.0
END
