TITL C-2441160-1326-1153 -0.00378755799444449 125000 -5542.49365457486 0 0 41 (C1) n - 1
REM
REM in /home/bkarasulu/work/CARBON/AIRSS/Generating-Clusters/ReaxFF-fromJPCA2015/Units_Real/with-SteepDescent/Higher-Symm
REM
REM
REM
REM
REM
REM ./C.cell (1df0a924f5614ab8850e4351716899ee)
REM
REM compiler GCC version 9.2.1 20190827 (Red Hat 9.2.1-1)
REM options -cpp -mtune=generic -march=x86-64 -g -O0 -fpre-include=/usr/include/finclude/math-vector-fortran.h
REM seed 868150018 1922038053 2067243399 1669284622 803394250 1689402029 207932450 1387448334 78722653 -1723469198 -1559978229 -898788026 1325140858 562708699 -294992809 79595632 -19081149 991257718 -1756237907 -1404174142 692489836 2011406523 1893282792 -1694782529 1413523000 -566335819 1308455704 -2124026980 -1524192286 700422170 -1402226279 713464855 -87099950
REM
CELL 1.54180   50.00000   50.00000   50.00000   90.00000   90.00000   90.00000
LATT -1
SFAC C  
C      1  0.4853210000000  0.5572580000000  0.5154200000000 1.0
C      1  0.5139420000000  0.5559150000000  0.4843240000000 1.0
C      1  0.5139220000000  0.5557820000000  0.5148720000000 1.0
C      1  0.4848260000000  0.5578830000000  0.4840090000000 1.0
C      1  0.4848250000000  0.4875200000000  0.4779390000000 1.0
C      1  0.5119890000000  0.4887590000000  0.5213090000000 1.0
C      1  0.5121350000000  0.4888050000000  0.4772340000000 1.0
C      1  0.4850140000000  0.4870580000000  0.5201920000000 1.0
C      1  0.4519150000000  0.5273160000000  0.4844190000000 1.0
C      1  0.5465050000000  0.5256850000000  0.5149950000000 1.0
C      1  0.5464730000000  0.5257810000000  0.4841690000000 1.0
C      1  0.4527890000000  0.5269370000000  0.5157190000000 1.0
C      1  0.5193680000000  0.4609560000000  0.4753020000000 1.0
C      1  0.4798640000000  0.4599120000000  0.5236140000000 1.0
C      1  0.4796510000000  0.4601040000000  0.4751960000000 1.0
C      1  0.5194380000000  0.4608710000000  0.5236520000000 1.0
C      1  0.5155200000000  0.5136860000000  0.4465980000000 1.0
C      1  0.4856110000000  0.5120660000000  0.5521050000000 1.0
C      1  0.4869830000000  0.5080410000000  0.4439470000000 1.0
C      1  0.5149810000000  0.5135550000000  0.5520650000000 1.0
C      1  0.4726050000000  0.5371930000000  0.4686810000000 1.0
C      1  0.5256430000000  0.5354130000000  0.5326950000000 1.0
C      1  0.5255480000000  0.5356470000000  0.4667480000000 1.0
C      1  0.4741740000000  0.5362390000000  0.5321880000000 1.0
C      1  0.4548470000000  0.5017230000000  0.4703590000000 1.0
C      1  0.5486200000000  0.5005670000000  0.5284450000000 1.0
C      1  0.5488100000000  0.5007340000000  0.4705580000000 1.0
C      1  0.4535510000000  0.5006270000000  0.5276690000000 1.0
C      1  0.5364630000000  0.4911920000000  0.5522390000000 1.0
C      1  0.4631350000000  0.4901310000000  0.4449610000000 1.0
C      1  0.4641030000000  0.4906250000000  0.5529390000000 1.0
C      1  0.5371070000000  0.4911620000000  0.4466930000000 1.0
C      1  0.5399870000000  0.4632740000000  0.4571950000000 1.0
C      1  0.4604010000000  0.4630060000000  0.5418970000000 1.0
C      1  0.4591730000000  0.4630780000000  0.4573680000000 1.0
C      1  0.5399320000000  0.4632140000000  0.5417830000000 1.0
C      1  0.4543330000000  0.4537230000000  0.5141310000000 1.0
C      1  0.5447540000000  0.4540130000000  0.4852610000000 1.0
C      1  0.5448210000000  0.4539940000000  0.5137180000000 1.0
C      1  0.4544020000000  0.4535930000000  0.4852330000000 1.0
C      1  0.5008220000000  0.5052010000000  0.4992590000000 1.0
END
