TITL C-2441158-471-1084 0.00732123542189731 125000 -11626.223694698 0 0 81 (C1) n - 1
REM
REM in /home/bkarasulu/work/CARBON/AIRSS/Generating-Clusters/ReaxFF-fromJPCA2015/Units_Real/with-SteepDescent/Higher-Symm
REM
REM
REM
REM
REM
REM ./C.cell (1df0a924f5614ab8850e4351716899ee)
REM
REM compiler GCC version 9.2.1 20190827 (Red Hat 9.2.1-1)
REM options -cpp -mtune=generic -march=x86-64 -g -O0 -fpre-include=/usr/include/finclude/math-vector-fortran.h
REM seed 1784777704 1606701109 -2000939733 -72438402 1157163658 -1295310459 -1103724641 -1317232975 100966660 1182919152 -2043938649 1070964388 863122592 707541706 449625691 -1320507968 551862631 1017710328 1989497316 601401252 153638809 1119648823 -958849383 731891799 -1530948442 -676888832 -1351766068 -1452199875 -1987977558 -1897260419 1845383971 104119924 1261053829
REM
CELL 1.54180   50.00000   50.00000   50.00000   90.00000   90.00000   90.00000
LATT -1
SFAC C  
C      1  0.4791130000000  0.4530100000000  0.5454930000000 1.0
C      1  0.4829250000000  0.5490550000000  0.5524360000000 1.0
C      1  0.4746820000000  0.5490020000000  0.4535770000000 1.0
C      1  0.4747420000000  0.4532040000000  0.4514020000000 1.0
C      1  0.5261270000000  0.4507550000000  0.4531350000000 1.0
C      1  0.5252730000000  0.5468280000000  0.4513700000000 1.0
C      1  0.5164730000000  0.5493920000000  0.5452590000000 1.0
C      1  0.5209990000000  0.4538110000000  0.5471340000000 1.0
C      1  0.4462500000000  0.5216880000000  0.5582150000000 1.0
C      1  0.4450250000000  0.5586180000000  0.4827710000000 1.0
C      1  0.4444850000000  0.4799060000000  0.4421740000000 1.0
C      1  0.4462950000000  0.4432060000000  0.5184150000000 1.0
C      1  0.5562310000000  0.5209150000000  0.4423690000000 1.0
C      1  0.5523020000000  0.5575960000000  0.5186860000000 1.0
C      1  0.5547090000000  0.4815110000000  0.5579030000000 1.0
C      1  0.5555260000000  0.4420770000000  0.4817330000000 1.0
C      1  0.5312230000000  0.4722880000000  0.5693870000000 1.0
C      1  0.5271290000000  0.5677270000000  0.5235000000000 1.0
C      1  0.5309890000000  0.5264350000000  0.4304440000000 1.0
C      1  0.5332100000000  0.4281110000000  0.4726020000000 1.0
C      1  0.4694060000000  0.4735240000000  0.4302960000000 1.0
C      1  0.4672880000000  0.5713800000000  0.4725920000000 1.0
C      1  0.4729710000000  0.5264820000000  0.5669500000000 1.0
C      1  0.4718930000000  0.4340060000000  0.5241260000000 1.0
C      1  0.5717090000000  0.4625850000000  0.4901770000000 1.0
C      1  0.5709180000000  0.4907550000000  0.5382090000000 1.0
C      1  0.5707600000000  0.5386310000000  0.5119520000000 1.0
C      1  0.5721990000000  0.5104060000000  0.4627520000000 1.0
C      1  0.4279750000000  0.4621540000000  0.5111110000000 1.0
C      1  0.4279040000000  0.4899900000000  0.4621480000000 1.0
C      1  0.4288650000000  0.5382750000000  0.4902950000000 1.0
C      1  0.4298840000000  0.5110660000000  0.5382880000000 1.0
C      1  0.5635280000000  0.5328030000000  0.4819600000000 1.0
C      1  0.5639980000000  0.4811890000000  0.4669200000000 1.0
C      1  0.5621850000000  0.4681720000000  0.5190060000000 1.0
C      1  0.5613940000000  0.5200690000000  0.5341430000000 1.0
C      1  0.4387700000000  0.5330860000000  0.5192480000000 1.0
C      1  0.4372060000000  0.4812740000000  0.5332240000000 1.0
C      1  0.4360160000000  0.4671730000000  0.4813310000000 1.0
C      1  0.4361700000000  0.5191860000000  0.4667780000000 1.0
C      1  0.5489580000000  0.4664400000000  0.4427100000000 1.0
C      1  0.5456520000000  0.4445180000000  0.5332970000000 1.0
C      1  0.5428570000000  0.5357200000000  0.5563920000000 1.0
C      1  0.5493030000000  0.5574640000000  0.4648570000000 1.0
C      1  0.4541250000000  0.4650050000000  0.5564080000000 1.0
C      1  0.4510780000000  0.4424900000000  0.4652430000000 1.0
C      1  0.4517420000000  0.5338540000000  0.4428750000000 1.0
C      1  0.4594690000000  0.5550900000000  0.5363720000000 1.0
C      1  0.5360210000000  0.5123940000000  0.5184810000000 1.0
C      1  0.5356780000000  0.5190090000000  0.4886750000000 1.0
C      1  0.5356110000000  0.4889540000000  0.4807780000000 1.0
C      1  0.5353320000000  0.4831900000000  0.5116490000000 1.0
C      1  0.4643290000000  0.5103220000000  0.4805260000000 1.0
C      1  0.4630500000000  0.5164830000000  0.5102780000000 1.0
C      1  0.4630410000000  0.4884330000000  0.5182720000000 1.0
C      1  0.4640490000000  0.4807100000000  0.4889510000000 1.0
C      1  0.5327020000000  0.4821070000000  0.4269270000000 1.0
C      1  0.5317070000000  0.4276030000000  0.5166820000000 1.0
C      1  0.5314000000000  0.5184580000000  0.5738500000000 1.0
C      1  0.5362940000000  0.5801090000000  0.4775170000000 1.0
C      1  0.4653340000000  0.4789490000000  0.5792840000000 1.0
C      1  0.4645400000000  0.4203680000000  0.4784900000000 1.0
C      1  0.4679290000000  0.5180990000000  0.4271740000000 1.0
C      1  0.4733880000000  0.5707990000000  0.5190520000000 1.0
C      1  0.4871500000000  0.4619920000000  0.4784220000000 1.0
C      1  0.4870310000000  0.4812160000000  0.5367190000000 1.0
C      1  0.4926070000000  0.5218430000000  0.5123120000000 1.0
C      1  0.4869940000000  0.5269020000000  0.4690400000000 1.0
C      1  0.5118430000000  0.4709090000000  0.5248480000000 1.0
C      1  0.5131300000000  0.4725520000000  0.4686170000000 1.0
C      1  0.5132490000000  0.5376270000000  0.4783210000000 1.0
C      1  0.5134380000000  0.5246620000000  0.5308010000000 1.0
C      1  0.5152210000000  0.4204610000000  0.4955840000000 1.0
C      1  0.5154630000000  0.4961030000000  0.5785490000000 1.0
C      1  0.5135630000000  0.5682260000000  0.4960110000000 1.0
C      1  0.5150260000000  0.5023310000000  0.4201750000000 1.0
C      1  0.4871190000000  0.4323810000000  0.4967970000000 1.0
C      1  0.4853740000000  0.4977050000000  0.4202130000000 1.0
C      1  0.4850560000000  0.5794150000000  0.4956310000000 1.0
C      1  0.4871780000000  0.4977830000000  0.5672340000000 1.0
C      1  0.4996340000000  0.4989210000000  0.4971880000000 1.0
END
