TITL C-2441159-1093-631 0.14958307239746 125000 -21143.5490196305 0 0 172 (C1) n - 1
REM
REM in /home/bkarasulu/work/CARBON/AIRSS/Generating-Clusters/ReaxFF-fromJPCA2015/Units_Real/with-SteepDescent/Higher-Symm
REM
REM
REM
REM
REM
REM ./C.cell (1df0a924f5614ab8850e4351716899ee)
REM
REM compiler GCC version 9.2.1 20190827 (Red Hat 9.2.1-1)
REM options -cpp -mtune=generic -march=x86-64 -g -O0 -fpre-include=/usr/include/finclude/math-vector-fortran.h
REM seed 1531514258 139943994 -953784580 -675953912 -263310220 1886645761 -1043129502 -1742499674 961033175 779609055 220989259 812116444 14901508 1488141304 -1812199720 -1849934344 -277702593 -2051755258 -1832527361 888279412 1419245679 2065333489 1339600050 1382917108 1083954937 563754965 -1175419962 1283079390 -1042310384 -41628241 1836214477 1774466282 2014061186
REM
CELL 1.54180   50.00000   50.00000   50.00000   90.00000   90.00000   90.00000
LATT -1
SFAC C  
C      1  0.4295470000000  0.5545150000000  0.4461500000000 1.0
C      1  0.4813330000000  0.5887440000000  0.5504220000000 1.0
C      1  0.5397200000000  0.5864090000000  0.4500290000000 1.0
C      1  0.5828720000000  0.5456180000000  0.5486780000000 1.0
C      1  0.5936170000000  0.4934740000000  0.4461030000000 1.0
C      1  0.5721380000000  0.4417650000000  0.5536050000000 1.0
C      1  0.5232770000000  0.4098970000000  0.4468590000000 1.0
C      1  0.4619110000000  0.4130090000000  0.5517600000000 1.0
C      1  0.4218880000000  0.4495640000000  0.4463740000000 1.0
C      1  0.4079850000000  0.5096910000000  0.5488460000000 1.0
C      1  0.5195460000000  0.4358050000000  0.4350440000000 1.0
C      1  0.4854790000000  0.4404670000000  0.5684100000000 1.0
C      1  0.4488490000000  0.4552510000000  0.4356110000000 1.0
C      1  0.4401540000000  0.5000420000000  0.5708780000000 1.0
C      1  0.4471980000000  0.5351670000000  0.4308480000000 1.0
C      1  0.4841880000000  0.5504710000000  0.5844480000000 1.0
C      1  0.5176270000000  0.5585490000000  0.4188380000000 1.0
C      1  0.5481260000000  0.5373950000000  0.5695990000000 1.0
C      1  0.5670010000000  0.5055180000000  0.4347820000000 1.0
C      1  0.5587600000000  0.4659500000000  0.5634110000000 1.0
C      1  0.4779050000000  0.4751020000000  0.5071430000000 1.0
C      1  0.4625280000000  0.4903200000000  0.4962950000000 1.0
C      1  0.4653810000000  0.5132320000000  0.5035990000000 1.0
C      1  0.4821250000000  0.5297180000000  0.4923030000000 1.0
C      1  0.5013130000000  0.5340170000000  0.5066760000000 1.0
C      1  0.5224900000000  0.5292140000000  0.4962280000000 1.0
C      1  0.5364960000000  0.5102970000000  0.5030440000000 1.0
C      1  0.5318270000000  0.4865280000000  0.4942450000000 1.0
C      1  0.5161130000000  0.4712370000000  0.5043700000000 1.0
C      1  0.4961830000000  0.4656030000000  0.4925260000000 1.0
C      1  0.5212940000000  0.4887620000000  0.5454180000000 1.0
C      1  0.5106550000000  0.4803200000000  0.4534540000000 1.0
C      1  0.4964640000000  0.4781340000000  0.5473630000000 1.0
C      1  0.4835240000000  0.4845360000000  0.4520740000000 1.0
C      1  0.4768080000000  0.4974260000000  0.5472420000000 1.0
C      1  0.4781330000000  0.5121720000000  0.4522380000000 1.0
C      1  0.4896060000000  0.5216470000000  0.5468260000000 1.0
C      1  0.5033880000000  0.5249850000000  0.4530990000000 1.0
C      1  0.5161310000000  0.5157050000000  0.5443550000000 1.0
C      1  0.5223760000000  0.5049350000000  0.4528490000000 1.0
C      1  0.4028960000000  0.5084880000000  0.4482630000000 1.0
C      1  0.4235060000000  0.5667350000000  0.5509140000000 1.0
C      1  0.4743090000000  0.5983060000000  0.4484260000000 1.0
C      1  0.5370480000000  0.5915450000000  0.5520830000000 1.0
C      1  0.5849830000000  0.5541140000000  0.4483280000000 1.0
C      1  0.6003590000000  0.4944950000000  0.5510610000000 1.0
C      1  0.5721400000000  0.4392930000000  0.4476780000000 1.0
C      1  0.5239290000000  0.4051250000000  0.5522030000000 1.0
C      1  0.4606500000000  0.4063810000000  0.4489630000000 1.0
C      1  0.4162130000000  0.4520690000000  0.5498110000000 1.0
C      1  0.4360250000000  0.4804760000000  0.4921380000000 1.0
C      1  0.4391770000000  0.5268250000000  0.5128910000000 1.0
C      1  0.4751810000000  0.5580510000000  0.4888310000000 1.0
C      1  0.4961340000000  0.5584160000000  0.5206680000000 1.0
C      1  0.5367810000000  0.5534080000000  0.4810030000000 1.0
C      1  0.5641970000000  0.5058560000000  0.5094170000000 1.0
C      1  0.5598940000000  0.4795820000000  0.4967290000000 1.0
C      1  0.5230540000000  0.4400100000000  0.5064700000000 1.0
C      1  0.4958010000000  0.4371340000000  0.4886340000000 1.0
C      1  0.4573320000000  0.4523070000000  0.5109810000000 1.0
C      1  0.4936410000000  0.4503670000000  0.5431240000000 1.0
C      1  0.4660270000000  0.4633050000000  0.4584960000000 1.0
C      1  0.4515190000000  0.4916390000000  0.5325820000000 1.0
C      1  0.4558520000000  0.5162840000000  0.4681110000000 1.0
C      1  0.4766600000000  0.5448470000000  0.5383460000000 1.0
C      1  0.5072610000000  0.5495690000000  0.4656310000000 1.0
C      1  0.5360410000000  0.5354930000000  0.5412720000000 1.0
C      1  0.5496340000000  0.5093570000000  0.4577200000000 1.0
C      1  0.5466070000000  0.4772550000000  0.5360920000000 1.0
C      1  0.5252160000000  0.4586250000000  0.4686130000000 1.0
C      1  0.4495340000000  0.4795570000000  0.5897610000000 1.0
C      1  0.4554830000000  0.5145070000000  0.4124720000000 1.0
C      1  0.4587530000000  0.5386240000000  0.5875200000000 1.0
C      1  0.4899950000000  0.5556960000000  0.4125500000000 1.0
C      1  0.5261160000000  0.5378450000000  0.5904170000000 1.0
C      1  0.5460510000000  0.5158410000000  0.4108050000000 1.0
C      1  0.5466970000000  0.4865310000000  0.5861960000000 1.0
C      1  0.5310070000000  0.4678990000000  0.4133410000000 1.0
C      1  0.5002400000000  0.4546640000000  0.5882110000000 1.0
C      1  0.4767370000000  0.4595080000000  0.4135730000000 1.0
C      1  0.5024500000000  0.6051740000000  0.5138930000000 1.0
C      1  0.5644270000000  0.5849670000000  0.4870970000000 1.0
C      1  0.6015060000000  0.5296310000000  0.5119360000000 1.0
C      1  0.5992480000000  0.4646580000000  0.4857860000000 1.0
C      1  0.5583630000000  0.4154090000000  0.5140610000000 1.0
C      1  0.4968790000000  0.3955650000000  0.4858560000000 1.0
C      1  0.4338830000000  0.4171050000000  0.5133750000000 1.0
C      1  0.3980880000000  0.4696540000000  0.4847460000000 1.0
C      1  0.3983830000000  0.5368910000000  0.5125420000000 1.0
C      1  0.4404460000000  0.5841990000000  0.4850320000000 1.0
C      1  0.6005920000000  0.5189930000000  0.4861960000000 1.0
C      1  0.5930320000000  0.4562070000000  0.5126050000000 1.0
C      1  0.5481050000000  0.4116760000000  0.4876980000000 1.0
C      1  0.4869980000000  0.3984900000000  0.5118210000000 1.0
C      1  0.4292890000000  0.4254260000000  0.4866040000000 1.0
C      1  0.4006500000000  0.4801680000000  0.5118570000000 1.0
C      1  0.4077380000000  0.5425700000000  0.4866470000000 1.0
C      1  0.4487790000000  0.5896350000000  0.5111630000000 1.0
C      1  0.5116270000000  0.6025890000000  0.4873890000000 1.0
C      1  0.5686650000000  0.5763650000000  0.5130810000000 1.0
C      1  0.4786000000000  0.4746800000000  0.5956450000000 1.0
C      1  0.4728860000000  0.4869400000000  0.4069340000000 1.0
C      1  0.4584680000000  0.5104920000000  0.5896910000000 1.0
C      1  0.4810540000000  0.5282710000000  0.4061380000000 1.0
C      1  0.4993270000000  0.5272800000000  0.5920230000000 1.0
C      1  0.5265780000000  0.5347790000000  0.4120950000000 1.0
C      1  0.5420560000000  0.5143230000000  0.5873320000000 1.0
C      1  0.5258560000000  0.4941670000000  0.4036860000000 1.0
C      1  0.5198800000000  0.4777530000000  0.5906710000000 1.0
C      1  0.5058330000000  0.4536770000000  0.4153490000000 1.0
C      1  0.5517700000000  0.4390060000000  0.5722620000000 1.0
C      1  0.5021490000000  0.4141090000000  0.4284510000000 1.0
C      1  0.4585750000000  0.4321150000000  0.5712940000000 1.0
C      1  0.4257370000000  0.4708390000000  0.4287380000000 1.0
C      1  0.4193940000000  0.5200780000000  0.5709560000000 1.0
C      1  0.4486270000000  0.5634870000000  0.4270370000000 1.0
C      1  0.4931910000000  0.5773580000000  0.5728470000000 1.0
C      1  0.5443000000000  0.5727710000000  0.4274370000000 1.0
C      1  0.5788550000000  0.5323620000000  0.5715300000000 1.0
C      1  0.5761170000000  0.4792170000000  0.4290110000000 1.0
C      1  0.3983400000000  0.5084790000000  0.5231510000000 1.0
C      1  0.4259870000000  0.5618000000000  0.4740570000000 1.0
C      1  0.4754760000000  0.5982600000000  0.5252300000000 1.0
C      1  0.5386330000000  0.5963110000000  0.4755250000000 1.0
C      1  0.5866320000000  0.5539060000000  0.5233590000000 1.0
C      1  0.5998050000000  0.4917740000000  0.4741050000000 1.0
C      1  0.5751100000000  0.4366900000000  0.5253830000000 1.0
C      1  0.5229400000000  0.4034970000000  0.4749910000000 1.0
C      1  0.4600360000000  0.4067870000000  0.5245590000000 1.0
C      1  0.4143830000000  0.4471230000000  0.4737440000000 1.0
C      1  0.4706040000000  0.3948630000000  0.4741910000000 1.0
C      1  0.4161710000000  0.4350390000000  0.5269040000000 1.0
C      1  0.3917590000000  0.4945000000000  0.4705740000000 1.0
C      1  0.4084890000000  0.5594720000000  0.5269360000000 1.0
C      1  0.4593220000000  0.6013780000000  0.4731640000000 1.0
C      1  0.5277550000000  0.6043180000000  0.5281870000000 1.0
C      1  0.5834510000000  0.5689600000000  0.4730880000000 1.0
C      1  0.6093050000000  0.5065710000000  0.5265280000000 1.0
C      1  0.5893390000000  0.4424380000000  0.4707340000000 1.0
C      1  0.5387740000000  0.4001360000000  0.5283610000000 1.0
C      1  0.4359560000000  0.5444210000000  0.5656110000000 1.0
C      1  0.4747090000000  0.5729760000000  0.4332000000000 1.0
C      1  0.5215120000000  0.5707010000000  0.5655880000000 1.0
C      1  0.5611670000000  0.5476140000000  0.4324500000000 1.0
C      1  0.5764140000000  0.5035160000000  0.5640270000000 1.0
C      1  0.5568470000000  0.4611160000000  0.4363150000000 1.0
C      1  0.5247660000000  0.4313290000000  0.5654200000000 1.0
C      1  0.4778530000000  0.4267170000000  0.4368690000000 1.0
C      1  0.4405830000000  0.4558510000000  0.5658290000000 1.0
C      1  0.4276310000000  0.4983410000000  0.4369450000000 1.0
C      1  0.5516350000000  0.4698660000000  0.4658140000000 1.0
C      1  0.5218350000000  0.4446720000000  0.5383910000000 1.0
C      1  0.4847960000000  0.4419600000000  0.4619510000000 1.0
C      1  0.4556330000000  0.4635490000000  0.5402200000000 1.0
C      1  0.4402540000000  0.4936110000000  0.4657370000000 1.0
C      1  0.4503800000000  0.5332320000000  0.5392560000000 1.0
C      1  0.4810330000000  0.5594080000000  0.4623840000000 1.0
C      1  0.5186690000000  0.5573130000000  0.5393470000000 1.0
C      1  0.5492440000000  0.5367120000000  0.4563670000000 1.0
C      1  0.5607000000000  0.5030770000000  0.5384070000000 1.0
C      1  0.5993870000000  0.4795530000000  0.5266990000000 1.0
C      1  0.5632950000000  0.4309450000000  0.4736390000000 1.0
C      1  0.5101480000000  0.4037150000000  0.5271750000000 1.0
C      1  0.4513520000000  0.4150650000000  0.4737260000000 1.0
C      1  0.4190250000000  0.4639750000000  0.5238770000000 1.0
C      1  0.4057460000000  0.5184110000000  0.4735590000000 1.0
C      1  0.4342570000000  0.5709270000000  0.5257100000000 1.0
C      1  0.4883650000000  0.5983960000000  0.4728030000000 1.0
C      1  0.5466600000000  0.5838850000000  0.5275130000000 1.0
C      1  0.5861720000000  0.5403920000000  0.4737730000000 1.0
C      1  0.4958230000000  0.5031860000000  0.4034290000000 1.0
C      1  0.4980130000000  0.4959300000000  0.5943240000000 1.0
END
