TITL C-2441163-1170-197 0.0731297372971513 125000 -26278.2346274142 0 0 191 (C1) n - 1
REM
REM in /home/bkarasulu/work/CARBON/AIRSS/Generating-Clusters/ReaxFF-fromJPCA2015/Units_Real/with-SteepDescent/Higher-Symm
REM
REM
REM
REM
REM
REM ./C.cell (1df0a924f5614ab8850e4351716899ee)
REM
REM compiler GCC version 9.2.1 20190827 (Red Hat 9.2.1-1)
REM options -cpp -mtune=generic -march=x86-64 -g -O0 -fpre-include=/usr/include/finclude/math-vector-fortran.h
REM seed 1465840882 994091275 -729266799 452203974 -1157232134 1535827231 944088132 -704387352 -1088984357 1493169532 1060473635 1449139190 -571723256 2048165188 170395726 1110335451 1102535769 -1970800533 914776285 -779617924 462318856 -297448029 -1482928794 -217346795 579469900 -1094449982 838634281 264444304 1522491318 1680207135 822229361 1017479951 -278616158
REM
CELL 1.54180   50.00000   50.00000   50.00000   90.00000   90.00000   90.00000
LATT -1
SFAC C  
C      1  0.4982650000000  0.4591630000000  0.5877580000000 1.0
C      1  0.5421090000000  0.4824750000000  0.5911370000000 1.0
C      1  0.5259610000000  0.5300920000000  0.5906910000000 1.0
C      1  0.4779190000000  0.5365840000000  0.5916620000000 1.0
C      1  0.4613370000000  0.4900500000000  0.5892210000000 1.0
C      1  0.5040600000000  0.5482210000000  0.5981510000000 1.0
C      1  0.5467950000000  0.5102680000000  0.5987370000000 1.0
C      1  0.5263800000000  0.4580910000000  0.5963480000000 1.0
C      1  0.4708880000000  0.4637480000000  0.5979380000000 1.0
C      1  0.4558890000000  0.5182740000000  0.5982030000000 1.0
C      1  0.5098860000000  0.5716180000000  0.5806530000000 1.0
C      1  0.4354170000000  0.5327200000000  0.5821280000000 1.0
C      1  0.4489010000000  0.4501040000000  0.5834800000000 1.0
C      1  0.5329710000000  0.4318120000000  0.5832720000000 1.0
C      1  0.5722180000000  0.5148220000000  0.5840850000000 1.0
C      1  0.5099350000000  0.4172410000000  0.5751450000000 1.0
C      1  0.4244640000000  0.4648330000000  0.5771330000000 1.0
C      1  0.4423480000000  0.5608340000000  0.5775010000000 1.0
C      1  0.5390620000000  0.5752150000000  0.5773890000000 1.0
C      1  0.5891620000000  0.4917330000000  0.5792740000000 1.0
C      1  0.5230150000000  0.4725260000000  0.4271580000000 1.0
C      1  0.5486070000000  0.5176480000000  0.4269630000000 1.0
C      1  0.4967320000000  0.5452160000000  0.4280630000000 1.0
C      1  0.4526140000000  0.5126310000000  0.4361100000000 1.0
C      1  0.4718500000000  0.4639270000000  0.4289040000000 1.0
C      1  0.5240060000000  0.5340070000000  0.4257230000000 1.0
C      1  0.5504780000000  0.4823070000000  0.4263710000000 1.0
C      1  0.4999200000000  0.4562730000000  0.4319200000000 1.0
C      1  0.4550330000000  0.4868350000000  0.4246620000000 1.0
C      1  0.4693350000000  0.5338460000000  0.4252570000000 1.0
C      1  0.5435720000000  0.5140530000000  0.5185780000000 1.0
C      1  0.4999030000000  0.5357200000000  0.5219490000000 1.0
C      1  0.4560810000000  0.5136130000000  0.5184110000000 1.0
C      1  0.4730630000000  0.4626830000000  0.5147370000000 1.0
C      1  0.5278550000000  0.4625880000000  0.5130600000000 1.0
C      1  0.5444780000000  0.4845260000000  0.5155140000000 1.0
C      1  0.5011980000000  0.4521080000000  0.5183590000000 1.0
C      1  0.4545180000000  0.4846460000000  0.5153200000000 1.0
C      1  0.4740300000000  0.5358240000000  0.5118580000000 1.0
C      1  0.5256650000000  0.5362810000000  0.5114980000000 1.0
C      1  0.4339800000000  0.4775410000000  0.4966890000000 1.0
C      1  0.4997710000000  0.4333590000000  0.4959490000000 1.0
C      1  0.5657010000000  0.4802930000000  0.4965620000000 1.0
C      1  0.5373650000000  0.5568510000000  0.4953440000000 1.0
C      1  0.4605070000000  0.5553160000000  0.4954210000000 1.0
C      1  0.4341860000000  0.5224340000000  0.4969920000000 1.0
C      1  0.5003970000000  0.5740830000000  0.4986820000000 1.0
C      1  0.5637720000000  0.5218600000000  0.4946040000000 1.0
C      1  0.5402400000000  0.4428930000000  0.4954980000000 1.0
C      1  0.4598270000000  0.4449980000000  0.4923380000000 1.0
C      1  0.5840120000000  0.5765400000000  0.5410210000000 1.0
C      1  0.4553270000000  0.6034790000000  0.5416960000000 1.0
C      1  0.3873370000000  0.4889080000000  0.5415310000000 1.0
C      1  0.4741690000000  0.3882170000000  0.5406180000000 1.0
C      1  0.5934620000000  0.4485780000000  0.5419280000000 1.0
C      1  0.5765670000000  0.4266430000000  0.5407410000000 1.0
C      1  0.4487160000000  0.3931960000000  0.5308020000000 1.0
C      1  0.3811710000000  0.5143810000000  0.5325820000000 1.0
C      1  0.4769930000000  0.6179520000000  0.5321950000000 1.0
C      1  0.6036820000000  0.5593180000000  0.5321230000000 1.0
C      1  0.5230370000000  0.5279600000000  0.5631520000000 1.0
C      1  0.4755400000000  0.5303690000000  0.5644900000000 1.0
C      1  0.4640160000000  0.4869120000000  0.5614980000000 1.0
C      1  0.5023960000000  0.4596370000000  0.5590660000000 1.0
C      1  0.5479150000000  0.4832460000000  0.5614710000000 1.0
C      1  0.5313000000000  0.4603640000000  0.5539200000000 1.0
C      1  0.4752000000000  0.4636840000000  0.5487240000000 1.0
C      1  0.4572320000000  0.5120260000000  0.5505220000000 1.0
C      1  0.4991110000000  0.5396390000000  0.5507940000000 1.0
C      1  0.5438520000000  0.5148260000000  0.5499220000000 1.0
C      1  0.4619880000000  0.4378050000000  0.5579530000000 1.0
C      1  0.5483150000000  0.4355780000000  0.5546950000000 1.0
C      1  0.5677470000000  0.5305760000000  0.5567760000000 1.0
C      1  0.4934770000000  0.5723640000000  0.5551040000000 1.0
C      1  0.4278510000000  0.5162210000000  0.5571100000000 1.0
C      1  0.4590600000000  0.5749890000000  0.5554610000000 1.0
C      1  0.5583250000000  0.5646160000000  0.5556530000000 1.0
C      1  0.5803190000000  0.4748700000000  0.5546850000000 1.0
C      1  0.4868830000000  0.4130190000000  0.5578070000000 1.0
C      1  0.4158760000000  0.4828770000000  0.5545740000000 1.0
C      1  0.5911170000000  0.5155710000000  0.4432140000000 1.0
C      1  0.5100760000000  0.5809910000000  0.4383120000000 1.0
C      1  0.4230160000000  0.5419050000000  0.4438140000000 1.0
C      1  0.4350980000000  0.4338370000000  0.4392000000000 1.0
C      1  0.5378980000000  0.4338430000000  0.4468280000000 1.0
C      1  0.5911490000000  0.4826150000000  0.4425040000000 1.0
C      1  0.5134360000000  0.4116340000000  0.4411980000000 1.0
C      1  0.4243230000000  0.4638360000000  0.4419520000000 1.0
C      1  0.4491960000000  0.5598450000000  0.4501950000000 1.0
C      1  0.5341000000000  0.5661430000000  0.4495090000000 1.0
C      1  0.4990430000000  0.5507720000000  0.4814710000000 1.0
C      1  0.4546540000000  0.5153090000000  0.4777580000000 1.0
C      1  0.4716180000000  0.4626710000000  0.4726410000000 1.0
C      1  0.5294000000000  0.4561120000000  0.4704610000000 1.0
C      1  0.5441650000000  0.5131880000000  0.4745930000000 1.0
C      1  0.4993960000000  0.4513790000000  0.4723140000000 1.0
C      1  0.4532950000000  0.4861450000000  0.4745710000000 1.0
C      1  0.4695570000000  0.5418270000000  0.4704350000000 1.0
C      1  0.5257550000000  0.5451510000000  0.4706930000000 1.0
C      1  0.5460130000000  0.4843200000000  0.4739220000000 1.0
C      1  0.6221010000000  0.4832480000000  0.4802760000000 1.0
C      1  0.5507440000000  0.6054980000000  0.4785510000000 1.0
C      1  0.4144010000000  0.5836170000000  0.4804940000000 1.0
C      1  0.3950950000000  0.4455420000000  0.4797640000000 1.0
C      1  0.5250440000000  0.3798720000000  0.4810240000000 1.0
C      1  0.6229810000000  0.5148340000000  0.4796830000000 1.0
C      1  0.5512860000000  0.3944380000000  0.4789090000000 1.0
C      1  0.4080950000000  0.4199890000000  0.4797350000000 1.0
C      1  0.3942970000000  0.5610640000000  0.4792180000000 1.0
C      1  0.5232820000000  0.6147150000000  0.4770980000000 1.0
C      1  0.4173700000000  0.4190980000000  0.5309490000000 1.0
C      1  0.5497020000000  0.3953650000000  0.5295610000000 1.0
C      1  0.6160810000000  0.5206450000000  0.5315880000000 1.0
C      1  0.5166080000000  0.6129220000000  0.5280310000000 1.0
C      1  0.3970240000000  0.5521370000000  0.5310760000000 1.0
C      1  0.4132110000000  0.5770890000000  0.5310840000000 1.0
C      1  0.5446450000000  0.6066040000000  0.5290010000000 1.0
C      1  0.6152940000000  0.4914070000000  0.5286400000000 1.0
C      1  0.5228150000000  0.3829970000000  0.5313610000000 1.0
C      1  0.4003800000000  0.4426740000000  0.5282840000000 1.0
C      1  0.4585560000000  0.4163210000000  0.4903180000000 1.0
C      1  0.5682000000000  0.4356910000000  0.4950010000000 1.0
C      1  0.5818010000000  0.5441650000000  0.4925170000000 1.0
C      1  0.4835190000000  0.5964680000000  0.4913750000000 1.0
C      1  0.4070350000000  0.5135880000000  0.4931230000000 1.0
C      1  0.4588020000000  0.5845220000000  0.4963950000000 1.0
C      1  0.5656160000000  0.5661320000000  0.4962570000000 1.0
C      1  0.5845220000000  0.4578650000000  0.4960470000000 1.0
C      1  0.4849900000000  0.4078450000000  0.4953640000000 1.0
C      1  0.4060900000000  0.4857570000000  0.4961870000000 1.0
C      1  0.5079020000000  0.6048610000000  0.4542780000000 1.0
C      1  0.4032590000000  0.5429070000000  0.4601020000000 1.0
C      1  0.4263390000000  0.4202110000000  0.4592400000000 1.0
C      1  0.5556950000000  0.4147780000000  0.4581470000000 1.0
C      1  0.6048210000000  0.5234040000000  0.4616000000000 1.0
C      1  0.5131210000000  0.3930610000000  0.4600860000000 1.0
C      1  0.3998390000000  0.4634270000000  0.4570740000000 1.0
C      1  0.4348490000000  0.5835560000000  0.4602800000000 1.0
C      1  0.5578380000000  0.5869820000000  0.4569890000000 1.0
C      1  0.6037920000000  0.4745390000000  0.4618750000000 1.0
C      1  0.6093800000000  0.5516950000000  0.5052860000000 1.0
C      1  0.4837780000000  0.6232440000000  0.5048750000000 1.0
C      1  0.3803300000000  0.5235710000000  0.5054970000000 1.0
C      1  0.4396280000000  0.3965230000000  0.5042900000000 1.0
C      1  0.5814440000000  0.4165730000000  0.5132800000000 1.0
C      1  0.6059180000000  0.4529020000000  0.5154150000000 1.0
C      1  0.4845140000000  0.3829520000000  0.5125030000000 1.0
C      1  0.3836890000000  0.4780240000000  0.5139430000000 1.0
C      1  0.4433310000000  0.6030250000000  0.5139200000000 1.0
C      1  0.5795850000000  0.5867420000000  0.5130600000000 1.0
C      1  0.5459690000000  0.4855000000000  0.3960980000000 1.0
C      1  0.5240910000000  0.5354160000000  0.3974630000000 1.0
C      1  0.4697100000000  0.5360320000000  0.3952750000000 1.0
C      1  0.4556720000000  0.4840060000000  0.3944790000000 1.0
C      1  0.4998160000000  0.4504190000000  0.4018910000000 1.0
C      1  0.5448500000000  0.5146320000000  0.3968380000000 1.0
C      1  0.5246770000000  0.4658940000000  0.3991350000000 1.0
C      1  0.4717170000000  0.4588290000000  0.4000930000000 1.0
C      1  0.4620090000000  0.5102140000000  0.3893530000000 1.0
C      1  0.4975370000000  0.5478800000000  0.3982940000000 1.0
C      1  0.5393770000000  0.5786440000000  0.5359760000000 1.0
C      1  0.4381160000000  0.5617020000000  0.5360890000000 1.0
C      1  0.4230790000000  0.4610510000000  0.5326310000000 1.0
C      1  0.5096420000000  0.4097290000000  0.5352990000000 1.0
C      1  0.5860270000000  0.4919320000000  0.5299610000000 1.0
C      1  0.5357470000000  0.4224300000000  0.5308160000000 1.0
C      1  0.4401510000000  0.4378440000000  0.5377660000000 1.0
C      1  0.4227130000000  0.5367950000000  0.5364040000000 1.0
C      1  0.5098960000000  0.5819140000000  0.5310910000000 1.0
C      1  0.5866460000000  0.5201620000000  0.5366260000000 1.0
C      1  0.4855710000000  0.4133710000000  0.4375360000000 1.0
C      1  0.5713340000000  0.4646220000000  0.4391620000000 1.0
C      1  0.5646440000000  0.5638260000000  0.4421780000000 1.0
C      1  0.4577650000000  0.5862040000000  0.4441770000000 1.0
C      1  0.4085880000000  0.4875640000000  0.4414290000000 1.0
C      1  0.4849170000000  0.5937590000000  0.4433780000000 1.0
C      1  0.5712930000000  0.5354710000000  0.4387590000000 1.0
C      1  0.5665230000000  0.4362470000000  0.4431700000000 1.0
C      1  0.4599230000000  0.4198500000000  0.4373310000000 1.0
C      1  0.4239100000000  0.5134780000000  0.4403580000000 1.0
C      1  0.6251570000000  0.4732100000000  0.5082610000000 1.0
C      1  0.5622830000000  0.6086250000000  0.5056960000000 1.0
C      1  0.4163350000000  0.5944850000000  0.5073830000000 1.0
C      1  0.3843880000000  0.4507210000000  0.5057420000000 1.0
C      1  0.5108890000000  0.3725390000000  0.5069800000000 1.0
C      1  0.6269680000000  0.5290000000000  0.5053180000000 1.0
C      1  0.5654670000000  0.3938730000000  0.5044950000000 1.0
C      1  0.4132180000000  0.4068530000000  0.5050870000000 1.0
C      1  0.3824790000000  0.5522610000000  0.5053890000000 1.0
C      1  0.5123260000000  0.6250830000000  0.5019580000000 1.0
C      1  0.5106100000000  0.5005270000000  0.4707750000000 1.0
END
