TITL C-2441164-471-909 0.0282650749593472 125000 -14352.2996530223 0 0 100 (C1) n - 1
REM
REM in /home/bkarasulu/work/CARBON/AIRSS/Generating-Clusters/ReaxFF-fromJPCA2015/Units_Real/with-SteepDescent/Higher-Symm
REM
REM
REM
REM
REM
REM ./C.cell (1df0a924f5614ab8850e4351716899ee)
REM
REM compiler GCC version 9.2.1 20190827 (Red Hat 9.2.1-1)
REM options -cpp -mtune=generic -march=x86-64 -g -O0 -fpre-include=/usr/include/finclude/math-vector-fortran.h
REM seed -1507938 -536436323 1164874331 -1644786213 1267571839 -1948175839 -2068058199 -1015804081 -97169672 -239705482 -1016615657 529000946 -1620308116 -2010361378 -1754767510 1976997815 -1691187387 -1667761403 -790281142 -1675441148 -775797104 -226176047 -1448635363 -286602570 1021261798 1851328549 446623965 -445594753 -1883500655 1012052991 -1064070520 857123634 -243691349
REM
CELL 1.54180   50.00000   50.00000   50.00000   90.00000   90.00000   90.00000
LATT -1
SFAC C  
C      1  0.5234320000000  0.4554530000000  0.5779070000000 1.0
C      1  0.5281860000000  0.5602390000000  0.5687380000000 1.0
C      1  0.5020840000000  0.5779060000000  0.4758910000000 1.0
C      1  0.5041240000000  0.5031880000000  0.4219710000000 1.0
C      1  0.5025940000000  0.4266410000000  0.4727200000000 1.0
C      1  0.5730930000000  0.5385410000000  0.5084200000000 1.0
C      1  0.5845410000000  0.5226960000000  0.4622220000000 1.0
C      1  0.5810790000000  0.4750000000000  0.4692720000000 1.0
C      1  0.5722350000000  0.4585050000000  0.5122520000000 1.0
C      1  0.5812300000000  0.5014950000000  0.5312470000000 1.0
C      1  0.4748250000000  0.5777430000000  0.4650430000000 1.0
C      1  0.4767800000000  0.4944450000000  0.4159240000000 1.0
C      1  0.4769590000000  0.4128670000000  0.4783990000000 1.0
C      1  0.4735130000000  0.4573440000000  0.5753350000000 1.0
C      1  0.4752570000000  0.5573680000000  0.5611870000000 1.0
C      1  0.4728440000000  0.5124670000000  0.5188260000000 1.0
C      1  0.4674380000000  0.5261600000000  0.4939030000000 1.0
C      1  0.4782080000000  0.5047790000000  0.4773420000000 1.0
C      1  0.4707290000000  0.4774860000000  0.4844580000000 1.0
C      1  0.4772370000000  0.4823040000000  0.5134450000000 1.0
C      1  0.5340000000000  0.4770880000000  0.4336830000000 1.0
C      1  0.5345700000000  0.4297290000000  0.5115880000000 1.0
C      1  0.5435610000000  0.4768280000000  0.5739450000000 1.0
C      1  0.5406000000000  0.5587210000000  0.5307680000000 1.0
C      1  0.5352490000000  0.5600220000000  0.4594760000000 1.0
C      1  0.5041550000000  0.5454420000000  0.5678690000000 1.0
C      1  0.5105030000000  0.5507280000000  0.4705500000000 1.0
C      1  0.5101720000000  0.4884120000000  0.4456720000000 1.0
C      1  0.5106740000000  0.4438850000000  0.4965440000000 1.0
C      1  0.4989030000000  0.4676460000000  0.5639600000000 1.0
C      1  0.5570530000000  0.4949690000000  0.4322290000000 1.0
C      1  0.5573730000000  0.4306740000000  0.4853460000000 1.0
C      1  0.5576210000000  0.4625910000000  0.5513340000000 1.0
C      1  0.5560060000000  0.5407150000000  0.5500310000000 1.0
C      1  0.5563570000000  0.5630430000000  0.4796410000000 1.0
C      1  0.5475220000000  0.4388500000000  0.4614760000000 1.0
C      1  0.5445410000000  0.4388050000000  0.5386990000000 1.0
C      1  0.5419520000000  0.5149100000000  0.5509430000000 1.0
C      1  0.5487760000000  0.5725570000000  0.5063530000000 1.0
C      1  0.5464550000000  0.5181730000000  0.4452600000000 1.0
C      1  0.4670860000000  0.4231570000000  0.5048970000000 1.0
C      1  0.4629040000000  0.4851330000000  0.5770190000000 1.0
C      1  0.4633680000000  0.5658640000000  0.5351180000000 1.0
C      1  0.4678600000000  0.5559740000000  0.4468940000000 1.0
C      1  0.4672050000000  0.4714610000000  0.4320940000000 1.0
C      1  0.4239050000000  0.5342830000000  0.5355180000000 1.0
C      1  0.4387310000000  0.5376400000000  0.4814370000000 1.0
C      1  0.4258050000000  0.4919480000000  0.4503290000000 1.0
C      1  0.4409610000000  0.4602380000000  0.4899680000000 1.0
C      1  0.4304300000000  0.4749440000000  0.5433430000000 1.0
C      1  0.4358370000000  0.5634180000000  0.4969540000000 1.0
C      1  0.4354480000000  0.5169920000000  0.4383840000000 1.0
C      1  0.4378510000000  0.4459950000000  0.4618660000000 1.0
C      1  0.4446730000000  0.4493310000000  0.5384080000000 1.0
C      1  0.4343070000000  0.5229970000000  0.5609640000000 1.0
C      1  0.4561400000000  0.5394020000000  0.5658880000000 1.0
C      1  0.4599380000000  0.5770650000000  0.4899310000000 1.0
C      1  0.4585190000000  0.5122960000000  0.4252820000000 1.0
C      1  0.4557150000000  0.4255770000000  0.4656770000000 1.0
C      1  0.4672460000000  0.4385910000000  0.5539160000000 1.0
C      1  0.4182660000000  0.4762140000000  0.4954560000000 1.0
C      1  0.4155790000000  0.4869860000000  0.5215380000000 1.0
C      1  0.4129780000000  0.5155460000000  0.5168940000000 1.0
C      1  0.4156820000000  0.5202320000000  0.4888230000000 1.0
C      1  0.4140700000000  0.4952300000000  0.4758690000000 1.0
C      1  0.5022170000000  0.5796040000000  0.5050200000000 1.0
C      1  0.5089510000000  0.5319420000000  0.4248840000000 1.0
C      1  0.5042250000000  0.4429160000000  0.4493730000000 1.0
C      1  0.4915510000000  0.4298000000000  0.5392130000000 1.0
C      1  0.5057100000000  0.5164220000000  0.5764760000000 1.0
C      1  0.4885150000000  0.4955670000000  0.5656470000000 1.0
C      1  0.4780690000000  0.5634500000000  0.5095070000000 1.0
C      1  0.4940970000000  0.5435960000000  0.4464220000000 1.0
C      1  0.4872850000000  0.4674290000000  0.4538240000000 1.0
C      1  0.4871010000000  0.4428160000000  0.5135730000000 1.0
C      1  0.4363250000000  0.5584230000000  0.5253440000000 1.0
C      1  0.4439090000000  0.5401580000000  0.4518240000000 1.0
C      1  0.4400640000000  0.4681650000000  0.4423980000000 1.0
C      1  0.4447210000000  0.4401310000000  0.5114210000000 1.0
C      1  0.4382990000000  0.4932220000000  0.5639500000000 1.0
C      1  0.5342280000000  0.5419720000000  0.4361950000000 1.0
C      1  0.5323650000000  0.4482040000000  0.4399660000000 1.0
C      1  0.5203210000000  0.4235380000000  0.5382300000000 1.0
C      1  0.5327690000000  0.5050750000000  0.5762170000000 1.0
C      1  0.5257600000000  0.5794990000000  0.5200950000000 1.0
C      1  0.5804380000000  0.5301270000000  0.5354390000000 1.0
C      1  0.5805050000000  0.5449340000000  0.4805440000000 1.0
C      1  0.5820880000000  0.4966370000000  0.4487700000000 1.0
C      1  0.5799040000000  0.4496340000000  0.4853790000000 1.0
C      1  0.5809110000000  0.4727780000000  0.5362050000000 1.0
C      1  0.5190200000000  0.4759620000000  0.4960930000000 1.0
C      1  0.5055950000000  0.4866680000000  0.5203030000000 1.0
C      1  0.5020780000000  0.5158960000000  0.5188520000000 1.0
C      1  0.5169100000000  0.5251390000000  0.4942340000000 1.0
C      1  0.5078890000000  0.5007540000000  0.4779740000000 1.0
C      1  0.5518490000000  0.5026890000000  0.5233990000000 1.0
C      1  0.5475240000000  0.5239310000000  0.5015560000000 1.0
C      1  0.5562390000000  0.5139760000000  0.4732250000000 1.0
C      1  0.5606830000000  0.4878140000000  0.4810340000000 1.0
C      1  0.5489500000000  0.4781960000000  0.5050780000000 1.0
END
