TITL C-2441156-4686-572 0.000893048535261159 125000 -4508.13523346698 0 0 30 (D3d) n - 1
REM
REM in /home/bkarasulu/work/CARBON/AIRSS/Generating-Clusters/ReaxFF-fromJPCA2015/Units_Real/with-SteepDescent/Higher-Symm
REM
REM
REM
REM
REM
REM ./C.cell (1df0a924f5614ab8850e4351716899ee)
REM
REM compiler GCC version 9.2.1 20190827 (Red Hat 9.2.1-1)
REM options -cpp -mtune=generic -march=x86-64 -g -O0 -fpre-include=/usr/include/finclude/math-vector-fortran.h
REM seed 347794282 -969335055 -1282685305 -947888626 552064006 232433484 2099544717 477569334 -255597009 -1705998557 588291251 704532586 769708409 1133932067 -1313093855 -647236873 1074615253 628202678 585900169 295654436 -1295261368 281218310 -2115633838 700307182 -126535700 626107244 1897345114 -333877517 -694708462 -498196937 3093137 -1172473868 896854419
REM
CELL 1.54180   50.00000   50.00000   50.00000   90.00000   90.00000   90.00000
LATT -1
SFAC C  
C      1  0.5150440000000  0.4629740000000  0.5358070000000 1.0
C      1  0.5234260000000  0.4629630000000  0.4690400000000 1.0
C      1  0.4618200000000  0.4629200000000  0.4952720000000 1.0
C      1  0.5150440000000  0.5370260000000  0.4641930000000 1.0
C      1  0.5234260000000  0.5370370000000  0.5309600000000 1.0
C      1  0.4618200000000  0.5370800000000  0.5047280000000 1.0
C      1  0.4849560000000  0.5370260000000  0.4641930000000 1.0
C      1  0.4765740000000  0.5370370000000  0.5309600000000 1.0
C      1  0.5381800000000  0.5370800000000  0.5047280000000 1.0
C      1  0.4849560000000  0.4629740000000  0.5358070000000 1.0
C      1  0.4765740000000  0.4629630000000  0.4690400000000 1.0
C      1  0.5381800000000  0.4629200000000  0.4952720000000 1.0
C      1  0.5147190000000  0.4884140000000  0.4568160000000 1.0
C      1  0.4552890000000  0.4883650000000  0.5087610000000 1.0
C      1  0.5300410000000  0.4884090000000  0.5343630000000 1.0
C      1  0.5147190000000  0.5115860000000  0.5431840000000 1.0
C      1  0.4552890000000  0.5116350000000  0.4912390000000 1.0
C      1  0.5300410000000  0.5115910000000  0.4656370000000 1.0
C      1  0.4852810000000  0.5115860000000  0.5431840000000 1.0
C      1  0.5447110000000  0.5116350000000  0.4912390000000 1.0
C      1  0.4699590000000  0.5115910000000  0.4656370000000 1.0
C      1  0.4852810000000  0.4884140000000  0.4568160000000 1.0
C      1  0.5447110000000  0.4883650000000  0.5087610000000 1.0
C      1  0.4699590000000  0.4884090000000  0.5343630000000 1.0
C      1  0.5000000000000  0.4485620000000  0.4779550000000 1.0
C      1  0.4815720000000  0.4484630000000  0.5109710000000 1.0
C      1  0.5184280000000  0.4484630000000  0.5109710000000 1.0
C      1  0.5000000000000  0.5514380000000  0.5220450000000 1.0
C      1  0.4815720000000  0.5515370000000  0.4890290000000 1.0
C      1  0.5184280000000  0.5515370000000  0.4890290000000 1.0
END
