TITL C-2441154-10-674 0.0271649999714662 125000 -4237.31882795489 0 0 40 (C2h) n - 1
REM
REM in /home/bkarasulu/work/CARBON/AIRSS/Generating-Clusters/ReaxFF-fromJPCA2015/Units_Real/with-SteepDescent/Higher-Symm
REM
REM
REM
REM
REM
REM ./C.cell (1df0a924f5614ab8850e4351716899ee)
REM
REM compiler GCC version 9.2.1 20190827 (Red Hat 9.2.1-1)
REM options -cpp -mtune=generic -march=x86-64 -g -O0 -fpre-include=/usr/include/finclude/math-vector-fortran.h
REM seed -706150430 33198834 488345931 -1659773868 -63333228 2011034579 832374371 -1965640865 1607792196 570963140 -2086212736 -468498341 592207885 1207974667 1269614896 974146601 1938452151 -1189202044 -1140844894 31326247 -1912762331 687005654 -1811300312 189576133 -929414291 -1743397697 1234533940 1068214010 -534840839 -1111435683 -497335997 1226837541 1264291930
REM
CELL 1.54180   50.00000   50.00000   50.00000   90.00000   90.00000   90.00000
LATT -1
SFAC C  
C      1  0.4693100000000  0.5541710000000  0.4864350000000 1.0
C      1  0.5306910000000  0.4458290000000  0.4864350000000 1.0
C      1  0.4693090000000  0.5541710000000  0.5135660000000 1.0
C      1  0.5306910000000  0.4458290000000  0.5135640000000 1.0
C      1  0.5305450000000  0.4656980000000  0.5261620000000 1.0
C      1  0.4694570000000  0.5343030000000  0.5261640000000 1.0
C      1  0.5305430000000  0.4656980000000  0.4738370000000 1.0
C      1  0.4694540000000  0.5343040000000  0.4738370000000 1.0
C      1  0.5330390000000  0.4870850000000  0.5614780000000 1.0
C      1  0.4669630000000  0.5129160000000  0.5614760000000 1.0
C      1  0.5330380000000  0.4870850000000  0.4385230000000 1.0
C      1  0.4669620000000  0.5129150000000  0.4385230000000 1.0
C      1  0.5153810000000  0.5301400000000  0.4508630000000 1.0
C      1  0.4846190000000  0.4698600000000  0.4508630000000 1.0
C      1  0.5153810000000  0.5301390000000  0.5491370000000 1.0
C      1  0.4846180000000  0.4698600000000  0.5491370000000 1.0
C      1  0.4407880000000  0.5280900000000  0.4692790000000 1.0
C      1  0.5592100000000  0.4719100000000  0.4692790000000 1.0
C      1  0.4407890000000  0.5280900000000  0.5307210000000 1.0
C      1  0.5592110000000  0.4719110000000  0.5307220000000 1.0
C      1  0.4781680000000  0.4531700000000  0.4743870000000 1.0
C      1  0.5218310000000  0.5468300000000  0.4743860000000 1.0
C      1  0.4781680000000  0.4531700000000  0.5256130000000 1.0
C      1  0.5218320000000  0.5468300000000  0.5256140000000 1.0
C      1  0.5045120000000  0.5247560000000  0.4880830000000 1.0
C      1  0.4954900000000  0.4752440000000  0.4880810000000 1.0
C      1  0.5045110000000  0.5247570000000  0.5119170000000 1.0
C      1  0.4954890000000  0.4752440000000  0.5119190000000 1.0
C      1  0.5175820000000  0.5070760000000  0.4713830000000 1.0
C      1  0.4824170000000  0.4929220000000  0.4713830000000 1.0
C      1  0.5175820000000  0.5070760000000  0.5286170000000 1.0
C      1  0.4824170000000  0.4929220000000  0.5286170000000 1.0
C      1  0.5153660000000  0.4646330000000  0.4528250000000 1.0
C      1  0.4846370000000  0.5353660000000  0.4528240000000 1.0
C      1  0.5153650000000  0.4646330000000  0.5471770000000 1.0
C      1  0.4846360000000  0.5353650000000  0.5471750000000 1.0
C      1  0.4552730000000  0.4994020000000  0.5384360000000 1.0
C      1  0.5447260000000  0.5005990000000  0.5384370000000 1.0
C      1  0.4552730000000  0.4994020000000  0.4615640000000 1.0
C      1  0.5447260000000  0.5005990000000  0.4615630000000 1.0
END
