TITL C-2441160-1326-499 0.129009863684304 125000 -22232.5953906098 0 0 172 (C1) n - 1
REM
REM in /home/bkarasulu/work/CARBON/AIRSS/Generating-Clusters/ReaxFF-fromJPCA2015/Units_Real/with-SteepDescent/Higher-Symm
REM
REM
REM
REM
REM
REM ./C.cell (1df0a924f5614ab8850e4351716899ee)
REM
REM compiler GCC version 9.2.1 20190827 (Red Hat 9.2.1-1)
REM options -cpp -mtune=generic -march=x86-64 -g -O0 -fpre-include=/usr/include/finclude/math-vector-fortran.h
REM seed -2006460837 1090802964 -1262833366 1649907269 829538196 1641704470 250650363 -1344323759 -410281814 -904437421 -2041651908 -1275498440 -271530570 881477939 2032655958 276909023 -1627587348 -2007505150 -925686127 660618882 1574207006 -801231362 1372970402 582683630 159514101 -72861843 2138345572 432802740 -2097296507 853841133 293719714 -945956330 1728387366
REM
CELL 1.54180   50.00000   50.00000   50.00000   90.00000   90.00000   90.00000
LATT -1
SFAC C  
C      1  0.4956640000000  0.4034270000000  0.4666720000000 1.0
C      1  0.5906120000000  0.4679120000000  0.4681970000000 1.0
C      1  0.5588290000000  0.5757170000000  0.4654490000000 1.0
C      1  0.4462840000000  0.5798140000000  0.4662270000000 1.0
C      1  0.4071370000000  0.4728180000000  0.4657290000000 1.0
C      1  0.5495030000000  0.5754230000000  0.5495790000000 1.0
C      1  0.4351700000000  0.5668370000000  0.5589120000000 1.0
C      1  0.4076230000000  0.4645000000000  0.5503890000000 1.0
C      1  0.5030120000000  0.4052980000000  0.5475520000000 1.0
C      1  0.5872010000000  0.4820550000000  0.5495790000000 1.0
C      1  0.5344160000000  0.5956000000000  0.5362120000000 1.0
C      1  0.4143090000000  0.5610780000000  0.5386610000000 1.0
C      1  0.4164970000000  0.4391370000000  0.5372080000000 1.0
C      1  0.5293510000000  0.4043130000000  0.5331210000000 1.0
C      1  0.6015280000000  0.5022440000000  0.5382970000000 1.0
C      1  0.5894270000000  0.5273240000000  0.5515310000000 1.0
C      1  0.5087420000000  0.5959030000000  0.5498880000000 1.0
C      1  0.4120790000000  0.5339600000000  0.5497670000000 1.0
C      1  0.4397900000000  0.4272340000000  0.5512480000000 1.0
C      1  0.5500920000000  0.4187270000000  0.5489800000000 1.0
C      1  0.4194690000000  0.5638730000000  0.5104270000000 1.0
C      1  0.4193710000000  0.4409190000000  0.5067390000000 1.0
C      1  0.5335740000000  0.4115310000000  0.5040800000000 1.0
C      1  0.5987120000000  0.5010600000000  0.5086790000000 1.0
C      1  0.5287590000000  0.5919180000000  0.5068630000000 1.0
C      1  0.4074420000000  0.4683430000000  0.4971920000000 1.0
C      1  0.5013500000000  0.4041140000000  0.4962000000000 1.0
C      1  0.5918310000000  0.4720080000000  0.4979890000000 1.0
C      1  0.5540070000000  0.5780460000000  0.4958780000000 1.0
C      1  0.4435490000000  0.5784600000000  0.4979460000000 1.0
C      1  0.4946860000000  0.4753140000000  0.3927580000000 1.0
C      1  0.5201630000000  0.4895860000000  0.3924620000000 1.0
C      1  0.5171720000000  0.5177620000000  0.3941480000000 1.0
C      1  0.4853820000000  0.5202630000000  0.3958760000000 1.0
C      1  0.4716590000000  0.4933300000000  0.3882420000000 1.0
C      1  0.5859240000000  0.5127970000000  0.4714340000000 1.0
C      1  0.5166210000000  0.5859350000000  0.4686430000000 1.0
C      1  0.4279180000000  0.5362640000000  0.4714470000000 1.0
C      1  0.4392470000000  0.4411820000000  0.4703040000000 1.0
C      1  0.5356210000000  0.4236910000000  0.4697190000000 1.0
C      1  0.5003620000000  0.5243260000000  0.4344560000000 1.0
C      1  0.4819230000000  0.5082020000000  0.4235590000000 1.0
C      1  0.4727220000000  0.4835270000000  0.4326240000000 1.0
C      1  0.5234740000000  0.4835300000000  0.4312910000000 1.0
C      1  0.5214880000000  0.5095580000000  0.4369870000000 1.0
C      1  0.4483740000000  0.4688290000000  0.5249300000000 1.0
C      1  0.5168770000000  0.4412530000000  0.5261090000000 1.0
C      1  0.5601370000000  0.4979490000000  0.5199980000000 1.0
C      1  0.5198580000000  0.5543890000000  0.5237930000000 1.0
C      1  0.4520370000000  0.5420590000000  0.5240390000000 1.0
C      1  0.5341310000000  0.4672470000000  0.5535650000000 1.0
C      1  0.5400410000000  0.5190540000000  0.5503520000000 1.0
C      1  0.4838920000000  0.5629190000000  0.5479510000000 1.0
C      1  0.4369170000000  0.4969240000000  0.5409180000000 1.0
C      1  0.4758960000000  0.4467010000000  0.5474850000000 1.0
C      1  0.4377920000000  0.5174500000000  0.4176670000000 1.0
C      1  0.4654180000000  0.4453160000000  0.4188910000000 1.0
C      1  0.5395070000000  0.4471500000000  0.4189200000000 1.0
C      1  0.5605390000000  0.5221260000000  0.4202000000000 1.0
C      1  0.4965370000000  0.5649660000000  0.4188020000000 1.0
C      1  0.4597900000000  0.4221690000000  0.5290750000000 1.0
C      1  0.5677260000000  0.4389800000000  0.5356920000000 1.0
C      1  0.5769720000000  0.5437510000000  0.5309620000000 1.0
C      1  0.4862830000000  0.5880440000000  0.5301840000000 1.0
C      1  0.4149230000000  0.5129920000000  0.5277570000000 1.0
C      1  0.4239660000000  0.5080310000000  0.4410770000000 1.0
C      1  0.4649930000000  0.4273830000000  0.4411780000000 1.0
C      1  0.5576870000000  0.4458530000000  0.4410860000000 1.0
C      1  0.5703940000000  0.5377560000000  0.4424830000000 1.0
C      1  0.4864190000000  0.5774070000000  0.4430080000000 1.0
C      1  0.5623380000000  0.5567550000000  0.5623960000000 1.0
C      1  0.4624070000000  0.5700660000000  0.5663690000000 1.0
C      1  0.4192590000000  0.4877570000000  0.5636900000000 1.0
C      1  0.4859130000000  0.4221720000000  0.5639170000000 1.0
C      1  0.5730610000000  0.4630940000000  0.5605840000000 1.0
C      1  0.5173070000000  0.4700520000000  0.5301560000000 1.0
C      1  0.5341020000000  0.5077550000000  0.5253340000000 1.0
C      1  0.4994930000000  0.5364900000000  0.5342560000000 1.0
C      1  0.4608290000000  0.5148620000000  0.5342290000000 1.0
C      1  0.4775450000000  0.4709480000000  0.5301500000000 1.0
C      1  0.4285980000000  0.4615280000000  0.4520510000000 1.0
C      1  0.5135700000000  0.4188700000000  0.4504760000000 1.0
C      1  0.5815030000000  0.4896200000000  0.4510620000000 1.0
C      1  0.5357920000000  0.5740720000000  0.4488230000000 1.0
C      1  0.4417800000000  0.5562810000000  0.4516930000000 1.0
C      1  0.5949060000000  0.5607780000000  0.4907560000000 1.0
C      1  0.4727260000000  0.6095700000000  0.4900160000000 1.0
C      1  0.3895730000000  0.5067150000000  0.4906490000000 1.0
C      1  0.4580660000000  0.3960530000000  0.4918440000000 1.0
C      1  0.5829490000000  0.4242120000000  0.4915110000000 1.0
C      1  0.5878870000000  0.5672980000000  0.4645810000000 1.0
C      1  0.4642400000000  0.6041050000000  0.4645890000000 1.0
C      1  0.3905640000000  0.4979430000000  0.4644760000000 1.0
C      1  0.4666810000000  0.3940040000000  0.4660820000000 1.0
C      1  0.5890640000000  0.4377970000000  0.4676980000000 1.0
C      1  0.5360440000000  0.4400050000000  0.5639660000000 1.0
C      1  0.5651650000000  0.5160180000000  0.5634160000000 1.0
C      1  0.5066690000000  0.5726700000000  0.5657030000000 1.0
C      1  0.4336030000000  0.5402660000000  0.5683500000000 1.0
C      1  0.4513580000000  0.4496830000000  0.5641590000000 1.0
C      1  0.4920490000000  0.4496700000000  0.4092800000000 1.0
C      1  0.5428540000000  0.4768170000000  0.4111920000000 1.0
C      1  0.5350840000000  0.5354230000000  0.4095280000000 1.0
C      1  0.4750570000000  0.5469670000000  0.4097910000000 1.0
C      1  0.4466940000000  0.4931500000000  0.4029800000000 1.0
C      1  0.5290980000000  0.5086030000000  0.4954500000000 1.0
C      1  0.4975190000000  0.5289320000000  0.5040160000000 1.0
C      1  0.4629900000000  0.5096710000000  0.5054560000000 1.0
C      1  0.4823460000000  0.4756920000000  0.5022150000000 1.0
C      1  0.5217270000000  0.4696250000000  0.5002250000000 1.0
C      1  0.4541050000000  0.4886190000000  0.4870510000000 1.0
C      1  0.4989480000000  0.4563180000000  0.4910920000000 1.0
C      1  0.5436160000000  0.4787300000000  0.4845580000000 1.0
C      1  0.5227530000000  0.5374660000000  0.4867280000000 1.0
C      1  0.4729830000000  0.5319210000000  0.4927370000000 1.0
C      1  0.4449430000000  0.4124390000000  0.4578880000000 1.0
C      1  0.5642490000000  0.4228640000000  0.4581700000000 1.0
C      1  0.5953210000000  0.5385310000000  0.4580080000000 1.0
C      1  0.4930230000000  0.6024190000000  0.4566550000000 1.0
C      1  0.4040450000000  0.5229300000000  0.4570610000000 1.0
C      1  0.4940210000000  0.4351660000000  0.5888580000000 1.0
C      1  0.5601420000000  0.4739050000000  0.5866820000000 1.0
C      1  0.5464900000000  0.5494800000000  0.5867860000000 1.0
C      1  0.4685430000000  0.5573250000000  0.5916930000000 1.0
C      1  0.4344500000000  0.4872630000000  0.5890850000000 1.0
C      1  0.4902520000000  0.5391810000000  0.4529280000000 1.0
C      1  0.4739960000000  0.5202980000000  0.4649460000000 1.0
C      1  0.4854230000000  0.4706040000000  0.4556120000000 1.0
C      1  0.5141090000000  0.4670900000000  0.4514420000000 1.0
C      1  0.5396660000000  0.5109170000000  0.4536380000000 1.0
C      1  0.3958400000000  0.4943800000000  0.5138420000000 1.0
C      1  0.4741200000000  0.3985560000000  0.5140060000000 1.0
C      1  0.5870590000000  0.4410260000000  0.5129150000000 1.0
C      1  0.5801380000000  0.5672350000000  0.5131480000000 1.0
C      1  0.4619360000000  0.5995350000000  0.5132250000000 1.0
C      1  0.4767010000000  0.5025300000000  0.5678240000000 1.0
C      1  0.4912800000000  0.4801190000000  0.5754050000000 1.0
C      1  0.5196300000000  0.4821880000000  0.5742670000000 1.0
C      1  0.5223360000000  0.5128110000000  0.5724770000000 1.0
C      1  0.4954450000000  0.5235900000000  0.5666540000000 1.0
C      1  0.4439290000000  0.5117270000000  0.4627780000000 1.0
C      1  0.4671650000000  0.4465720000000  0.4623710000000 1.0
C      1  0.5373410000000  0.4546150000000  0.4634900000000 1.0
C      1  0.5584640000000  0.5233710000000  0.4651790000000 1.0
C      1  0.4981770000000  0.5625790000000  0.4663920000000 1.0
C      1  0.4277330000000  0.5364800000000  0.5061190000000 1.0
C      1  0.4474870000000  0.4418860000000  0.5111640000000 1.0
C      1  0.5428240000000  0.4381440000000  0.5137140000000 1.0
C      1  0.5763100000000  0.5194040000000  0.5082530000000 1.0
C      1  0.5048310000000  0.5753670000000  0.5097640000000 1.0
C      1  0.4508380000000  0.4632620000000  0.5904290000000 1.0
C      1  0.5228770000000  0.4396770000000  0.5904480000000 1.0
C      1  0.5615420000000  0.5030940000000  0.5900000000000 1.0
C      1  0.5178750000000  0.5574050000000  0.5882900000000 1.0
C      1  0.4512900000000  0.5336990000000  0.5912910000000 1.0
C      1  0.5341010000000  0.4659350000000  0.5959000000000 1.0
C      1  0.5403240000000  0.5227330000000  0.5958120000000 1.0
C      1  0.4927980000000  0.5416790000000  0.5913100000000 1.0
C      1  0.4573440000000  0.5049140000000  0.5904170000000 1.0
C      1  0.4802750000000  0.4608580000000  0.5929250000000 1.0
C      1  0.4670580000000  0.5590980000000  0.5061680000000 1.0
C      1  0.4337640000000  0.4793450000000  0.5033550000000 1.0
C      1  0.4966720000000  0.4320430000000  0.5068050000000 1.0
C      1  0.5623910000000  0.4727810000000  0.5064920000000 1.0
C      1  0.5420320000000  0.5504740000000  0.5041670000000 1.0
C      1  0.4509720000000  0.5435910000000  0.4248240000000 1.0
C      1  0.4475740000000  0.4692860000000  0.4246820000000 1.0
C      1  0.5135910000000  0.4354240000000  0.4240850000000 1.0
C      1  0.5655200000000  0.4944820000000  0.4264110000000 1.0
C      1  0.5252540000000  0.5589910000000  0.4236750000000 1.0
C      1  0.4934470000000  0.4970330000000  0.4684060000000 1.0
C      1  0.5016940000000  0.5022390000000  0.4953730000000 1.0
END
