TITL C-2441164-471-293 0.099966787352337 125000 -19730.623342269 0 0 148 (C1) n - 1
REM
REM in /home/bkarasulu/work/CARBON/AIRSS/Generating-Clusters/ReaxFF-fromJPCA2015/Units_Real/with-SteepDescent/Higher-Symm
REM
REM
REM
REM
REM
REM ./C.cell (1df0a924f5614ab8850e4351716899ee)
REM
REM compiler GCC version 9.2.1 20190827 (Red Hat 9.2.1-1)
REM options -cpp -mtune=generic -march=x86-64 -g -O0 -fpre-include=/usr/include/finclude/math-vector-fortran.h
REM seed -1843425127 2027707298 246449600 1553765219 100254090 865179545 511133514 -2097640878 -1101318465 2021173969 -1322989737 196292983 574038305 -947021483 39272401 1885853990 440189922 1196729168 2051337158 -122630822 -1433941049 -1661454446 798753070 -1255744598 -895610253 323523069 1883177719 315545307 -190279270 -1263041176 1783635231 -1730973200 1307009131
REM
CELL 1.54180   50.00000   50.00000   50.00000   90.00000   90.00000   90.00000
LATT -1
SFAC C  
C      1  0.5992220000000  0.4720440000000  0.4860620000000 1.0
C      1  0.5970680000000  0.4932770000000  0.4661470000000 1.0
C      1  0.5991050000000  0.5214360000000  0.4750660000000 1.0
C      1  0.5968980000000  0.5343850000000  0.5013410000000 1.0
C      1  0.5964510000000  0.5213990000000  0.5280010000000 1.0
C      1  0.5966760000000  0.4931550000000  0.5339040000000 1.0
C      1  0.5986770000000  0.4696350000000  0.5158970000000 1.0
C      1  0.4894500000000  0.4626750000000  0.4162350000000 1.0
C      1  0.4905120000000  0.5413290000000  0.4184170000000 1.0
C      1  0.4847750000000  0.5821660000000  0.4803740000000 1.0
C      1  0.4931430000000  0.5730830000000  0.5600330000000 1.0
C      1  0.4906370000000  0.4981320000000  0.5920570000000 1.0
C      1  0.4857090000000  0.4322920000000  0.5512270000000 1.0
C      1  0.4905110000000  0.4090100000000  0.4789550000000 1.0
C      1  0.4970990000000  0.5590500000000  0.5338390000000 1.0
C      1  0.4952350000000  0.5125380000000  0.5680360000000 1.0
C      1  0.4901590000000  0.4578870000000  0.5477780000000 1.0
C      1  0.4968620000000  0.4288590000000  0.4993460000000 1.0
C      1  0.4979920000000  0.4597240000000  0.4441910000000 1.0
C      1  0.4955780000000  0.5162980000000  0.4303680000000 1.0
C      1  0.4764780000000  0.5550810000000  0.4732540000000 1.0
C      1  0.4420760000000  0.4400580000000  0.4489690000000 1.0
C      1  0.4419800000000  0.5035550000000  0.4202120000000 1.0
C      1  0.4493830000000  0.5611440000000  0.4577820000000 1.0
C      1  0.4460870000000  0.5755860000000  0.5213200000000 1.0
C      1  0.4426000000000  0.5312490000000  0.5732820000000 1.0
C      1  0.4434540000000  0.4629100000000  0.5697680000000 1.0
C      1  0.4436850000000  0.4230770000000  0.5149330000000 1.0
C      1  0.4543260000000  0.4831840000000  0.4707200000000 1.0
C      1  0.4576340000000  0.5118110000000  0.4706010000000 1.0
C      1  0.4442390000000  0.5261740000000  0.4924930000000 1.0
C      1  0.4435780000000  0.5208590000000  0.5192640000000 1.0
C      1  0.4544330000000  0.5010110000000  0.5328480000000 1.0
C      1  0.4538750000000  0.4766520000000  0.5195610000000 1.0
C      1  0.4430820000000  0.4730430000000  0.4937030000000 1.0
C      1  0.5702740000000  0.5261420000000  0.4695940000000 1.0
C      1  0.5676270000000  0.5355530000000  0.4979070000000 1.0
C      1  0.5684820000000  0.5244040000000  0.5356680000000 1.0
C      1  0.5678660000000  0.4940000000000  0.5404710000000 1.0
C      1  0.5720720000000  0.4650450000000  0.5150260000000 1.0
C      1  0.5706990000000  0.4644740000000  0.4850490000000 1.0
C      1  0.5676240000000  0.4955900000000  0.4644210000000 1.0
C      1  0.5225970000000  0.5992210000000  0.5150210000000 1.0
C      1  0.5183400000000  0.5505170000000  0.5891820000000 1.0
C      1  0.5187240000000  0.4594450000000  0.5987800000000 1.0
C      1  0.5216100000000  0.4057730000000  0.5330340000000 1.0
C      1  0.5159380000000  0.4145410000000  0.4377740000000 1.0
C      1  0.5178860000000  0.4941030000000  0.3964010000000 1.0
C      1  0.5208350000000  0.5787170000000  0.4285790000000 1.0
C      1  0.5501470000000  0.4330820000000  0.5217880000000 1.0
C      1  0.5460580000000  0.4459100000000  0.4520450000000 1.0
C      1  0.5399780000000  0.4939220000000  0.4347210000000 1.0
C      1  0.5400510000000  0.5552810000000  0.4640260000000 1.0
C      1  0.5441340000000  0.5633420000000  0.5153740000000 1.0
C      1  0.5353320000000  0.5323950000000  0.5571590000000 1.0
C      1  0.5525990000000  0.4590690000000  0.5596940000000 1.0
C      1  0.5184320000000  0.4005240000000  0.4662240000000 1.0
C      1  0.5129600000000  0.4655240000000  0.3989970000000 1.0
C      1  0.5185640000000  0.5537690000000  0.4086980000000 1.0
C      1  0.5048800000000  0.5977930000000  0.4656760000000 1.0
C      1  0.5207200000000  0.5726730000000  0.5707240000000 1.0
C      1  0.5188660000000  0.4905940000000  0.6057230000000 1.0
C      1  0.5018280000000  0.4271040000000  0.5722850000000 1.0
C      1  0.4808090000000  0.5113360000000  0.5382900000000 1.0
C      1  0.4815700000000  0.4731890000000  0.5248730000000 1.0
C      1  0.4898330000000  0.4672550000000  0.4962970000000 1.0
C      1  0.4826150000000  0.4767700000000  0.4687990000000 1.0
C      1  0.4853840000000  0.5067580000000  0.4612350000000 1.0
C      1  0.4833890000000  0.5371380000000  0.4948960000000 1.0
C      1  0.4801730000000  0.5360700000000  0.5236070000000 1.0
C      1  0.4656490000000  0.4638720000000  0.5885480000000 1.0
C      1  0.4661820000000  0.4083470000000  0.5268630000000 1.0
C      1  0.4651650000000  0.4221770000000  0.4470260000000 1.0
C      1  0.4638110000000  0.4936350000000  0.4039410000000 1.0
C      1  0.4681610000000  0.5731880000000  0.4360070000000 1.0
C      1  0.4684540000000  0.5943630000000  0.5164180000000 1.0
C      1  0.4655770000000  0.5467620000000  0.5827140000000 1.0
C      1  0.5226390000000  0.5184450000000  0.4406350000000 1.0
C      1  0.5293640000000  0.5637610000000  0.4889330000000 1.0
C      1  0.5242620000000  0.5446330000000  0.5320650000000 1.0
C      1  0.5229790000000  0.5054650000000  0.5605890000000 1.0
C      1  0.5327920000000  0.4494610000000  0.5386300000000 1.0
C      1  0.5221830000000  0.4370300000000  0.4899360000000 1.0
C      1  0.5291850000000  0.4664050000000  0.4403850000000 1.0
C      1  0.4949220000000  0.4065830000000  0.5200770000000 1.0
C      1  0.4922770000000  0.4302850000000  0.4419070000000 1.0
C      1  0.4914490000000  0.5035300000000  0.4042820000000 1.0
C      1  0.4953870000000  0.5848650000000  0.4404710000000 1.0
C      1  0.4963030000000  0.5904420000000  0.5235810000000 1.0
C      1  0.4927510000000  0.5373590000000  0.5850340000000 1.0
C      1  0.4938570000000  0.4547640000000  0.5819300000000 1.0
C      1  0.5392510000000  0.4292860000000  0.4290770000000 1.0
C      1  0.5422380000000  0.5051300000000  0.4087300000000 1.0
C      1  0.5455350000000  0.5734860000000  0.4430290000000 1.0
C      1  0.5461300000000  0.5872070000000  0.5301280000000 1.0
C      1  0.5417930000000  0.5336440000000  0.5862780000000 1.0
C      1  0.5398200000000  0.4516420000000  0.5827530000000 1.0
C      1  0.5458330000000  0.4086040000000  0.5154910000000 1.0
C      1  0.4270890000000  0.4857770000000  0.4388630000000 1.0
C      1  0.4279120000000  0.5377910000000  0.4501950000000 1.0
C      1  0.4288960000000  0.5644670000000  0.5000130000000 1.0
C      1  0.4273950000000  0.5406260000000  0.5506910000000 1.0
C      1  0.4281710000000  0.4862910000000  0.5615270000000 1.0
C      1  0.4255840000000  0.4434750000000  0.5282670000000 1.0
C      1  0.4265160000000  0.4420880000000  0.4730260000000 1.0
C      1  0.4650990000000  0.5695410000000  0.5667050000000 1.0
C      1  0.4632270000000  0.4911760000000  0.5958730000000 1.0
C      1  0.4608600000000  0.4203610000000  0.5518780000000 1.0
C      1  0.4631970000000  0.4087190000000  0.4715690000000 1.0
C      1  0.4617210000000  0.4662310000000  0.4108930000000 1.0
C      1  0.4638380000000  0.5509340000000  0.4184260000000 1.0
C      1  0.4611210000000  0.5967600000000  0.4888090000000 1.0
C      1  0.5416540000000  0.5033810000000  0.5848740000000 1.0
C      1  0.5257190000000  0.4234620000000  0.5557630000000 1.0
C      1  0.5424510000000  0.4175330000000  0.4849090000000 1.0
C      1  0.5349680000000  0.4535300000000  0.4134460000000 1.0
C      1  0.5407400000000  0.5324810000000  0.4207740000000 1.0
C      1  0.5248990000000  0.5932730000000  0.4866130000000 1.0
C      1  0.5457130000000  0.5722690000000  0.5551180000000 1.0
C      1  0.5212970000000  0.4964460000000  0.5321370000000 1.0
C      1  0.5250030000000  0.4709080000000  0.5221630000000 1.0
C      1  0.5185560000000  0.4648720000000  0.4949440000000 1.0
C      1  0.5301160000000  0.4901970000000  0.4788510000000 1.0
C      1  0.5141620000000  0.5146430000000  0.4688070000000 1.0
C      1  0.5119990000000  0.5337090000000  0.4905390000000 1.0
C      1  0.5216640000000  0.5209120000000  0.5149710000000 1.0
C      1  0.4428940000000  0.5648420000000  0.5478300000000 1.0
C      1  0.4417090000000  0.5036220000000  0.5797070000000 1.0
C      1  0.4393850000000  0.4402640000000  0.5531000000000 1.0
C      1  0.4412730000000  0.4218350000000  0.4865880000000 1.0
C      1  0.4408800000000  0.4616370000000  0.4307520000000 1.0
C      1  0.4411210000000  0.5316790000000  0.4260890000000 1.0
C      1  0.4397460000000  0.5797640000000  0.4791710000000 1.0
C      1  0.5691600000000  0.4942090000000  0.4361880000000 1.0
C      1  0.5594710000000  0.5462740000000  0.4440310000000 1.0
C      1  0.5685810000000  0.5613600000000  0.5094030000000 1.0
C      1  0.5612100000000  0.5466710000000  0.5543220000000 1.0
C      1  0.5601050000000  0.4854930000000  0.5680190000000 1.0
C      1  0.5730720000000  0.4388830000000  0.5206220000000 1.0
C      1  0.5616840000000  0.4383140000000  0.4740390000000 1.0
C      1  0.4139380000000  0.4917070000000  0.4640770000000 1.0
C      1  0.4124670000000  0.5206420000000  0.4676320000000 1.0
C      1  0.4170140000000  0.5366270000000  0.4947380000000 1.0
C      1  0.4160680000000  0.5225610000000  0.5287980000000 1.0
C      1  0.4141930000000  0.4915140000000  0.5361230000000 1.0
C      1  0.4121810000000  0.4681750000000  0.5190710000000 1.0
C      1  0.4152280000000  0.4680150000000  0.4856400000000 1.0
C      1  0.5458750000000  0.5008490000000  0.4993960000000 1.0
END
