TITL C-2441169-1362-578 -0.00058718672607835 125000 -4931.38622355729 0 0 33 (C1) n - 1
REM
REM in /home/bkarasulu/work/CARBON/AIRSS/Generating-Clusters/ReaxFF-fromJPCA2015/Units_Real/with-SteepDescent/Higher-Symm
REM
REM
REM
REM
REM
REM ./C.cell (1df0a924f5614ab8850e4351716899ee)
REM
REM compiler GCC version 9.2.1 20190827 (Red Hat 9.2.1-1)
REM options -cpp -mtune=generic -march=x86-64 -g -O0 -fpre-include=/usr/include/finclude/math-vector-fortran.h
REM seed 1458573420 337274084 1100663649 -218318869 -544757123 238726764 -1379172920 -601850240 -2038351279 -1359695776 791723455 1980266568 2026125329 -1295619509 -321056146 -1025684541 191122595 -602156347 1826418016 1521411410 1960378363 1654163393 1321517589 -276009717 2084854884 1743416933 -454520496 -261952877 447022267 -1124774102 451599331 -1943963468 -793039958
REM
CELL 1.54180   50.00000   50.00000   50.00000   90.00000   90.00000   90.00000
LATT -1
SFAC C  
C      1  0.5164830000000  0.4847910000000  0.5324960000000 1.0
C      1  0.4796560000000  0.5134090000000  0.4597800000000 1.0
C      1  0.5133850000000  0.5588460000000  0.4999310000000 1.0
C      1  0.4811490000000  0.4367270000000  0.5083520000000 1.0
C      1  0.4579800000000  0.5168120000000  0.5408540000000 1.0
C      1  0.5407750000000  0.4823540000000  0.4600680000000 1.0
C      1  0.4647370000000  0.5471270000000  0.5000880000000 1.0
C      1  0.5359210000000  0.4541320000000  0.5025040000000 1.0
C      1  0.5041050000000  0.4549390000000  0.4930870000000 1.0
C      1  0.4898760000000  0.5575800000000  0.5147500000000 1.0
C      1  0.5028290000000  0.5412760000000  0.5359340000000 1.0
C      1  0.4947400000000  0.4594960000000  0.4640660000000 1.0
C      1  0.4627850000000  0.4874340000000  0.5418190000000 1.0
C      1  0.5352390000000  0.5115060000000  0.4591540000000 1.0
C      1  0.5074370000000  0.5056320000000  0.4502850000000 1.0
C      1  0.4907110000000  0.4930960000000  0.5496570000000 1.0
C      1  0.5381890000000  0.5060180000000  0.5266840000000 1.0
C      1  0.4600760000000  0.4935740000000  0.4717050000000 1.0
C      1  0.4728960000000  0.5333730000000  0.4776220000000 1.0
C      1  0.5332640000000  0.4556410000000  0.5304630000000 1.0
C      1  0.4857670000000  0.5217900000000  0.5507070000000 1.0
C      1  0.5130600000000  0.4768800000000  0.4494850000000 1.0
C      1  0.5526250000000  0.5008710000000  0.5019350000000 1.0
C      1  0.4478890000000  0.4993540000000  0.4982240000000 1.0
C      1  0.5498380000000  0.4755690000000  0.4871330000000 1.0
C      1  0.4504260000000  0.5246050000000  0.5132310000000 1.0
C      1  0.5378860000000  0.5453680000000  0.5005910000000 1.0
C      1  0.4604780000000  0.4541570000000  0.4991950000000 1.0
C      1  0.4515840000000  0.4772870000000  0.5162760000000 1.0
C      1  0.5471540000000  0.5229690000000  0.4834860000000 1.0
C      1  0.5304670000000  0.5337360000000  0.5279810000000 1.0
C      1  0.4676900000000  0.4656560000000  0.4713090000000 1.0
C      1  0.5028680000000  0.4827550000000  0.5054830000000 1.0
END
