TITL C-2441161-5029-71 0.146836621388103 125000 -21064.6225950535 0 0 170 (C1) n - 1
REM
REM in /home/bkarasulu/work/CARBON/AIRSS/Generating-Clusters/ReaxFF-fromJPCA2015/Units_Real/with-SteepDescent/Higher-Symm
REM
REM
REM
REM
REM
REM ./C.cell (1df0a924f5614ab8850e4351716899ee)
REM
REM compiler GCC version 9.2.1 20190827 (Red Hat 9.2.1-1)
REM options -cpp -mtune=generic -march=x86-64 -g -O0 -fpre-include=/usr/include/finclude/math-vector-fortran.h
REM seed 1258096030 726095253 900615090 -603648651 600196871 -128257952 -171751695 -707252382 2019101565 143731085 975158405 -587705676 -1965745721 -1225906313 796185033 -959411246 -2002713778 53066691 1819814132 -1654234566 -50326884 -732923449 943243035 -558768743 -1469452336 1999951611 -597664612 227927491 835693828 -325418727 -1719455402 1566252016 1087608678
REM
CELL 1.54180   50.00000   50.00000   50.00000   90.00000   90.00000   90.00000
LATT -1
SFAC C  
C      1  0.5757310000000  0.5004600000000  0.5769110000000 1.0
C      1  0.5697340000000  0.4419620000000  0.5507230000000 1.0
C      1  0.5738370000000  0.4258640000000  0.4906210000000 1.0
C      1  0.5710860000000  0.4650780000000  0.4330850000000 1.0
C      1  0.5703240000000  0.5294190000000  0.4283760000000 1.0
C      1  0.5746530000000  0.5725990000000  0.4751450000000 1.0
C      1  0.5707200000000  0.5643290000000  0.5421380000000 1.0
C      1  0.4646950000000  0.5307200000000  0.5071360000000 1.0
C      1  0.4614900000000  0.5117960000000  0.5312070000000 1.0
C      1  0.4573450000000  0.4826160000000  0.5310260000000 1.0
C      1  0.4617010000000  0.4651570000000  0.5088480000000 1.0
C      1  0.4656090000000  0.4760190000000  0.4821090000000 1.0
C      1  0.4548910000000  0.5007040000000  0.4761080000000 1.0
C      1  0.4667960000000  0.5255920000000  0.4798380000000 1.0
C      1  0.5977280000000  0.5302120000000  0.4871850000000 1.0
C      1  0.5972350000000  0.5308040000000  0.5169500000000 1.0
C      1  0.5962340000000  0.5054190000000  0.5312810000000 1.0
C      1  0.5996650000000  0.4767010000000  0.5247220000000 1.0
C      1  0.6053470000000  0.4723760000000  0.4969570000000 1.0
C      1  0.5977960000000  0.4786980000000  0.4711700000000 1.0
C      1  0.5996530000000  0.5086220000000  0.4659200000000 1.0
C      1  0.4387010000000  0.4809470000000  0.5755790000000 1.0
C      1  0.4394220000000  0.4229080000000  0.5282340000000 1.0
C      1  0.4412610000000  0.4270460000000  0.4611920000000 1.0
C      1  0.4417420000000  0.4853500000000  0.4219460000000 1.0
C      1  0.4420100000000  0.5534540000000  0.4393500000000 1.0
C      1  0.4415630000000  0.5820260000000  0.5036690000000 1.0
C      1  0.4420000000000  0.5478320000000  0.5651230000000 1.0
C      1  0.4313440000000  0.4526900000000  0.4519410000000 1.0
C      1  0.4329140000000  0.5085290000000  0.4373110000000 1.0
C      1  0.4326070000000  0.5573880000000  0.4659420000000 1.0
C      1  0.4323980000000  0.5618850000000  0.5224860000000 1.0
C      1  0.4389990000000  0.5202820000000  0.5572980000000 1.0
C      1  0.4374060000000  0.4679130000000  0.5475010000000 1.0
C      1  0.4373220000000  0.4383540000000  0.5043300000000 1.0
C      1  0.4227720000000  0.5352120000000  0.4830680000000 1.0
C      1  0.4237450000000  0.5342560000000  0.5162010000000 1.0
C      1  0.4188480000000  0.5050670000000  0.5475180000000 1.0
C      1  0.4168780000000  0.4715460000000  0.5255450000000 1.0
C      1  0.4188150000000  0.4598630000000  0.4974050000000 1.0
C      1  0.4200000000000  0.4737130000000  0.4690440000000 1.0
C      1  0.4190140000000  0.5131770000000  0.4626590000000 1.0
C      1  0.5037520000000  0.4075930000000  0.4823770000000 1.0
C      1  0.5003490000000  0.4587950000000  0.4155480000000 1.0
C      1  0.4998420000000  0.5397610000000  0.4155780000000 1.0
C      1  0.5000000000000  0.5904180000000  0.4784570000000 1.0
C      1  0.5002680000000  0.5734210000000  0.5576850000000 1.0
C      1  0.4999370000000  0.5009140000000  0.5945320000000 1.0
C      1  0.5018490000000  0.4274890000000  0.5586040000000 1.0
C      1  0.5269880000000  0.5332900000000  0.5637230000000 1.0
C      1  0.5275560000000  0.4705320000000  0.5658830000000 1.0
C      1  0.5282980000000  0.4315670000000  0.5163020000000 1.0
C      1  0.5274900000000  0.4448080000000  0.4562700000000 1.0
C      1  0.5272740000000  0.4968600000000  0.4300830000000 1.0
C      1  0.5271760000000  0.5514290000000  0.4573610000000 1.0
C      1  0.5262290000000  0.5690470000000  0.5093080000000 1.0
C      1  0.4867780000000  0.4775250000000  0.3974610000000 1.0
C      1  0.4874210000000  0.5661550000000  0.4190030000000 1.0
C      1  0.4876750000000  0.6046140000000  0.5010280000000 1.0
C      1  0.4876600000000  0.5649010000000  0.5829720000000 1.0
C      1  0.4858920000000  0.4757780000000  0.6018830000000 1.0
C      1  0.4871250000000  0.4062420000000  0.5448060000000 1.0
C      1  0.4897210000000  0.4072700000000  0.4544650000000 1.0
C      1  0.5757310000000  0.4457600000000  0.4694050000000 1.0
C      1  0.5777860000000  0.4938160000000  0.4338450000000 1.0
C      1  0.5752680000000  0.5451660000000  0.4556610000000 1.0
C      1  0.5768070000000  0.5651760000000  0.5029140000000 1.0
C      1  0.5746040000000  0.5263280000000  0.5609620000000 1.0
C      1  0.5770010000000  0.4762430000000  0.5591200000000 1.0
C      1  0.5755560000000  0.4351100000000  0.5200030000000 1.0
C      1  0.4998870000000  0.4425540000000  0.5170880000000 1.0
C      1  0.4997350000000  0.4511340000000  0.4642750000000 1.0
C      1  0.4980680000000  0.4967330000000  0.4413260000000 1.0
C      1  0.4981030000000  0.5432570000000  0.4610670000000 1.0
C      1  0.4959720000000  0.5563960000000  0.5095660000000 1.0
C      1  0.4975270000000  0.5288280000000  0.5514670000000 1.0
C      1  0.4998010000000  0.4784240000000  0.5559980000000 1.0
C      1  0.5499330000000  0.4638800000000  0.4116010000000 1.0
C      1  0.5471140000000  0.5459660000000  0.4166660000000 1.0
C      1  0.5512290000000  0.5905610000000  0.4823390000000 1.0
C      1  0.5473580000000  0.5722840000000  0.5635170000000 1.0
C      1  0.5498290000000  0.4957780000000  0.5930890000000 1.0
C      1  0.5473350000000  0.4217820000000  0.5561160000000 1.0
C      1  0.5525020000000  0.4116960000000  0.4746950000000 1.0
C      1  0.5080970000000  0.5518870000000  0.5978020000000 1.0
C      1  0.5078160000000  0.4573830000000  0.6002730000000 1.0
C      1  0.5071780000000  0.3936610000000  0.5288800000000 1.0
C      1  0.5096000000000  0.4130770000000  0.4357890000000 1.0
C      1  0.5076260000000  0.4955720000000  0.3906330000000 1.0
C      1  0.5082160000000  0.5829030000000  0.4291200000000 1.0
C      1  0.5093190000000  0.6067660000000  0.5194550000000 1.0
C      1  0.5302300000000  0.5141430000000  0.4695090000000 1.0
C      1  0.5463450000000  0.5257790000000  0.4937160000000 1.0
C      1  0.5340620000000  0.5257390000000  0.5205960000000 1.0
C      1  0.5413820000000  0.5001330000000  0.5319020000000 1.0
C      1  0.5299890000000  0.4784770000000  0.5203780000000 1.0
C      1  0.5375950000000  0.4653030000000  0.4957200000000 1.0
C      1  0.5420160000000  0.4865060000000  0.4737510000000 1.0
C      1  0.5693030000000  0.5360160000000  0.5331240000000 1.0
C      1  0.5674960000000  0.4944740000000  0.5388730000000 1.0
C      1  0.5729680000000  0.4628820000000  0.5174270000000 1.0
C      1  0.5677060000000  0.4636840000000  0.4906740000000 1.0
C      1  0.5664680000000  0.4911550000000  0.4602380000000 1.0
C      1  0.5707680000000  0.5176830000000  0.4641450000000 1.0
C      1  0.5689460000000  0.5393910000000  0.4928880000000 1.0
C      1  0.4940870000000  0.5975400000000  0.5433590000000 1.0
C      1  0.4941400000000  0.5272510000000  0.6047000000000 1.0
C      1  0.4944500000000  0.4349540000000  0.5859150000000 1.0
C      1  0.4936380000000  0.3910170000000  0.5035270000000 1.0
C      1  0.4939950000000  0.4308870000000  0.4180010000000 1.0
C      1  0.4929770000000  0.5206870000000  0.3951360000000 1.0
C      1  0.4935350000000  0.5958800000000  0.4508590000000 1.0
C      1  0.4454830000000  0.5079810000000  0.5810780000000 1.0
C      1  0.4390740000000  0.4346270000000  0.5569380000000 1.0
C      1  0.4428390000000  0.4167080000000  0.4876680000000 1.0
C      1  0.4443100000000  0.4581010000000  0.4279070000000 1.0
C      1  0.4445960000000  0.5300830000000  0.4241220000000 1.0
C      1  0.4437700000000  0.5806760000000  0.4758310000000 1.0
C      1  0.4442170000000  0.5696820000000  0.5470560000000 1.0
C      1  0.4877080000000  0.4320700000000  0.4914510000000 1.0
C      1  0.4895390000000  0.4668480000000  0.4409800000000 1.0
C      1  0.4886750000000  0.5252900000000  0.4375930000000 1.0
C      1  0.4879180000000  0.5643780000000  0.4810060000000 1.0
C      1  0.4882310000000  0.5554660000000  0.5388350000000 1.0
C      1  0.4892430000000  0.5044740000000  0.5681490000000 1.0
C      1  0.4882960000000  0.4508180000000  0.5478880000000 1.0
C      1  0.5417470000000  0.4497920000000  0.5522240000000 1.0
C      1  0.5298980000000  0.4193050000000  0.4903080000000 1.0
C      1  0.5405900000000  0.4647510000000  0.4400610000000 1.0
C      1  0.5427130000000  0.5214530000000  0.4310090000000 1.0
C      1  0.5347480000000  0.5665370000000  0.4805520000000 1.0
C      1  0.5429970000000  0.5678190000000  0.5361230000000 1.0
C      1  0.5346460000000  0.5090660000000  0.5735080000000 1.0
C      1  0.4936110000000  0.4695240000000  0.5092910000000 1.0
C      1  0.4953050000000  0.4756740000000  0.4818930000000 1.0
C      1  0.5029570000000  0.5003380000000  0.4703370000000 1.0
C      1  0.4936150000000  0.5228200000000  0.4822740000000 1.0
C      1  0.5038210000000  0.5285700000000  0.5079880000000 1.0
C      1  0.4928030000000  0.5130620000000  0.5270480000000 1.0
C      1  0.5032980000000  0.4870610000000  0.5270270000000 1.0
C      1  0.5342640000000  0.4706500000000  0.5943120000000 1.0
C      1  0.5322860000000  0.4093080000000  0.5347170000000 1.0
C      1  0.5361410000000  0.4182650000000  0.4499310000000 1.0
C      1  0.5330640000000  0.4860240000000  0.4033190000000 1.0
C      1  0.5323790000000  0.5656690000000  0.4320760000000 1.0
C      1  0.5347220000000  0.5975430000000  0.5068950000000 1.0
C      1  0.5336570000000  0.5550620000000  0.5822000000000 1.0
C      1  0.4656930000000  0.5899630000000  0.5415500000000 1.0
C      1  0.4659280000000  0.5235990000000  0.5966960000000 1.0
C      1  0.4668800000000  0.4420580000000  0.5751750000000 1.0
C      1  0.4681570000000  0.4057960000000  0.5004060000000 1.0
C      1  0.4658530000000  0.4373720000000  0.4236340000000 1.0
C      1  0.4648470000000  0.5204990000000  0.4040490000000 1.0
C      1  0.4654080000000  0.5888260000000  0.4563000000000 1.0
C      1  0.3917620000000  0.4814720000000  0.4712290000000 1.0
C      1  0.3906590000000  0.5105130000000  0.4688480000000 1.0
C      1  0.3925160000000  0.5315440000000  0.4892250000000 1.0
C      1  0.3949370000000  0.5285230000000  0.5179580000000 1.0
C      1  0.3943890000000  0.5042490000000  0.5349700000000 1.0
C      1  0.3890880000000  0.4771730000000  0.5233710000000 1.0
C      1  0.3895240000000  0.4663530000000  0.4961360000000 1.0
C      1  0.4607460000000  0.4667910000000  0.5890480000000 1.0
C      1  0.4636110000000  0.4092210000000  0.5280680000000 1.0
C      1  0.4651520000000  0.4204310000000  0.4472040000000 1.0
C      1  0.4626250000000  0.4918290000000  0.4044050000000 1.0
C      1  0.4634170000000  0.5702420000000  0.4343010000000 1.0
C      1  0.4634140000000  0.5956110000000  0.5137250000000 1.0
C      1  0.4631930000000  0.5496170000000  0.5840250000000 1.0
C      1  0.4375710000000  0.5000630000000  0.4978440000000 1.0
C      1  0.5599390000000  0.5005360000000  0.4964190000000 1.0
END
