TITL C-2441159-1093-1407 0.092766410998069 125000 -21542.0348631273 0 0 159 (C1) n - 1
REM
REM in /home/bkarasulu/work/CARBON/AIRSS/Generating-Clusters/ReaxFF-fromJPCA2015/Units_Real/with-SteepDescent/Higher-Symm
REM
REM
REM
REM
REM
REM ./C.cell (1df0a924f5614ab8850e4351716899ee)
REM
REM compiler GCC version 9.2.1 20190827 (Red Hat 9.2.1-1)
REM options -cpp -mtune=generic -march=x86-64 -g -O0 -fpre-include=/usr/include/finclude/math-vector-fortran.h
REM seed -259353910 1115127464 -678628333 -524542901 -11137566 -527381294 -1038643407 -73308884 -1764937300 -1095926676 -1019445018 1022976547 325983437 -528993603 -1385442562 1871505558 957035868 -349997651 787736567 862434826 -2077903880 1288055874 -1380253457 -2006525889 2098626291 -340529334 -789448626 -1812488073 1214947335 473755472 527248426 -737727611 941503100
REM
CELL 1.54180   50.00000   50.00000   50.00000   90.00000   90.00000   90.00000
LATT -1
SFAC C  
C      1  0.4630400000000  0.5091430000000  0.4640030000000 1.0
C      1  0.4587140000000  0.4809990000000  0.4710200000000 1.0
C      1  0.4651490000000  0.4689920000000  0.5011740000000 1.0
C      1  0.4539220000000  0.4700870000000  0.5287860000000 1.0
C      1  0.4607510000000  0.5137640000000  0.5266340000000 1.0
C      1  0.4629360000000  0.5382680000000  0.5099230000000 1.0
C      1  0.4624990000000  0.5337390000000  0.4811290000000 1.0
C      1  0.5587780000000  0.4612220000000  0.4663250000000 1.0
C      1  0.5432140000000  0.4438770000000  0.5037790000000 1.0
C      1  0.5492490000000  0.4678380000000  0.5441890000000 1.0
C      1  0.5506390000000  0.5143040000000  0.5523050000000 1.0
C      1  0.5581760000000  0.5507450000000  0.5144220000000 1.0
C      1  0.5577230000000  0.5445730000000  0.4671010000000 1.0
C      1  0.5449660000000  0.5086220000000  0.4464210000000 1.0
C      1  0.5295450000000  0.4120560000000  0.4391690000000 1.0
C      1  0.5321370000000  0.4057430000000  0.5347540000000 1.0
C      1  0.5291190000000  0.4608190000000  0.5995440000000 1.0
C      1  0.5297470000000  0.5478770000000  0.5983190000000 1.0
C      1  0.5240750000000  0.5973450000000  0.5202700000000 1.0
C      1  0.5268180000000  0.5814440000000  0.4366910000000 1.0
C      1  0.5313410000000  0.4950500000000  0.4015540000000 1.0
C      1  0.4795890000000  0.4075430000000  0.5382640000000 1.0
C      1  0.4779130000000  0.4725790000000  0.5955800000000 1.0
C      1  0.4782680000000  0.5596430000000  0.5845420000000 1.0
C      1  0.4745030000000  0.6014130000000  0.5070250000000 1.0
C      1  0.4763040000000  0.5680890000000  0.4249900000000 1.0
C      1  0.4789400000000  0.4852040000000  0.4019160000000 1.0
C      1  0.4774080000000  0.4107870000000  0.4525090000000 1.0
C      1  0.4166090000000  0.5555850000000  0.4923110000000 1.0
C      1  0.4194620000000  0.5299380000000  0.4480430000000 1.0
C      1  0.4238630000000  0.4720920000000  0.4449000000000 1.0
C      1  0.4246840000000  0.4423360000000  0.4869570000000 1.0
C      1  0.4218410000000  0.4502140000000  0.5425510000000 1.0
C      1  0.4207760000000  0.4974960000000  0.5617370000000 1.0
C      1  0.4209850000000  0.5489880000000  0.5401500000000 1.0
C      1  0.5440140000000  0.5615910000000  0.5549000000000 1.0
C      1  0.5489080000000  0.5861550000000  0.4840830000000 1.0
C      1  0.5482360000000  0.5416580000000  0.4183650000000 1.0
C      1  0.5414840000000  0.4578380000000  0.4173050000000 1.0
C      1  0.5431340000000  0.4141790000000  0.4648850000000 1.0
C      1  0.5377290000000  0.4243700000000  0.5607310000000 1.0
C      1  0.5423430000000  0.4852670000000  0.5900740000000 1.0
C      1  0.5923760000000  0.4973600000000  0.4464160000000 1.0
C      1  0.5780420000000  0.4766720000000  0.4798650000000 1.0
C      1  0.5904960000000  0.4517510000000  0.5132150000000 1.0
C      1  0.5759780000000  0.4746560000000  0.5241980000000 1.0
C      1  0.5944490000000  0.5296190000000  0.5442390000000 1.0
C      1  0.5760270000000  0.5292350000000  0.5100520000000 1.0
C      1  0.5853390000000  0.5377200000000  0.4719200000000 1.0
C      1  0.5997120000000  0.5030430000000  0.5444720000000 1.0
C      1  0.6022720000000  0.5367480000000  0.5162200000000 1.0
C      1  0.6084770000000  0.5323360000000  0.4884310000000 1.0
C      1  0.6031480000000  0.5179630000000  0.4632480000000 1.0
C      1  0.6006630000000  0.4754140000000  0.4632420000000 1.0
C      1  0.5999690000000  0.4596760000000  0.4868060000000 1.0
C      1  0.6002570000000  0.4788790000000  0.5393910000000 1.0
C      1  0.5229330000000  0.5809630000000  0.4943650000000 1.0
C      1  0.5283800000000  0.5300420000000  0.4359380000000 1.0
C      1  0.5248370000000  0.4747600000000  0.4209500000000 1.0
C      1  0.5286670000000  0.4268630000000  0.4869730000000 1.0
C      1  0.5285250000000  0.4454900000000  0.5434930000000 1.0
C      1  0.5299990000000  0.5033470000000  0.5696190000000 1.0
C      1  0.5180030000000  0.5496880000000  0.5577430000000 1.0
C      1  0.5038420000000  0.3986480000000  0.5246540000000 1.0
C      1  0.5006320000000  0.4544870000000  0.5965800000000 1.0
C      1  0.5006460000000  0.5510080000000  0.6015320000000 1.0
C      1  0.4969410000000  0.6069500000000  0.5257770000000 1.0
C      1  0.4993640000000  0.5862640000000  0.4320880000000 1.0
C      1  0.5028890000000  0.5015250000000  0.3949620000000 1.0
C      1  0.5001960000000  0.4142950000000  0.4348810000000 1.0
C      1  0.4747670000000  0.4195780000000  0.5651960000000 1.0
C      1  0.4764640000000  0.5014650000000  0.6031320000000 1.0
C      1  0.4729080000000  0.5828840000000  0.5674140000000 1.0
C      1  0.4723330000000  0.6019850000000  0.4768760000000 1.0
C      1  0.4745650000000  0.5461320000000  0.4052050000000 1.0
C      1  0.4747710000000  0.4553250000000  0.4077030000000 1.0
C      1  0.4741190000000  0.3963380000000  0.4779080000000 1.0
C      1  0.4579530000000  0.4160600000000  0.5212760000000 1.0
C      1  0.4546440000000  0.4642760000000  0.5813520000000 1.0
C      1  0.4605560000000  0.5367270000000  0.5745760000000 1.0
C      1  0.4528830000000  0.5857990000000  0.5172790000000 1.0
C      1  0.4543690000000  0.5666420000000  0.4432470000000 1.0
C      1  0.4555720000000  0.4989120000000  0.4107290000000 1.0
C      1  0.4571570000000  0.4336620000000  0.4485320000000 1.0
C      1  0.4097520000000  0.5086060000000  0.5418250000000 1.0
C      1  0.4058220000000  0.5424800000000  0.5173850000000 1.0
C      1  0.4091500000000  0.5368750000000  0.4718730000000 1.0
C      1  0.4203490000000  0.5090400000000  0.4677010000000 1.0
C      1  0.4105430000000  0.4772380000000  0.4680940000000 1.0
C      1  0.4120270000000  0.4636290000000  0.4950040000000 1.0
C      1  0.4249990000000  0.4698830000000  0.5233960000000 1.0
C      1  0.4407520000000  0.4294810000000  0.5417490000000 1.0
C      1  0.4377580000000  0.4888020000000  0.5820860000000 1.0
C      1  0.4388810000000  0.5558840000000  0.5586590000000 1.0
C      1  0.4383840000000  0.5747610000000  0.4932870000000 1.0
C      1  0.4397550000000  0.5428230000000  0.4344580000000 1.0
C      1  0.4370380000000  0.4761130000000  0.4212060000000 1.0
C      1  0.4383890000000  0.4249290000000  0.4731820000000 1.0
C      1  0.5342920000000  0.5340260000000  0.5098960000000 1.0
C      1  0.5347010000000  0.5294880000000  0.4799240000000 1.0
C      1  0.5422020000000  0.5032560000000  0.4725190000000 1.0
C      1  0.5363150000000  0.4759220000000  0.4755990000000 1.0
C      1  0.5316220000000  0.4697150000000  0.5055300000000 1.0
C      1  0.5308830000000  0.4858930000000  0.5295490000000 1.0
C      1  0.5457990000000  0.5088130000000  0.5240120000000 1.0
C      1  0.5597800000000  0.5572930000000  0.4411790000000 1.0
C      1  0.5679760000000  0.5005740000000  0.4300280000000 1.0
C      1  0.5612140000000  0.4351360000000  0.4544120000000 1.0
C      1  0.5673410000000  0.4327660000000  0.5137560000000 1.0
C      1  0.5594330000000  0.4694350000000  0.5723430000000 1.0
C      1  0.5645470000000  0.5384690000000  0.5626520000000 1.0
C      1  0.5619950000000  0.5796050000000  0.5101840000000 1.0
C      1  0.4961450000000  0.4392580000000  0.4196690000000 1.0
C      1  0.4973590000000  0.3961020000000  0.4962400000000 1.0
C      1  0.4972510000000  0.4337690000000  0.5760360000000 1.0
C      1  0.4986210000000  0.5210430000000  0.6005640000000 1.0
C      1  0.4958300000000  0.5936160000000  0.5517960000000 1.0
C      1  0.4960730000000  0.5976080000000  0.4597850000000 1.0
C      1  0.4982780000000  0.5295190000000  0.4009660000000 1.0
C      1  0.5463480000000  0.5841550000000  0.5356550000000 1.0
C      1  0.5499250000000  0.5829870000000  0.4533740000000 1.0
C      1  0.5543680000000  0.5145670000000  0.4080010000000 1.0
C      1  0.5487480000000  0.4324110000000  0.4271880000000 1.0
C      1  0.5544550000000  0.4052880000000  0.5151470000000 1.0
C      1  0.5468470000000  0.4442030000000  0.5811200000000 1.0
C      1  0.5513480000000  0.5329990000000  0.5884000000000 1.0
C      1  0.4997250000000  0.4602540000000  0.4406980000000 1.0
C      1  0.5004880000000  0.4249500000000  0.4906570000000 1.0
C      1  0.5003350000000  0.4500130000000  0.5514290000000 1.0
C      1  0.5092730000000  0.5230360000000  0.5729530000000 1.0
C      1  0.5002070000000  0.5663800000000  0.5410880000000 1.0
C      1  0.5025620000000  0.5728140000000  0.4743300000000 1.0
C      1  0.5007460000000  0.5257600000000  0.4303450000000 1.0
C      1  0.4990120000000  0.4907590000000  0.4654670000000 1.0
C      1  0.5107690000000  0.4658750000000  0.4663410000000 1.0
C      1  0.5051530000000  0.4622420000000  0.5060790000000 1.0
C      1  0.5033090000000  0.4894590000000  0.5377920000000 1.0
C      1  0.4990030000000  0.5160380000000  0.5355940000000 1.0
C      1  0.5075730000000  0.5343580000000  0.5182060000000 1.0
C      1  0.5061740000000  0.5283730000000  0.4773260000000 1.0
C      1  0.4522780000000  0.5822220000000  0.4686640000000 1.0
C      1  0.4529500000000  0.5278680000000  0.4132800000000 1.0
C      1  0.4490320000000  0.4494520000000  0.4202260000000 1.0
C      1  0.4518630000000  0.4081450000000  0.4934790000000 1.0
C      1  0.4521920000000  0.4379890000000  0.5679490000000 1.0
C      1  0.4530620000000  0.5121750000000  0.5915840000000 1.0
C      1  0.4520660000000  0.5791140000000  0.5466480000000 1.0
C      1  0.4872770000000  0.5474350000000  0.4711590000000 1.0
C      1  0.4852160000000  0.5065420000000  0.4457670000000 1.0
C      1  0.4699290000000  0.4609040000000  0.4537390000000 1.0
C      1  0.4850880000000  0.4454960000000  0.5040230000000 1.0
C      1  0.4818950000000  0.4709690000000  0.5431540000000 1.0
C      1  0.4750250000000  0.5189210000000  0.5521630000000 1.0
C      1  0.4868020000000  0.5544670000000  0.5175320000000 1.0
C      1  0.4754500000000  0.4965150000000  0.5076100000000 1.0
C      1  0.4345650000000  0.5050160000000  0.4961940000000 1.0
C      1  0.4967360000000  0.5044250000000  0.4907120000000 1.0
C      1  0.4110430000000  0.5130510000000  0.5144640000000 1.0
C      1  0.5692220000000  0.5008940000000  0.5085390000000 1.0
END
