TITL C-2441162-9305-1157 0.149199255084248 125000 -20305.0348236256 0 0 165 (C1) n - 1
REM
REM in /home/bkarasulu/work/CARBON/AIRSS/Generating-Clusters/ReaxFF-fromJPCA2015/Units_Real/with-SteepDescent/Higher-Symm
REM
REM
REM
REM
REM
REM ./C.cell (1df0a924f5614ab8850e4351716899ee)
REM
REM compiler GCC version 9.2.1 20190827 (Red Hat 9.2.1-1)
REM options -cpp -mtune=generic -march=x86-64 -g -O0 -fpre-include=/usr/include/finclude/math-vector-fortran.h
REM seed -1000222726 -208050026 -1265680171 -2018010885 1670659852 94119889 987234948 424491573 1501065875 956949407 -262038550 2117486839 1379903631 1638126349 -108178666 -130153305 291536557 918530475 -1671660210 1582847793 -1764043169 -1500368126 -1695826036 499801117 -352339931 -460402924 862638164 1904800780 -1533400798 1997295512 1985038771 1370051887 -906209046
REM
CELL 1.54180   50.00000   50.00000   50.00000   90.00000   90.00000   90.00000
LATT -1
SFAC C  
C      1  0.5100200000000  0.4842180000000  0.5428940000000 1.0
C      1  0.5179190000000  0.5348820000000  0.5264000000000 1.0
C      1  0.5099770000000  0.5352790000000  0.4727190000000 1.0
C      1  0.5089890000000  0.4858740000000  0.4586910000000 1.0
C      1  0.5073600000000  0.4525480000000  0.5000220000000 1.0
C      1  0.5086460000000  0.5155290000000  0.5470470000000 1.0
C      1  0.5191160000000  0.4656360000000  0.5232140000000 1.0
C      1  0.5179710000000  0.4640230000000  0.4749350000000 1.0
C      1  0.5173600000000  0.5134660000000  0.4544520000000 1.0
C      1  0.5095700000000  0.5439160000000  0.5009760000000 1.0
C      1  0.5295870000000  0.5707430000000  0.5550460000000 1.0
C      1  0.5319450000000  0.5718540000000  0.4498620000000 1.0
C      1  0.5311530000000  0.4729380000000  0.4119950000000 1.0
C      1  0.5307400000000  0.4093330000000  0.4977770000000 1.0
C      1  0.5231710000000  0.4622740000000  0.5868350000000 1.0
C      1  0.5164650000000  0.4425370000000  0.5641020000000 1.0
C      1  0.5334280000000  0.4231690000000  0.4455740000000 1.0
C      1  0.5327790000000  0.5270300000000  0.4102230000000 1.0
C      1  0.5325230000000  0.5893190000000  0.4978580000000 1.0
C      1  0.5361170000000  0.5296860000000  0.5909100000000 1.0
C      1  0.4343050000000  0.4876620000000  0.5370270000000 1.0
C      1  0.4452900000000  0.5274610000000  0.5193050000000 1.0
C      1  0.4359200000000  0.5332510000000  0.4765050000000 1.0
C      1  0.4327330000000  0.4896950000000  0.4659490000000 1.0
C      1  0.4319290000000  0.4635300000000  0.4996440000000 1.0
C      1  0.4328330000000  0.5125760000000  0.5361660000000 1.0
C      1  0.4450110000000  0.4708720000000  0.5208550000000 1.0
C      1  0.4450490000000  0.4685320000000  0.4775510000000 1.0
C      1  0.4461150000000  0.5123710000000  0.4656250000000 1.0
C      1  0.4313410000000  0.5358790000000  0.4998580000000 1.0
C      1  0.5780480000000  0.5643170000000  0.4634180000000 1.0
C      1  0.5752260000000  0.4850730000000  0.4246950000000 1.0
C      1  0.5747970000000  0.4231480000000  0.4911400000000 1.0
C      1  0.5724510000000  0.4606470000000  0.5774040000000 1.0
C      1  0.5760690000000  0.5570130000000  0.5520310000000 1.0
C      1  0.5764750000000  0.4355570000000  0.4642350000000 1.0
C      1  0.5765700000000  0.5144690000000  0.4257660000000 1.0
C      1  0.5762210000000  0.5768790000000  0.4904520000000 1.0
C      1  0.5779400000000  0.5332030000000  0.5684830000000 1.0
C      1  0.5794970000000  0.4440970000000  0.5502460000000 1.0
C      1  0.5844460000000  0.4843380000000  0.4553290000000 1.0
C      1  0.5842090000000  0.4537050000000  0.4999410000000 1.0
C      1  0.5863240000000  0.4841740000000  0.5421510000000 1.0
C      1  0.5919880000000  0.5448080000000  0.5314270000000 1.0
C      1  0.5844700000000  0.5360610000000  0.4663920000000 1.0
C      1  0.5926580000000  0.5139610000000  0.4496250000000 1.0
C      1  0.5828400000000  0.5520040000000  0.5052690000000 1.0
C      1  0.5846940000000  0.5186860000000  0.5439400000000 1.0
C      1  0.5932700000000  0.4596160000000  0.5301820000000 1.0
C      1  0.5916130000000  0.4585690000000  0.4711960000000 1.0
C      1  0.5415420000000  0.4263200000000  0.5655820000000 1.0
C      1  0.5439410000000  0.5565550000000  0.5963230000000 1.0
C      1  0.5464630000000  0.6001550000000  0.4758710000000 1.0
C      1  0.5435400000000  0.5140150000000  0.3864820000000 1.0
C      1  0.5448340000000  0.3938510000000  0.4500910000000 1.0
C      1  0.5444080000000  0.5730650000000  0.5802710000000 1.0
C      1  0.5493260000000  0.4467720000000  0.5871130000000 1.0
C      1  0.5474690000000  0.3962550000000  0.4784610000000 1.0
C      1  0.5470450000000  0.4891430000000  0.3946630000000 1.0
C      1  0.5288140000000  0.6009740000000  0.4533040000000 1.0
C      1  0.5119760000000  0.5168630000000  0.6005080000000 1.0
C      1  0.5113330000000  0.6002300000000  0.5152560000000 1.0
C      1  0.5110770000000  0.5469780000000  0.4106370000000 1.0
C      1  0.5109850000000  0.4291970000000  0.4275710000000 1.0
C      1  0.5131610000000  0.4082880000000  0.5451070000000 1.0
C      1  0.5116220000000  0.4868320000000  0.6008530000000 1.0
C      1  0.5111540000000  0.3992040000000  0.5175660000000 1.0
C      1  0.5114880000000  0.4515420000000  0.4085820000000 1.0
C      1  0.5120240000000  0.5715940000000  0.4280770000000 1.0
C      1  0.5124280000000  0.5927850000000  0.5440250000000 1.0
C      1  0.4673810000000  0.5403060000000  0.6026480000000 1.0
C      1  0.4646750000000  0.6092800000000  0.4932940000000 1.0
C      1  0.4696870000000  0.5252480000000  0.3948000000000 1.0
C      1  0.4664290000000  0.4086750000000  0.4425620000000 1.0
C      1  0.4678090000000  0.4176010000000  0.5699550000000 1.0
C      1  0.4675390000000  0.4595180000000  0.5999590000000 1.0
C      1  0.4703420000000  0.3928200000000  0.4924730000000 1.0
C      1  0.4693270000000  0.4759870000000  0.3944670000000 1.0
C      1  0.4695430000000  0.5922780000000  0.4454180000000 1.0
C      1  0.4704490000000  0.5793370000000  0.5714630000000 1.0
C      1  0.4479580000000  0.5835890000000  0.4906830000000 1.0
C      1  0.4526700000000  0.5181720000000  0.4195990000000 1.0
C      1  0.4479570000000  0.4256820000000  0.4595150000000 1.0
C      1  0.4507050000000  0.4384520000000  0.5588620000000 1.0
C      1  0.4513050000000  0.5306100000000  0.5771290000000 1.0
C      1  0.4489060000000  0.4157130000000  0.4883190000000 1.0
C      1  0.4523350000000  0.4793850000000  0.4198200000000 1.0
C      1  0.4493890000000  0.5748700000000  0.4596750000000 1.0
C      1  0.4527100000000  0.5626270000000  0.5525760000000 1.0
C      1  0.4496650000000  0.4651930000000  0.5766260000000 1.0
C      1  0.4104110000000  0.5237940000000  0.5505680000000 1.0
C      1  0.4087050000000  0.5527830000000  0.5044060000000 1.0
C      1  0.4073800000000  0.5173680000000  0.4458960000000 1.0
C      1  0.4067120000000  0.4545560000000  0.4675020000000 1.0
C      1  0.4090100000000  0.4530240000000  0.5344350000000 1.0
C      1  0.4107240000000  0.4764250000000  0.5506490000000 1.0
C      1  0.4079320000000  0.4473630000000  0.4960850000000 1.0
C      1  0.4089820000000  0.4855790000000  0.4490830000000 1.0
C      1  0.4097180000000  0.5401510000000  0.4652910000000 1.0
C      1  0.4063470000000  0.5478090000000  0.5344100000000 1.0
C      1  0.4975180000000  0.6017550000000  0.4545730000000 1.0
C      1  0.4967570000000  0.4859880000000  0.3939810000000 1.0
C      1  0.4962990000000  0.3962580000000  0.4807270000000 1.0
C      1  0.4950100000000  0.4484140000000  0.5977110000000 1.0
C      1  0.4987780000000  0.5722210000000  0.5767960000000 1.0
C      1  0.4934530000000  0.4045270000000  0.4539080000000 1.0
C      1  0.4967170000000  0.5144660000000  0.3947120000000 1.0
C      1  0.4912880000000  0.6082020000000  0.4814930000000 1.0
C      1  0.4921210000000  0.5519370000000  0.5940930000000 1.0
C      1  0.4962390000000  0.4263590000000  0.5782000000000 1.0
C      1  0.4278130000000  0.4324670000000  0.5361170000000 1.0
C      1  0.4256790000000  0.5152920000000  0.5749080000000 1.0
C      1  0.4268930000000  0.5758960000000  0.5093250000000 1.0
C      1  0.4270780000000  0.5301770000000  0.4291240000000 1.0
C      1  0.4257820000000  0.4450350000000  0.4494280000000 1.0
C      1  0.4259500000000  0.5684980000000  0.5388920000000 1.0
C      1  0.4265930000000  0.4843730000000  0.5754240000000 1.0
C      1  0.4277390000000  0.4240060000000  0.5076850000000 1.0
C      1  0.4257900000000  0.4681660000000  0.4301570000000 1.0
C      1  0.4272280000000  0.5580940000000  0.4481790000000 1.0
C      1  0.5588600000000  0.5138190000000  0.5813470000000 1.0
C      1  0.5560510000000  0.5826870000000  0.5117550000000 1.0
C      1  0.5563580000000  0.5354980000000  0.4260840000000 1.0
C      1  0.5551420000000  0.4413960000000  0.4446390000000 1.0
C      1  0.5591960000000  0.4253630000000  0.5418940000000 1.0
C      1  0.5620290000000  0.4856220000000  0.5820890000000 1.0
C      1  0.5554190000000  0.4179190000000  0.5125430000000 1.0
C      1  0.5547980000000  0.4642860000000  0.4263640000000 1.0
C      1  0.5574740000000  0.5585830000000  0.4438100000000 1.0
C      1  0.5550440000000  0.5732240000000  0.5402580000000 1.0
C      1  0.4710280000000  0.5119290000000  0.4629020000000 1.0
C      1  0.4712700000000  0.4663550000000  0.4763920000000 1.0
C      1  0.4706050000000  0.4677090000000  0.5223480000000 1.0
C      1  0.4823290000000  0.5141910000000  0.5377100000000 1.0
C      1  0.4811070000000  0.5438710000000  0.4990040000000 1.0
C      1  0.4821690000000  0.4866770000000  0.4604890000000 1.0
C      1  0.4824710000000  0.5338420000000  0.4732040000000 1.0
C      1  0.4703820000000  0.5303310000000  0.5209380000000 1.0
C      1  0.4818300000000  0.4863020000000  0.5403440000000 1.0
C      1  0.4821680000000  0.4596310000000  0.4997010000000 1.0
C      1  0.5437220000000  0.5287870000000  0.5229810000000 1.0
C      1  0.5576780000000  0.5312890000000  0.4758490000000 1.0
C      1  0.5571210000000  0.4872000000000  0.4634350000000 1.0
C      1  0.5574770000000  0.4613180000000  0.5005130000000 1.0
C      1  0.5576100000000  0.4854160000000  0.5397850000000 1.0
C      1  0.5453400000000  0.4673300000000  0.5223890000000 1.0
C      1  0.5454400000000  0.4663600000000  0.4769470000000 1.0
C      1  0.5439830000000  0.5108970000000  0.4628770000000 1.0
C      1  0.5582280000000  0.5392440000000  0.5011050000000 1.0
C      1  0.5576990000000  0.5121930000000  0.5388380000000 1.0
C      1  0.4922090000000  0.4223200000000  0.5109070000000 1.0
C      1  0.4892560000000  0.4888860000000  0.5832260000000 1.0
C      1  0.4912390000000  0.5748790000000  0.5374820000000 1.0
C      1  0.4893450000000  0.5578730000000  0.4426720000000 1.0
C      1  0.4907250000000  0.4629280000000  0.4250080000000 1.0
C      1  0.4885610000000  0.5828820000000  0.5114460000000 1.0
C      1  0.4939680000000  0.5161690000000  0.5768890000000 1.0
C      1  0.4910580000000  0.4255950000000  0.5390200000000 1.0
C      1  0.4897690000000  0.4417880000000  0.4432250000000 1.0
C      1  0.4935900000000  0.5330540000000  0.4302130000000 1.0
C      1  0.4650350000000  0.5042550000000  0.5790890000000 1.0
C      1  0.4646310000000  0.5763360000000  0.5273720000000 1.0
C      1  0.4662240000000  0.5429420000000  0.4332320000000 1.0
C      1  0.4660340000000  0.4234350000000  0.5244840000000 1.0
C      1  0.4643920000000  0.4540380000000  0.4339120000000 1.0
END
