TITL C-2441164-471-23 0.0254888912547686 125000 -13042.5015870773 0 0 95 (C1) n - 1
REM
REM in /home/bkarasulu/work/CARBON/AIRSS/Generating-Clusters/ReaxFF-fromJPCA2015/Units_Real/with-SteepDescent/Higher-Symm
REM
REM
REM
REM
REM
REM ./C.cell (1df0a924f5614ab8850e4351716899ee)
REM
REM compiler GCC version 9.2.1 20190827 (Red Hat 9.2.1-1)
REM options -cpp -mtune=generic -march=x86-64 -g -O0 -fpre-include=/usr/include/finclude/math-vector-fortran.h
REM seed 1686451073 -2113457263 -766757904 -1917216437 1807119570 1459664092 -755799164 -902369949 884782727 999084742 -1503928693 161736527 887018735 1713438274 218346008 1715147074 1718098164 -1428630406 -395191401 1642103252 -1119825714 -839202365 1782731125 -875617364 1065814821 276829642 -940606875 1629257278 606208786 -2065903815 770272055 -2070708233 2052409723
REM
CELL 1.54180   50.00000   50.00000   50.00000   90.00000   90.00000   90.00000
LATT -1
SFAC C  
C      1  0.5060510000000  0.4685040000000  0.5249670000000 1.0
C      1  0.5214780000000  0.4765490000000  0.5031980000000 1.0
C      1  0.5102310000000  0.4667290000000  0.4781920000000 1.0
C      1  0.4776100000000  0.4640750000000  0.4828700000000 1.0
C      1  0.4733120000000  0.4675910000000  0.5133710000000 1.0
C      1  0.5059050000000  0.5342960000000  0.5272690000000 1.0
C      1  0.5244820000000  0.5342780000000  0.4998090000000 1.0
C      1  0.5075910000000  0.5272720000000  0.4777150000000 1.0
C      1  0.4809160000000  0.5309780000000  0.4866140000000 1.0
C      1  0.4813450000000  0.5283790000000  0.5154400000000 1.0
C      1  0.4626850000000  0.5125720000000  0.4729090000000 1.0
C      1  0.4618610000000  0.5122510000000  0.5291130000000 1.0
C      1  0.5144040000000  0.5144910000000  0.5453680000000 1.0
C      1  0.5466690000000  0.5161090000000  0.4980570000000 1.0
C      1  0.5150990000000  0.5114560000000  0.4560000000000 1.0
C      1  0.4623990000000  0.4858120000000  0.4710160000000 1.0
C      1  0.4535930000000  0.4905930000000  0.5112810000000 1.0
C      1  0.5124940000000  0.4878180000000  0.5451490000000 1.0
C      1  0.5453590000000  0.4907570000000  0.5105950000000 1.0
C      1  0.5148710000000  0.4845640000000  0.4559230000000 1.0
C      1  0.4192440000000  0.5313440000000  0.5270790000000 1.0
C      1  0.4990230000000  0.5289190000000  0.5859540000000 1.0
C      1  0.5793840000000  0.5346930000000  0.5202570000000 1.0
C      1  0.5463210000000  0.5248540000000  0.4296260000000 1.0
C      1  0.4478560000000  0.5332980000000  0.4329240000000 1.0
C      1  0.4232090000000  0.4730650000000  0.5371300000000 1.0
C      1  0.5060070000000  0.4699530000000  0.5856260000000 1.0
C      1  0.5822770000000  0.4664810000000  0.5165630000000 1.0
C      1  0.5478200000000  0.4672440000000  0.4291010000000 1.0
C      1  0.4483740000000  0.4722260000000  0.4311840000000 1.0
C      1  0.4748940000000  0.4347300000000  0.5600470000000 1.0
C      1  0.5492600000000  0.4344490000000  0.5426020000000 1.0
C      1  0.5610400000000  0.4453550000000  0.4790540000000 1.0
C      1  0.4862220000000  0.4367250000000  0.4379520000000 1.0
C      1  0.4332850000000  0.4314940000000  0.4954540000000 1.0
C      1  0.4667780000000  0.5634210000000  0.5553330000000 1.0
C      1  0.5463050000000  0.5664820000000  0.5453220000000 1.0
C      1  0.5630460000000  0.5520710000000  0.4726680000000 1.0
C      1  0.4955910000000  0.5606290000000  0.4399310000000 1.0
C      1  0.4390470000000  0.5628520000000  0.4895660000000 1.0
C      1  0.5212750000000  0.5152450000000  0.5733370000000 1.0
C      1  0.5708890000000  0.5302560000000  0.4918490000000 1.0
C      1  0.5202720000000  0.5120030000000  0.4264670000000 1.0
C      1  0.4408820000000  0.5154130000000  0.4547730000000 1.0
C      1  0.4379740000000  0.5187720000000  0.5454160000000 1.0
C      1  0.5264590000000  0.4855420000000  0.5707430000000 1.0
C      1  0.5686160000000  0.4759440000000  0.4928940000000 1.0
C      1  0.5223520000000  0.4811650000000  0.4277230000000 1.0
C      1  0.4376120000000  0.4855980000000  0.4558870000000 1.0
C      1  0.4347980000000  0.4907420000000  0.5557820000000 1.0
C      1  0.4209860000000  0.5464260000000  0.5029760000000 1.0
C      1  0.4774710000000  0.5467450000000  0.5765710000000 1.0
C      1  0.5683660000000  0.5499760000000  0.5434160000000 1.0
C      1  0.5578520000000  0.5460770000000  0.4454200000000 1.0
C      1  0.4702630000000  0.5515160000000  0.4282840000000 1.0
C      1  0.4166440000000  0.4475500000000  0.5073020000000 1.0
C      1  0.4845490000000  0.4471790000000  0.5823550000000 1.0
C      1  0.5736550000000  0.4463740000000  0.5407280000000 1.0
C      1  0.5615280000000  0.4497470000000  0.4483610000000 1.0
C      1  0.4684750000000  0.4509490000000  0.4232380000000 1.0
C      1  0.4589240000000  0.5758840000000  0.5022030000000 1.0
C      1  0.4886310000000  0.5769490000000  0.5438840000000 1.0
C      1  0.5312930000000  0.5755380000000  0.5229140000000 1.0
C      1  0.5390750000000  0.5684600000000  0.4740550000000 1.0
C      1  0.4879240000000  0.5751400000000  0.4625200000000 1.0
C      1  0.4597070000000  0.4246150000000  0.4995700000000 1.0
C      1  0.4869050000000  0.4274880000000  0.5363180000000 1.0
C      1  0.5332760000000  0.4252830000000  0.5222320000000 1.0
C      1  0.5381370000000  0.4275590000000  0.4725380000000 1.0
C      1  0.4900670000000  0.4248820000000  0.4625030000000 1.0
C      1  0.5308840000000  0.5616760000000  0.4989560000000 1.0
C      1  0.5151310000000  0.5732100000000  0.4570970000000 1.0
C      1  0.4689700000000  0.5615070000000  0.4797710000000 1.0
C      1  0.4658290000000  0.5758610000000  0.5291490000000 1.0
C      1  0.5114300000000  0.5614090000000  0.5404770000000 1.0
C      1  0.5478660000000  0.4259420000000  0.4971580000000 1.0
C      1  0.5145380000000  0.4397320000000  0.4663850000000 1.0
C      1  0.4684330000000  0.4371390000000  0.4773190000000 1.0
C      1  0.4661580000000  0.4398930000000  0.5223670000000 1.0
C      1  0.5119150000000  0.4406970000000  0.5330700000000 1.0
C      1  0.4706300000000  0.4826220000000  0.4159090000000 1.0
C      1  0.4109430000000  0.4746070000000  0.5119640000000 1.0
C      1  0.4779990000000  0.4766680000000  0.5875520000000 1.0
C      1  0.5771300000000  0.4761720000000  0.5438320000000 1.0
C      1  0.5725880000000  0.4765440000000  0.4450740000000 1.0
C      1  0.4697220000000  0.5262040000000  0.4134850000000 1.0
C      1  0.4155500000000  0.5188580000000  0.5016490000000 1.0
C      1  0.4707690000000  0.5192750000000  0.5844740000000 1.0
C      1  0.5718410000000  0.5180060000000  0.5431990000000 1.0
C      1  0.5658910000000  0.5175890000000  0.4484790000000 1.0
C      1  0.4290820000000  0.4937140000000  0.4956190000000 1.0
C      1  0.4611910000000  0.4946890000000  0.5714600000000 1.0
C      1  0.5546970000000  0.4948490000000  0.5421030000000 1.0
C      1  0.4890610000000  0.5045590000000  0.4163600000000 1.0
C      1  0.5735580000000  0.4959120000000  0.4666000000000 1.0
END
