TITL C-2441162-9305-1235 0.001408250369227 125000 -5178.19606337473 0 0 39 (C1) n - 1
REM
REM in /home/bkarasulu/work/CARBON/AIRSS/Generating-Clusters/ReaxFF-fromJPCA2015/Units_Real/with-SteepDescent/Higher-Symm
REM
REM
REM
REM
REM
REM ./C.cell (1df0a924f5614ab8850e4351716899ee)
REM
REM compiler GCC version 9.2.1 20190827 (Red Hat 9.2.1-1)
REM options -cpp -mtune=generic -march=x86-64 -g -O0 -fpre-include=/usr/include/finclude/math-vector-fortran.h
REM seed 2034438899 -624869283 1839510009 841032426 -883844984 1718787653 977852429 -1610966878 -2124998790 1357823395 -16005560 1130369667 -680325745 2078310607 -1701436207 -1221861597 -1681212629 1606459617 -1033781549 940568191 -1784415211 1730169657 264038562 -285518637 716040449 1110916802 343010023 -1552539342 -566948598 -1586441480 -6982902 -1332942275 106826423
REM
CELL 1.54180   50.00000   50.00000   50.00000   90.00000   90.00000   90.00000
LATT -1
SFAC C  
C      1  0.5370670000000  0.5455450000000  0.4792980000000 1.0
C      1  0.5055090000000  0.5454960000000  0.4578010000000 1.0
C      1  0.4672830000000  0.5450030000000  0.4686430000000 1.0
C      1  0.4534180000000  0.5454450000000  0.5033680000000 1.0
C      1  0.4793710000000  0.5444010000000  0.5349650000000 1.0
C      1  0.5196380000000  0.5442180000000  0.5437260000000 1.0
C      1  0.5393580000000  0.5457070000000  0.5205120000000 1.0
C      1  0.4498970000000  0.5265180000000  0.4822680000000 1.0
C      1  0.4561580000000  0.5285400000000  0.5264260000000 1.0
C      1  0.4965850000000  0.5274040000000  0.5507980000000 1.0
C      1  0.5381630000000  0.5249480000000  0.5390610000000 1.0
C      1  0.5484610000000  0.5287530000000  0.4982800000000 1.0
C      1  0.5282660000000  0.5284460000000  0.4583500000000 1.0
C      1  0.4839210000000  0.5277150000000  0.4539380000000 1.0
C      1  0.4621820000000  0.4994150000000  0.4901150000000 1.0
C      1  0.4659690000000  0.5002060000000  0.5227360000000 1.0
C      1  0.4960900000000  0.4995520000000  0.5409440000000 1.0
C      1  0.5284340000000  0.4991950000000  0.5291430000000 1.0
C      1  0.5378290000000  0.5002160000000  0.4948810000000 1.0
C      1  0.5212800000000  0.5001500000000  0.4696800000000 1.0
C      1  0.4856890000000  0.4981370000000  0.4660570000000 1.0
C      1  0.5392890000000  0.4713450000000  0.5356200000000 1.0
C      1  0.5522780000000  0.4721230000000  0.4912080000000 1.0
C      1  0.5245740000000  0.4717050000000  0.4575950000000 1.0
C      1  0.4812100000000  0.4703660000000  0.4562760000000 1.0
C      1  0.4497360000000  0.4716970000000  0.4862020000000 1.0
C      1  0.4548090000000  0.4720580000000  0.5306890000000 1.0
C      1  0.4959770000000  0.4715290000000  0.5525790000000 1.0
C      1  0.4750200000000  0.4552310000000  0.5420220000000 1.0
C      1  0.5159230000000  0.4539070000000  0.5394980000000 1.0
C      1  0.5474380000000  0.4555570000000  0.5135280000000 1.0
C      1  0.5362490000000  0.4541120000000  0.4762380000000 1.0
C      1  0.5018500000000  0.4550790000000  0.4571510000000 1.0
C      1  0.4662900000000  0.4549240000000  0.4707680000000 1.0
C      1  0.4547830000000  0.4546990000000  0.5082610000000 1.0
C      1  0.4955940000000  0.5373350000000  0.5067840000000 1.0
C      1  0.5021540000000  0.4566800000000  0.5104230000000 1.0
C      1  0.4992520000000  0.5104150000000  0.5021100000000 1.0
C      1  0.4996190000000  0.4842210000000  0.5015140000000 1.0
END
