TITL C-2441161-5029-84 0.0788469074810839 125000 -20157.6081451667 0 0 149 (C1) n - 1
REM
REM in /home/bkarasulu/work/CARBON/AIRSS/Generating-Clusters/ReaxFF-fromJPCA2015/Units_Real/with-SteepDescent/Higher-Symm
REM
REM
REM
REM
REM
REM ./C.cell (1df0a924f5614ab8850e4351716899ee)
REM
REM compiler GCC version 9.2.1 20190827 (Red Hat 9.2.1-1)
REM options -cpp -mtune=generic -march=x86-64 -g -O0 -fpre-include=/usr/include/finclude/math-vector-fortran.h
REM seed -1059010762 641460346 1183740681 -2107481936 -1768069809 -547327258 1312555622 -439681906 1381442561 -558332530 1464345906 -889330889 1326321167 955938380 -1768395623 -1613312836 -406806191 1252399870 -821497972 -789766472 -1551584717 177748834 -1313342115 727239049 -2017102802 1453336284 -260773018 1061286371 -257521482 689964659 2058810972 -1825983567 -1895663159
REM
CELL 1.54180   50.00000   50.00000   50.00000   90.00000   90.00000   90.00000
LATT -1
SFAC C  
C      1  0.5299860000000  0.5873470000000  0.5037970000000 1.0
C      1  0.4738670000000  0.5948750000000  0.4953690000000 1.0
C      1  0.4232450000000  0.5565020000000  0.5062230000000 1.0
C      1  0.4054630000000  0.4986040000000  0.5016220000000 1.0
C      1  0.4101730000000  0.4515300000000  0.4973370000000 1.0
C      1  0.4496970000000  0.4221800000000  0.4981020000000 1.0
C      1  0.4973320000000  0.4083960000000  0.5035590000000 1.0
C      1  0.5531420000000  0.4148870000000  0.4979080000000 1.0
C      1  0.5914490000000  0.4567150000000  0.5002020000000 1.0
C      1  0.5894010000000  0.5188870000000  0.4998300000000 1.0
C      1  0.5709350000000  0.5673730000000  0.4993650000000 1.0
C      1  0.4644160000000  0.4256230000000  0.4758990000000 1.0
C      1  0.5098790000000  0.4152400000000  0.4786090000000 1.0
C      1  0.5536960000000  0.4309840000000  0.4757300000000 1.0
C      1  0.5829420000000  0.4688280000000  0.4778030000000 1.0
C      1  0.5787780000000  0.5164880000000  0.4731050000000 1.0
C      1  0.5580560000000  0.5603580000000  0.4760440000000 1.0
C      1  0.5158410000000  0.5830900000000  0.4782760000000 1.0
C      1  0.4692780000000  0.5797520000000  0.4743670000000 1.0
C      1  0.4320730000000  0.5511370000000  0.4794980000000 1.0
C      1  0.4193970000000  0.5056570000000  0.4767960000000 1.0
C      1  0.4276330000000  0.4583900000000  0.4772090000000 1.0
C      1  0.4814620000000  0.5752190000000  0.5129950000000 1.0
C      1  0.4629070000000  0.5513940000000  0.5156910000000 1.0
C      1  0.4207980000000  0.5343380000000  0.5260530000000 1.0
C      1  0.4246920000000  0.4788490000000  0.5147140000000 1.0
C      1  0.4496340000000  0.4400470000000  0.5178970000000 1.0
C      1  0.4903260000000  0.4366760000000  0.5103950000000 1.0
C      1  0.5416610000000  0.4334890000000  0.5152750000000 1.0
C      1  0.5543000000000  0.4618050000000  0.5176270000000 1.0
C      1  0.5756140000000  0.5019390000000  0.5177660000000 1.0
C      1  0.5764570000000  0.5434030000000  0.5111370000000 1.0
C      1  0.5214200000000  0.5599730000000  0.5107110000000 1.0
C      1  0.4597570000000  0.4506550000000  0.4136340000000 1.0
C      1  0.4920620000000  0.4427110000000  0.4171100000000 1.0
C      1  0.5217330000000  0.4417640000000  0.4151620000000 1.0
C      1  0.5480000000000  0.4638570000000  0.4180620000000 1.0
C      1  0.5633270000000  0.4900370000000  0.4196100000000 1.0
C      1  0.5461570000000  0.5379040000000  0.4150740000000 1.0
C      1  0.5266030000000  0.5587360000000  0.4134120000000 1.0
C      1  0.4939080000000  0.5592840000000  0.4173500000000 1.0
C      1  0.4618560000000  0.5517420000000  0.4148470000000 1.0
C      1  0.4463600000000  0.5278310000000  0.4181020000000 1.0
C      1  0.4446990000000  0.4752330000000  0.4154870000000 1.0
C      1  0.5345290000000  0.5561640000000  0.5843590000000 1.0
C      1  0.4911490000000  0.5573600000000  0.5723770000000 1.0
C      1  0.4529630000000  0.5531110000000  0.5829420000000 1.0
C      1  0.4430590000000  0.5187440000000  0.5661260000000 1.0
C      1  0.4458210000000  0.4779070000000  0.5739170000000 1.0
C      1  0.4612110000000  0.4584750000000  0.5876360000000 1.0
C      1  0.4813440000000  0.4366520000000  0.5828830000000 1.0
C      1  0.5206950000000  0.4574710000000  0.5699930000000 1.0
C      1  0.5450500000000  0.4650300000000  0.5818370000000 1.0
C      1  0.5639110000000  0.4876920000000  0.5791710000000 1.0
C      1  0.5407790000000  0.5294250000000  0.5713300000000 1.0
C      1  0.5854050000000  0.4530040000000  0.5285430000000 1.0
C      1  0.5961980000000  0.5040090000000  0.5381130000000 1.0
C      1  0.5781730000000  0.5527950000000  0.5374160000000 1.0
C      1  0.5363620000000  0.5906670000000  0.5324740000000 1.0
C      1  0.4856550000000  0.5940850000000  0.5356400000000 1.0
C      1  0.4385100000000  0.5723440000000  0.5304350000000 1.0
C      1  0.4028770000000  0.5108590000000  0.5275480000000 1.0
C      1  0.4101020000000  0.4649720000000  0.5376650000000 1.0
C      1  0.4371550000000  0.4202850000000  0.5358260000000 1.0
C      1  0.4932710000000  0.4042450000000  0.5333900000000 1.0
C      1  0.5429500000000  0.4158290000000  0.5395150000000 1.0
C      1  0.4887650000000  0.4168370000000  0.4343500000000 1.0
C      1  0.5334040000000  0.4230110000000  0.4329770000000 1.0
C      1  0.5721260000000  0.4514470000000  0.4335250000000 1.0
C      1  0.5874280000000  0.4973140000000  0.4333930000000 1.0
C      1  0.5701950000000  0.5447800000000  0.4320520000000 1.0
C      1  0.5363250000000  0.5771120000000  0.4331670000000 1.0
C      1  0.4907950000000  0.5850650000000  0.4337250000000 1.0
C      1  0.4457850000000  0.5667880000000  0.4330590000000 1.0
C      1  0.4208190000000  0.5272430000000  0.4346440000000 1.0
C      1  0.4200220000000  0.4767460000000  0.4337140000000 1.0
C      1  0.4446830000000  0.4360510000000  0.4329540000000 1.0
C      1  0.4930460000000  0.4566050000000  0.5313220000000 1.0
C      1  0.5167160000000  0.4653130000000  0.5445230000000 1.0
C      1  0.5382880000000  0.4778330000000  0.5325730000000 1.0
C      1  0.5479660000000  0.5042610000000  0.5291250000000 1.0
C      1  0.5382390000000  0.5264320000000  0.5438010000000 1.0
C      1  0.5198190000000  0.5427960000000  0.5334800000000 1.0
C      1  0.4954080000000  0.5414390000000  0.5487220000000 1.0
C      1  0.4745350000000  0.5320530000000  0.5324440000000 1.0
C      1  0.4525650000000  0.5142730000000  0.5386560000000 1.0
C      1  0.4516100000000  0.4880750000000  0.5250770000000 1.0
C      1  0.4664530000000  0.4650420000000  0.5273690000000 1.0
C      1  0.5961470000000  0.4753190000000  0.5458040000000 1.0
C      1  0.5844310000000  0.5276770000000  0.5524890000000 1.0
C      1  0.5615410000000  0.5768340000000  0.5441510000000 1.0
C      1  0.5126340000000  0.5902850000000  0.5485080000000 1.0
C      1  0.4608630000000  0.5839210000000  0.5471770000000 1.0
C      1  0.4222690000000  0.5546390000000  0.5478440000000 1.0
C      1  0.4067990000000  0.4916190000000  0.5494840000000 1.0
C      1  0.4235710000000  0.4426400000000  0.5507620000000 1.0
C      1  0.4648180000000  0.4072540000000  0.5443680000000 1.0
C      1  0.5148470000000  0.4137410000000  0.5509680000000 1.0
C      1  0.5658790000000  0.4316970000000  0.5482640000000 1.0
C      1  0.4574850000000  0.4911610000000  0.4372050000000 1.0
C      1  0.4662860000000  0.4717890000000  0.4558310000000 1.0
C      1  0.4897960000000  0.4660220000000  0.4404070000000 1.0
C      1  0.5106140000000  0.4607110000000  0.4528470000000 1.0
C      1  0.5332250000000  0.4716680000000  0.4430970000000 1.0
C      1  0.5455010000000  0.4976920000000  0.4449380000000 1.0
C      1  0.5312610000000  0.5178030000000  0.4310550000000 1.0
C      1  0.5234590000000  0.5345290000000  0.4522000000000 1.0
C      1  0.4995260000000  0.5417940000000  0.4410150000000 1.0
C      1  0.4788420000000  0.5327480000000  0.4551280000000 1.0
C      1  0.4595030000000  0.5175910000000  0.4417990000000 1.0
C      1  0.5607030000000  0.5676570000000  0.4469600000000 1.0
C      1  0.5146710000000  0.5898320000000  0.4496460000000 1.0
C      1  0.4644920000000  0.5864260000000  0.4455750000000 1.0
C      1  0.4262120000000  0.5510050000000  0.4503330000000 1.0
C      1  0.4135270000000  0.5019990000000  0.4472270000000 1.0
C      1  0.4240110000000  0.4524840000000  0.4482000000000 1.0
C      1  0.4629820000000  0.4174610000000  0.4471130000000 1.0
C      1  0.5117340000000  0.4090960000000  0.4505200000000 1.0
C      1  0.5593960000000  0.4288410000000  0.4460710000000 1.0
C      1  0.5879790000000  0.4713490000000  0.4478720000000 1.0
C      1  0.5862150000000  0.5242350000000  0.4457150000000 1.0
C      1  0.5093810000000  0.4481500000000  0.4756730000000 1.0
C      1  0.5362540000000  0.4548880000000  0.4812680000000 1.0
C      1  0.5538030000000  0.4770310000000  0.4888980000000 1.0
C      1  0.5510680000000  0.5067460000000  0.4756240000000 1.0
C      1  0.5361170000000  0.5362470000000  0.4778620000000 1.0
C      1  0.5104470000000  0.5530770000000  0.4855390000000 1.0
C      1  0.4794030000000  0.5484750000000  0.4777540000000 1.0
C      1  0.4566290000000  0.5347250000000  0.4908780000000 1.0
C      1  0.4472500000000  0.5044240000000  0.4856020000000 1.0
C      1  0.4554540000000  0.4763890000000  0.4827700000000 1.0
C      1  0.4811890000000  0.4496840000000  0.4866710000000 1.0
C      1  0.4674740000000  0.5706950000000  0.5716530000000 1.0
C      1  0.4322870000000  0.5429990000000  0.5717910000000 1.0
C      1  0.4261790000000  0.4972020000000  0.5706860000000 1.0
C      1  0.4355470000000  0.4529310000000  0.5750880000000 1.0
C      1  0.4646730000000  0.4232650000000  0.5659190000000 1.0
C      1  0.5086640000000  0.4320500000000  0.5722630000000 1.0
C      1  0.5661160000000  0.4457170000000  0.5732650000000 1.0
C      1  0.5854170000000  0.4690570000000  0.5719860000000 1.0
C      1  0.5672460000000  0.5164220000000  0.5728900000000 1.0
C      1  0.5544550000000  0.5685810000000  0.5699630000000 1.0
C      1  0.5137990000000  0.5743910000000  0.5732570000000 1.0
C      1  0.5010300000000  0.5000020000000  0.4940510000000 1.0
C      1  0.5004250000000  0.5000200000000  0.4685630000000 1.0
C      1  0.4999400000000  0.4999520000000  0.5189230000000 1.0
C      1  0.4978330000000  0.5006420000000  0.5458410000000 1.0
C      1  0.4984160000000  0.4985750000000  0.4390790000000 1.0
C      1  0.4989950000000  0.4997450000000  0.5707130000000 1.0
END
