TITL C-2441168-9922-708 0.148166310955367 125000 -21252.378601999 0 0 169 (C1) n - 1
REM
REM in /home/bkarasulu/work/CARBON/AIRSS/Generating-Clusters/ReaxFF-fromJPCA2015/Units_Real/with-SteepDescent/Higher-Symm
REM
REM
REM
REM
REM
REM ./C.cell (1df0a924f5614ab8850e4351716899ee)
REM
REM compiler GCC version 9.2.1 20190827 (Red Hat 9.2.1-1)
REM options -cpp -mtune=generic -march=x86-64 -g -O0 -fpre-include=/usr/include/finclude/math-vector-fortran.h
REM seed -112777119 -1728810583 -218047844 1154544168 1420274231 939869736 1638539963 -579300108 -339459497 -1470110937 191279539 692903192 907359334 -1373491390 2011635220 1161358700 1087349986 -1464684755 435720941 -295774444 1659315883 1030980600 463787572 -843974559 -2022202804 -15666863 1236828822 2124655427 1029531883 -1493065930 -1587220599 170325343 847339108
REM
CELL 1.54180   50.00000   50.00000   50.00000   90.00000   90.00000   90.00000
LATT -1
SFAC C  
C      1  0.4957050000000  0.5979480000000  0.4718410000000 1.0
C      1  0.4169830000000  0.4426960000000  0.4720170000000 1.0
C      1  0.5856510000000  0.4568820000000  0.4690390000000 1.0
C      1  0.5393130000000  0.4996000000000  0.4037390000000 1.0
C      1  0.4820860000000  0.5327660000000  0.4032360000000 1.0
C      1  0.4809030000000  0.4712850000000  0.4025730000000 1.0
C      1  0.5515990000000  0.4568830000000  0.5805190000000 1.0
C      1  0.5179520000000  0.5700650000000  0.5736920000000 1.0
C      1  0.4395930000000  0.4807200000000  0.5770170000000 1.0
C      1  0.4816250000000  0.5670550000000  0.4995210000000 1.0
C      1  0.4386960000000  0.4509470000000  0.5033000000000 1.0
C      1  0.5677750000000  0.4850070000000  0.4999050000000 1.0
C      1  0.5584830000000  0.5053950000000  0.5194630000000 1.0
C      1  0.4674410000000  0.5538600000000  0.5217880000000 1.0
C      1  0.4820730000000  0.4490550000000  0.5109980000000 1.0
C      1  0.4383770000000  0.5816830000000  0.4952550000000 1.0
C      1  0.4539190000000  0.4084220000000  0.4946860000000 1.0
C      1  0.6054930000000  0.5115810000000  0.4939330000000 1.0
C      1  0.5425130000000  0.5403970000000  0.5508220000000 1.0
C      1  0.4325280000000  0.5227110000000  0.5499490000000 1.0
C      1  0.5119880000000  0.4438700000000  0.5503580000000 1.0
C      1  0.5613280000000  0.4932080000000  0.4397520000000 1.0
C      1  0.4726230000000  0.5630880000000  0.4370220000000 1.0
C      1  0.4546260000000  0.4534250000000  0.4380530000000 1.0
C      1  0.5657200000000  0.5776570000000  0.4897040000000 1.0
C      1  0.4025670000000  0.5166600000000  0.4845170000000 1.0
C      1  0.5338820000000  0.4019130000000  0.4890630000000 1.0
C      1  0.4390980000000  0.5057130000000  0.4082170000000 1.0
C      1  0.5263210000000  0.4517820000000  0.4072960000000 1.0
C      1  0.5411590000000  0.5633050000000  0.4128170000000 1.0
C      1  0.4571830000000  0.4583090000000  0.5864490000000 1.0
C      1  0.5512640000000  0.4857320000000  0.5900790000000 1.0
C      1  0.4789630000000  0.5577580000000  0.5858230000000 1.0
C      1  0.4181770000000  0.5611170000000  0.4956590000000 1.0
C      1  0.4792830000000  0.3949060000000  0.4879510000000 1.0
C      1  0.6014460000000  0.5402370000000  0.4930480000000 1.0
C      1  0.4741200000000  0.4834070000000  0.4635740000000 1.0
C      1  0.5248180000000  0.4799770000000  0.4584960000000 1.0
C      1  0.4998430000000  0.5206760000000  0.4607770000000 1.0
C      1  0.5233680000000  0.5957840000000  0.4816680000000 1.0
C      1  0.4057250000000  0.4676590000000  0.4826030000000 1.0
C      1  0.5710480000000  0.4335020000000  0.4800020000000 1.0
C      1  0.4987500000000  0.4705180000000  0.4622850000000 1.0
C      1  0.5253500000000  0.5074580000000  0.4671640000000 1.0
C      1  0.4732310000000  0.5115600000000  0.4689940000000 1.0
C      1  0.5166060000000  0.5636410000000  0.4271530000000 1.0
C      1  0.4362370000000  0.4735740000000  0.4341700000000 1.0
C      1  0.5500580000000  0.4503550000000  0.4252810000000 1.0
C      1  0.4822540000000  0.5962020000000  0.5467030000000 1.0
C      1  0.4276040000000  0.4370820000000  0.5467250000000 1.0
C      1  0.5931910000000  0.4671440000000  0.5446690000000 1.0
C      1  0.5387810000000  0.5246920000000  0.4484190000000 1.0
C      1  0.4541910000000  0.5162370000000  0.4485430000000 1.0
C      1  0.5039100000000  0.4496410000000  0.4423960000000 1.0
C      1  0.4325260000000  0.4552930000000  0.5685520000000 1.0
C      1  0.5727200000000  0.4608540000000  0.5627670000000 1.0
C      1  0.4935640000000  0.5804130000000  0.5709710000000 1.0
C      1  0.6087950000000  0.5134750000000  0.5231720000000 1.0
C      1  0.4347750000000  0.5872080000000  0.5236670000000 1.0
C      1  0.4565720000000  0.3988680000000  0.5225230000000 1.0
C      1  0.5996070000000  0.4963770000000  0.5447220000000 1.0
C      1  0.4539830000000  0.5909550000000  0.5460890000000 1.0
C      1  0.4480030000000  0.4155310000000  0.5448100000000 1.0
C      1  0.4656220000000  0.4171400000000  0.4578790000000 1.0
C      1  0.5878410000000  0.5232420000000  0.4442240000000 1.0
C      1  0.4367660000000  0.5685580000000  0.4547620000000 1.0
C      1  0.4909190000000  0.4885280000000  0.3813080000000 1.0
C      1  0.5186210000000  0.4983350000000  0.3828630000000 1.0
C      1  0.4961030000000  0.5176430000000  0.3829700000000 1.0
C      1  0.5755860000000  0.4311540000000  0.5096300000000 1.0
C      1  0.5221500000000  0.6018780000000  0.5110900000000 1.0
C      1  0.4009440000000  0.4665940000000  0.5131860000000 1.0
C      1  0.4955000000000  0.6074700000000  0.5228040000000 1.0
C      1  0.4075630000000  0.4412690000000  0.5250170000000 1.0
C      1  0.5955110000000  0.4498440000000  0.5194940000000 1.0
C      1  0.4139620000000  0.4828780000000  0.5350760000000 1.0
C      1  0.5563280000000  0.4360270000000  0.5322840000000 1.0
C      1  0.5295870000000  0.5832060000000  0.5332730000000 1.0
C      1  0.4692140000000  0.5142880000000  0.4981890000000 1.0
C      1  0.5095110000000  0.4898960000000  0.5064600000000 1.0
C      1  0.5126120000000  0.5130410000000  0.5196080000000 1.0
C      1  0.5778310000000  0.5525730000000  0.4801830000000 1.0
C      1  0.4147900000000  0.5405150000000  0.4755590000000 1.0
C      1  0.5053440000000  0.4084130000000  0.4799730000000 1.0
C      1  0.4833570000000  0.3898490000000  0.5161170000000 1.0
C      1  0.6026700000000  0.5418180000000  0.5209960000000 1.0
C      1  0.4156100000000  0.5651300000000  0.5251090000000 1.0
C      1  0.5563890000000  0.4786850000000  0.4168320000000 1.0
C      1  0.4898030000000  0.5570950000000  0.4163760000000 1.0
C      1  0.4532610000000  0.4678840000000  0.4122190000000 1.0
C      1  0.4681190000000  0.4673040000000  0.5409930000000 1.0
C      1  0.5417140000000  0.4920000000000  0.5408290000000 1.0
C      1  0.4887970000000  0.5432880000000  0.5386040000000 1.0
C      1  0.4432790000000  0.4865250000000  0.5327500000000 1.0
C      1  0.5335910000000  0.4580300000000  0.5328680000000 1.0
C      1  0.5219030000000  0.5535360000000  0.5310010000000 1.0
C      1  0.4833440000000  0.5980380000000  0.4982440000000 1.0
C      1  0.4166750000000  0.4314980000000  0.4989980000000 1.0
C      1  0.5951770000000  0.4647560000000  0.4950960000000 1.0
C      1  0.4265740000000  0.5219920000000  0.5214640000000 1.0
C      1  0.5052540000000  0.4070560000000  0.5242150000000 1.0
C      1  0.5756970000000  0.5495470000000  0.5246350000000 1.0
C      1  0.4843780000000  0.4780670000000  0.5045990000000 1.0
C      1  0.5313750000000  0.4971120000000  0.4923700000000 1.0
C      1  0.4924850000000  0.5275570000000  0.5077570000000 1.0
C      1  0.4753420000000  0.5807440000000  0.4592460000000 1.0
C      1  0.4433170000000  0.4352370000000  0.4573670000000 1.0
C      1  0.5823570000000  0.4846020000000  0.4576710000000 1.0
C      1  0.4411900000000  0.4795930000000  0.5043760000000 1.0
C      1  0.5281950000000  0.4523760000000  0.5047480000000 1.0
C      1  0.5284030000000  0.5456400000000  0.5023720000000 1.0
C      1  0.4375800000000  0.5089800000000  0.5753670000000 1.0
C      1  0.5265540000000  0.4391820000000  0.5750460000000 1.0
C      1  0.5434340000000  0.5589180000000  0.5749070000000 1.0
C      1  0.4597730000000  0.4365990000000  0.4985380000000 1.0
C      1  0.5818300000000  0.5012200000000  0.4811450000000 1.0
C      1  0.4600640000000  0.5693700000000  0.4808070000000 1.0
C      1  0.4092950000000  0.4930690000000  0.4704150000000 1.0
C      1  0.5521490000000  0.4130320000000  0.4697880000000 1.0
C      1  0.5478890000000  0.5865070000000  0.4688270000000 1.0
C      1  0.5539470000000  0.5314450000000  0.5070290000000 1.0
C      1  0.4506310000000  0.5330080000000  0.5090360000000 1.0
C      1  0.5062800000000  0.4336330000000  0.5028800000000 1.0
C      1  0.5708120000000  0.5160210000000  0.4250020000000 1.0
C      1  0.4458940000000  0.5569300000000  0.4319790000000 1.0
C      1  0.4854370000000  0.4238720000000  0.4389190000000 1.0
C      1  0.5187020000000  0.5121550000000  0.5478940000000 1.0
C      1  0.4884520000000  0.5089370000000  0.5533160000000 1.0
C      1  0.4926260000000  0.4811480000000  0.5494710000000 1.0
C      1  0.3927830000000  0.5041720000000  0.5392860000000 1.0
C      1  0.5473890000000  0.4107780000000  0.5393970000000 1.0
C      1  0.5557920000000  0.5835570000000  0.5437310000000 1.0
C      1  0.5053270000000  0.4708180000000  0.4186820000000 1.0
C      1  0.5253050000000  0.5163500000000  0.4237240000000 1.0
C      1  0.4699070000000  0.5140210000000  0.4236920000000 1.0
C      1  0.4629310000000  0.4776580000000  0.4865510000000 1.0
C      1  0.5414830000000  0.4700960000000  0.4843880000000 1.0
C      1  0.5042090000000  0.5452550000000  0.4858690000000 1.0
C      1  0.4837880000000  0.5305590000000  0.5983040000000 1.0
C      1  0.4861400000000  0.4734990000000  0.5960710000000 1.0
C      1  0.5344040000000  0.5076350000000  0.6010500000000 1.0
C      1  0.5063860000000  0.4073180000000  0.4493940000000 1.0
C      1  0.5787100000000  0.5490670000000  0.4506920000000 1.0
C      1  0.4204430000000  0.5454950000000  0.4461490000000 1.0
C      1  0.5353520000000  0.4147040000000  0.4448790000000 1.0
C      1  0.5550860000000  0.5679200000000  0.4438680000000 1.0
C      1  0.4205590000000  0.5180360000000  0.4256320000000 1.0
C      1  0.4445850000000  0.5673960000000  0.5614450000000 1.0
C      1  0.4728350000000  0.4191710000000  0.5597820000000 1.0
C      1  0.5822870000000  0.5134310000000  0.5610470000000 1.0
C      1  0.4299390000000  0.4981840000000  0.4482090000000 1.0
C      1  0.5332570000000  0.4431290000000  0.4484150000000 1.0
C      1  0.5310980000000  0.5525880000000  0.4518140000000 1.0
C      1  0.3982640000000  0.5191290000000  0.5138740000000 1.0
C      1  0.5344840000000  0.3980960000000  0.5180080000000 1.0
C      1  0.5694040000000  0.5807060000000  0.5193570000000 1.0
C      1  0.4569350000000  0.5185600000000  0.5937710000000 1.0
C      1  0.5105120000000  0.4545330000000  0.5940390000000 1.0
C      1  0.5370400000000  0.5370580000000  0.5957070000000 1.0
C      1  0.4738200000000  0.4480070000000  0.5632520000000 1.0
C      1  0.5568710000000  0.4994610000000  0.5651970000000 1.0
C      1  0.4666460000000  0.5478700000000  0.5619260000000 1.0
C      1  0.5715350000000  0.5384180000000  0.5511210000000 1.0
C      1  0.4238520000000  0.5508860000000  0.5497560000000 1.0
C      1  0.5010760000000  0.4172570000000  0.5511810000000 1.0
C      1  0.5139170000000  0.5223240000000  0.5866050000000 1.0
C      1  0.4784980000000  0.5038900000000  0.5826230000000 1.0
C      1  0.5059520000000  0.4757460000000  0.5748590000000 1.0
C      1  0.4994320000000  0.5075870000000  0.4335420000000 1.0
END
