TITL C-2441166-8118-953 0.127204969041527 125000 -26494.7410224124 0 0 198 (C1) n - 1
REM
REM in /home/bkarasulu/work/CARBON/AIRSS/Generating-Clusters/ReaxFF-fromJPCA2015/Units_Real/with-SteepDescent/Higher-Symm
REM
REM
REM
REM
REM
REM ./C.cell (1df0a924f5614ab8850e4351716899ee)
REM
REM compiler GCC version 9.2.1 20190827 (Red Hat 9.2.1-1)
REM options -cpp -mtune=generic -march=x86-64 -g -O0 -fpre-include=/usr/include/finclude/math-vector-fortran.h
REM seed 1807758457 -1559118208 -179372019 -1088179945 -1823702139 -1435418430 162764694 616410608 981046286 -950531190 -1099167227 -1871505741 2026869346 -1683720398 -1196514709 -478409793 -854210742 -1483702720 1736116881 1480068905 1945916826 -1777756821 1987575473 1216043778 2046411535 1234138277 -84062571 -1213368978 -1369983324 851029543 1103076501 -671586763 -436826591
REM
CELL 1.54180   50.00000   50.00000   50.00000   90.00000   90.00000   90.00000
LATT -1
SFAC C  
C      1  0.4520960000000  0.5071720000000  0.5222080000000 1.0
C      1  0.4533530000000  0.4788350000000  0.5238750000000 1.0
C      1  0.4679170000000  0.4562530000000  0.5132880000000 1.0
C      1  0.4953000000000  0.4480040000000  0.5220120000000 1.0
C      1  0.5187260000000  0.4624270000000  0.5119420000000 1.0
C      1  0.5461740000000  0.4704840000000  0.5220750000000 1.0
C      1  0.5580560000000  0.4979360000000  0.5155120000000 1.0
C      1  0.5498490000000  0.5241200000000  0.5275500000000 1.0
C      1  0.5332410000000  0.5479730000000  0.5195700000000 1.0
C      1  0.4817430000000  0.5615750000000  0.5244920000000 1.0
C      1  0.4578180000000  0.5464810000000  0.5227740000000 1.0
C      1  0.4583870000000  0.5609560000000  0.4704530000000 1.0
C      1  0.4302520000000  0.5279890000000  0.4731230000000 1.0
C      1  0.4271780000000  0.4862780000000  0.4723230000000 1.0
C      1  0.4461990000000  0.4479100000000  0.4727300000000 1.0
C      1  0.4870020000000  0.4315070000000  0.4633790000000 1.0
C      1  0.5273820000000  0.4328610000000  0.4782190000000 1.0
C      1  0.5504750000000  0.4506080000000  0.4708410000000 1.0
C      1  0.5750850000000  0.4929550000000  0.4717870000000 1.0
C      1  0.5642720000000  0.5354950000000  0.4694370000000 1.0
C      1  0.5347990000000  0.5604180000000  0.4764890000000 1.0
C      1  0.4967450000000  0.5683570000000  0.4720710000000 1.0
C      1  0.5860570000000  0.5356050000000  0.4884730000000 1.0
C      1  0.5541200000000  0.5755360000000  0.4882340000000 1.0
C      1  0.5031850000000  0.5901150000000  0.4877660000000 1.0
C      1  0.4529840000000  0.5810730000000  0.4886300000000 1.0
C      1  0.4160500000000  0.5436930000000  0.4904020000000 1.0
C      1  0.4067840000000  0.4927990000000  0.4902050000000 1.0
C      1  0.4264810000000  0.4414410000000  0.4889800000000 1.0
C      1  0.4741360000000  0.4160000000000  0.4850290000000 1.0
C      1  0.5247120000000  0.4066790000000  0.4890400000000 1.0
C      1  0.5655620000000  0.4366030000000  0.4892190000000 1.0
C      1  0.5948910000000  0.4840100000000  0.4870390000000 1.0
C      1  0.4017540000000  0.5368390000000  0.5143170000000 1.0
C      1  0.3983760000000  0.4785630000000  0.5138420000000 1.0
C      1  0.4348580000000  0.4319150000000  0.5154420000000 1.0
C      1  0.4838010000000  0.4125220000000  0.5119590000000 1.0
C      1  0.5357450000000  0.3994750000000  0.5148330000000 1.0
C      1  0.5724460000000  0.4462530000000  0.5148880000000 1.0
C      1  0.5927060000000  0.4942990000000  0.5147180000000 1.0
C      1  0.5912470000000  0.5508310000000  0.5119940000000 1.0
C      1  0.5462610000000  0.5812340000000  0.5154410000000 1.0
C      1  0.4916010000000  0.5917470000000  0.5140800000000 1.0
C      1  0.4416040000000  0.5757170000000  0.5158660000000 1.0
C      1  0.5220900000000  0.4566290000000  0.5930380000000 1.0
C      1  0.5471960000000  0.4732300000000  0.6044070000000 1.0
C      1  0.5556380000000  0.5013530000000  0.6012730000000 1.0
C      1  0.5436440000000  0.5309550000000  0.5988150000000 1.0
C      1  0.5206960000000  0.5497610000000  0.6017000000000 1.0
C      1  0.4900320000000  0.5510290000000  0.5969880000000 1.0
C      1  0.4629870000000  0.5379670000000  0.6015150000000 1.0
C      1  0.4508090000000  0.5119300000000  0.5985360000000 1.0
C      1  0.4512590000000  0.4836840000000  0.5978110000000 1.0
C      1  0.4674360000000  0.4606620000000  0.5984230000000 1.0
C      1  0.4930100000000  0.4478970000000  0.6018460000000 1.0
C      1  0.5318740000000  0.4246460000000  0.4110480000000 1.0
C      1  0.5573750000000  0.4565410000000  0.4106040000000 1.0
C      1  0.5811100000000  0.4985850000000  0.4097480000000 1.0
C      1  0.5662810000000  0.5473650000000  0.4088550000000 1.0
C      1  0.5394730000000  0.5596120000000  0.4089780000000 1.0
C      1  0.4963340000000  0.5828960000000  0.4084350000000 1.0
C      1  0.4539920000000  0.5586350000000  0.4121740000000 1.0
C      1  0.4262740000000  0.5282080000000  0.4128830000000 1.0
C      1  0.4287420000000  0.4823320000000  0.4134350000000 1.0
C      1  0.4449030000000  0.4380020000000  0.4096350000000 1.0
C      1  0.4861400000000  0.4246100000000  0.4090290000000 1.0
C      1  0.4531810000000  0.5100460000000  0.5494020000000 1.0
C      1  0.4562720000000  0.4814410000000  0.5533740000000 1.0
C      1  0.4781620000000  0.4673850000000  0.5547810000000 1.0
C      1  0.4979980000000  0.4523710000000  0.5507120000000 1.0
C      1  0.5208740000000  0.4600230000000  0.5641540000000 1.0
C      1  0.5400440000000  0.4743830000000  0.5508800000000 1.0
C      1  0.5360320000000  0.4991970000000  0.5572260000000 1.0
C      1  0.5369400000000  0.5252650000000  0.5536470000000 1.0
C      1  0.5181510000000  0.5439750000000  0.5442040000000 1.0
C      1  0.4904510000000  0.5476260000000  0.5477190000000 1.0
C      1  0.4645880000000  0.5344390000000  0.5489770000000 1.0
C      1  0.4408670000000  0.4300740000000  0.5646000000000 1.0
C      1  0.4864440000000  0.4078910000000  0.5660000000000 1.0
C      1  0.5387980000000  0.4120110000000  0.5658980000000 1.0
C      1  0.5791120000000  0.4493360000000  0.5666770000000 1.0
C      1  0.5959410000000  0.4993320000000  0.5653010000000 1.0
C      1  0.5800920000000  0.5508710000000  0.5651340000000 1.0
C      1  0.5403030000000  0.5858990000000  0.5656840000000 1.0
C      1  0.4871920000000  0.5953540000000  0.5661220000000 1.0
C      1  0.4381770000000  0.5720290000000  0.5669940000000 1.0
C      1  0.4115580000000  0.5255930000000  0.5652690000000 1.0
C      1  0.4108070000000  0.4745060000000  0.5642040000000 1.0
C      1  0.5567320000000  0.4059150000000  0.4538560000000 1.0
C      1  0.5964920000000  0.4580190000000  0.4491970000000 1.0
C      1  0.6076450000000  0.5172950000000  0.4512780000000 1.0
C      1  0.5762590000000  0.5798380000000  0.4485990000000 1.0
C      1  0.5289150000000  0.6049070000000  0.4501590000000 1.0
C      1  0.4750880000000  0.6039900000000  0.4538030000000 1.0
C      1  0.4189940000000  0.5718330000000  0.4519650000000 1.0
C      1  0.3908300000000  0.5110020000000  0.4498060000000 1.0
C      1  0.4042710000000  0.4530360000000  0.4503990000000 1.0
C      1  0.4425320000000  0.4068590000000  0.4510890000000 1.0
C      1  0.5047500000000  0.3896240000000  0.4486250000000 1.0
C      1  0.6142930000000  0.5138910000000  0.5078970000000 1.0
C      1  0.5907140000000  0.5784300000000  0.5054120000000 1.0
C      1  0.5343490000000  0.6078570000000  0.5063310000000 1.0
C      1  0.4705300000000  0.6119820000000  0.5086420000000 1.0
C      1  0.4126420000000  0.5793630000000  0.5088410000000 1.0
C      1  0.3807550000000  0.5192390000000  0.5065640000000 1.0
C      1  0.3921060000000  0.4515960000000  0.5072570000000 1.0
C      1  0.4389350000000  0.4038480000000  0.5073910000000 1.0
C      1  0.4943300000000  0.3850010000000  0.5065170000000 1.0
C      1  0.5636880000000  0.3990900000000  0.5089940000000 1.0
C      1  0.6018990000000  0.4497750000000  0.5062300000000 1.0
C      1  0.4466360000000  0.5542690000000  0.5854140000000 1.0
C      1  0.4231690000000  0.5124820000000  0.5887040000000 1.0
C      1  0.4227380000000  0.4831440000000  0.5890340000000 1.0
C      1  0.4555540000000  0.4347030000000  0.5894920000000 1.0
C      1  0.4826980000000  0.4226240000000  0.5914030000000 1.0
C      1  0.5382680000000  0.4313760000000  0.5861430000000 1.0
C      1  0.5670780000000  0.4611030000000  0.5894540000000 1.0
C      1  0.5764580000000  0.5027910000000  0.5835030000000 1.0
C      1  0.5597820000000  0.5460080000000  0.5832270000000 1.0
C      1  0.5270440000000  0.5722600000000  0.5859530000000 1.0
C      1  0.4839450000000  0.5748850000000  0.5839900000000 1.0
C      1  0.6049730000000  0.4583350000000  0.4781830000000 1.0
C      1  0.6103560000000  0.5224930000000  0.4802840000000 1.0
C      1  0.5797140000000  0.5833730000000  0.4779550000000 1.0
C      1  0.5235040000000  0.6087840000000  0.4786370000000 1.0
C      1  0.4635840000000  0.6072720000000  0.4804320000000 1.0
C      1  0.4112540000000  0.5712020000000  0.4808450000000 1.0
C      1  0.3856700000000  0.5093110000000  0.4792170000000 1.0
C      1  0.3996090000000  0.4460440000000  0.4792990000000 1.0
C      1  0.4495220000000  0.4030560000000  0.4797630000000 1.0
C      1  0.5057160000000  0.3867890000000  0.4783730000000 1.0
C      1  0.5672910000000  0.4093030000000  0.4813070000000 1.0
C      1  0.5227480000000  0.5363270000000  0.4912670000000 1.0
C      1  0.4962790000000  0.5425400000000  0.4818570000000 1.0
C      1  0.4717340000000  0.5366170000000  0.4764320000000 1.0
C      1  0.4548790000000  0.5157590000000  0.4786980000000 1.0
C      1  0.4546650000000  0.4888130000000  0.4762280000000 1.0
C      1  0.4664420000000  0.4634100000000  0.4848660000000 1.0
C      1  0.4904420000000  0.4597250000000  0.4719860000000 1.0
C      1  0.5125290000000  0.4690490000000  0.4858180000000 1.0
C      1  0.5348160000000  0.4757290000000  0.4714880000000 1.0
C      1  0.5497360000000  0.4971980000000  0.4835290000000 1.0
C      1  0.5405430000000  0.5211110000000  0.4746690000000 1.0
C      1  0.5449210000000  0.5317410000000  0.4137380000000 1.0
C      1  0.5115310000000  0.5617810000000  0.3972150000000 1.0
C      1  0.4831640000000  0.5565110000000  0.4066970000000 1.0
C      1  0.4537720000000  0.5314010000000  0.4218600000000 1.0
C      1  0.4446790000000  0.5055320000000  0.4115060000000 1.0
C      1  0.4488170000000  0.4653010000000  0.4023840000000 1.0
C      1  0.4713180000000  0.4491560000000  0.4130820000000 1.0
C      1  0.5091190000000  0.4394300000000  0.4002430000000 1.0
C      1  0.5308260000000  0.4510640000000  0.4138940000000 1.0
C      1  0.5560560000000  0.4847360000000  0.4174880000000 1.0
C      1  0.5542520000000  0.5090240000000  0.4024040000000 1.0
C      1  0.5999650000000  0.4963840000000  0.4316860000000 1.0
C      1  0.5829910000000  0.5571350000000  0.4314960000000 1.0
C      1  0.5485550000000  0.5861120000000  0.4392770000000 1.0
C      1  0.5012800000000  0.5986310000000  0.4378390000000 1.0
C      1  0.4391350000000  0.5767770000000  0.4307270000000 1.0
C      1  0.4035460000000  0.5306980000000  0.4316840000000 1.0
C      1  0.4050070000000  0.4761800000000  0.4307160000000 1.0
C      1  0.4299610000000  0.4264640000000  0.4323380000000 1.0
C      1  0.4862230000000  0.4023020000000  0.4293710000000 1.0
C      1  0.5292880000000  0.4073730000000  0.4385790000000 1.0
C      1  0.5789470000000  0.4453260000000  0.4291580000000 1.0
C      1  0.5780730000000  0.4815970000000  0.4467300000000 1.0
C      1  0.5832770000000  0.5329330000000  0.4475690000000 1.0
C      1  0.5321530000000  0.5620950000000  0.4485070000000 1.0
C      1  0.5047680000000  0.5696430000000  0.4456720000000 1.0
C      1  0.4626450000000  0.5783350000000  0.4478390000000 1.0
C      1  0.4222680000000  0.5425880000000  0.4505410000000 1.0
C      1  0.4157740000000  0.4954210000000  0.4492400000000 1.0
C      1  0.4334890000000  0.4501890000000  0.4486500000000 1.0
C      1  0.4678510000000  0.4188970000000  0.4442070000000 1.0
C      1  0.5151820000000  0.4286900000000  0.4536880000000 1.0
C      1  0.5600800000000  0.4334660000000  0.4470760000000 1.0
C      1  0.4184590000000  0.4475810000000  0.5542930000000 1.0
C      1  0.4595670000000  0.4102310000000  0.5531830000000 1.0
C      1  0.5120330000000  0.4005490000000  0.5543980000000 1.0
C      1  0.5650400000000  0.4242310000000  0.5551680000000 1.0
C      1  0.5961490000000  0.4701430000000  0.5543790000000 1.0
C      1  0.5965660000000  0.5273480000000  0.5544830000000 1.0
C      1  0.5676440000000  0.5758440000000  0.5541720000000 1.0
C      1  0.5160040000000  0.5993330000000  0.5546580000000 1.0
C      1  0.4590850000000  0.5933350000000  0.5557460000000 1.0
C      1  0.4165840000000  0.5536830000000  0.5557190000000 1.0
C      1  0.4013330000000  0.5007770000000  0.5528280000000 1.0
C      1  0.4603950000000  0.3987500000000  0.5262410000000 1.0
C      1  0.5138250000000  0.3864700000000  0.5290280000000 1.0
C      1  0.5716720000000  0.4190580000000  0.5280880000000 1.0
C      1  0.6047420000000  0.4693280000000  0.5272950000000 1.0
C      1  0.6073090000000  0.5329340000000  0.5284750000000 1.0
C      1  0.5732650000000  0.5849480000000  0.5276470000000 1.0
C      1  0.5148740000000  0.6059690000000  0.5270900000000 1.0
C      1  0.4536520000000  0.6007670000000  0.5289510000000 1.0
C      1  0.4047030000000  0.5608260000000  0.5298680000000 1.0
C      1  0.3861540000000  0.5001650000000  0.5281180000000 1.0
C      1  0.4092190000000  0.4394250000000  0.5280850000000 1.0
END
