TITL C-2441163-1170-1268 0.0724305959027112 125000 -23024.0561186451 0 0 164 (C1) n - 1
REM
REM in /home/bkarasulu/work/CARBON/AIRSS/Generating-Clusters/ReaxFF-fromJPCA2015/Units_Real/with-SteepDescent/Higher-Symm
REM
REM
REM
REM
REM
REM ./C.cell (1df0a924f5614ab8850e4351716899ee)
REM
REM compiler GCC version 9.2.1 20190827 (Red Hat 9.2.1-1)
REM options -cpp -mtune=generic -march=x86-64 -g -O0 -fpre-include=/usr/include/finclude/math-vector-fortran.h
REM seed -1019293015 -82048926 -956129163 -847484675 356281371 750265007 -494889217 -156240892 -1285438559 1875778353 461233282 1426719407 569915554 1960775347 382685597 -147663762 -1740242768 187450861 -2027923555 -1200347482 -1981832469 -1889784675 -1535249232 -1708935728 1593048141 612970130 1488849029 822363936 -80599445 1752197842 -1740185974 -1455369480 -1545865320
REM
CELL 1.54180   50.00000   50.00000   50.00000   90.00000   90.00000   90.00000
LATT -1
SFAC C  
C      1  0.4559310000000  0.4664590000000  0.4937740000000 1.0
C      1  0.4542200000000  0.4796920000000  0.4625850000000 1.0
C      1  0.4564530000000  0.5104740000000  0.4599460000000 1.0
C      1  0.4552900000000  0.5310510000000  0.4861010000000 1.0
C      1  0.4483340000000  0.5282560000000  0.5141530000000 1.0
C      1  0.4531660000000  0.5041700000000  0.5308420000000 1.0
C      1  0.4539470000000  0.4755370000000  0.5219750000000 1.0
C      1  0.5675770000000  0.5785660000000  0.4992970000000 1.0
C      1  0.5687270000000  0.5592710000000  0.5511760000000 1.0
C      1  0.5709850000000  0.4901140000000  0.5797650000000 1.0
C      1  0.5663490000000  0.4320740000000  0.5405880000000 1.0
C      1  0.5665530000000  0.4235500000000  0.4719770000000 1.0
C      1  0.5659540000000  0.4722380000000  0.4264790000000 1.0
C      1  0.5696860000000  0.5438870000000  0.4344520000000 1.0
C      1  0.4547070000000  0.4470320000000  0.5721460000000 1.0
C      1  0.4734190000000  0.3965530000000  0.5143740000000 1.0
C      1  0.4563960000000  0.4384970000000  0.4323840000000 1.0
C      1  0.4556590000000  0.5153490000000  0.4108740000000 1.0
C      1  0.4546310000000  0.5874600000000  0.4562660000000 1.0
C      1  0.4578570000000  0.5833770000000  0.5387810000000 1.0
C      1  0.4585240000000  0.5236430000000  0.5837330000000 1.0
C      1  0.4601730000000  0.4811620000000  0.6063710000000 1.0
C      1  0.4578740000000  0.4044640000000  0.5565960000000 1.0
C      1  0.4581890000000  0.3970720000000  0.4614620000000 1.0
C      1  0.4584320000000  0.4706860000000  0.3947900000000 1.0
C      1  0.4597090000000  0.5635380000000  0.4139860000000 1.0
C      1  0.4541250000000  0.6078420000000  0.4947120000000 1.0
C      1  0.4553180000000  0.5736930000000  0.5810820000000 1.0
C      1  0.4828760000000  0.6085180000000  0.4906420000000 1.0
C      1  0.4841190000000  0.5743670000000  0.5797930000000 1.0
C      1  0.4892150000000  0.4785560000000  0.6048480000000 1.0
C      1  0.4867520000000  0.4091110000000  0.5527000000000 1.0
C      1  0.4870570000000  0.4025110000000  0.4629880000000 1.0
C      1  0.4870190000000  0.4753370000000  0.3966590000000 1.0
C      1  0.4890420000000  0.5647380000000  0.4164170000000 1.0
C      1  0.5689640000000  0.4460180000000  0.4376640000000 1.0
C      1  0.5688390000000  0.5180650000000  0.4244840000000 1.0
C      1  0.5737910000000  0.5749620000000  0.4693760000000 1.0
C      1  0.5698380000000  0.5802330000000  0.5312520000000 1.0
C      1  0.5664200000000  0.5172250000000  0.5773170000000 1.0
C      1  0.5720830000000  0.4474290000000  0.5638240000000 1.0
C      1  0.5622930000000  0.4230800000000  0.5003970000000 1.0
C      1  0.4472610000000  0.5675770000000  0.4387070000000 1.0
C      1  0.4490610000000  0.5860880000000  0.5124120000000 1.0
C      1  0.4435810000000  0.5469740000000  0.5769470000000 1.0
C      1  0.4443420000000  0.4671520000000  0.5872280000000 1.0
C      1  0.4498340000000  0.4080030000000  0.5288690000000 1.0
C      1  0.4431090000000  0.4198020000000  0.4502480000000 1.0
C      1  0.4423130000000  0.4912630000000  0.4056260000000 1.0
C      1  0.4978740000000  0.3929450000000  0.5316230000000 1.0
C      1  0.5016730000000  0.4173130000000  0.4429730000000 1.0
C      1  0.5038630000000  0.4987530000000  0.3940590000000 1.0
C      1  0.5081820000000  0.5812150000000  0.4317450000000 1.0
C      1  0.5017820000000  0.6064270000000  0.5135120000000 1.0
C      1  0.5025260000000  0.5549590000000  0.5911850000000 1.0
C      1  0.5060760000000  0.4562220000000  0.5971200000000 1.0
C      1  0.4318890000000  0.4609500000000  0.5336120000000 1.0
C      1  0.4304440000000  0.4487030000000  0.4919780000000 1.0
C      1  0.4271930000000  0.4730100000000  0.4518900000000 1.0
C      1  0.4298750000000  0.5191690000000  0.4506170000000 1.0
C      1  0.4310210000000  0.5481620000000  0.4818790000000 1.0
C      1  0.4281540000000  0.5467970000000  0.5250520000000 1.0
C      1  0.4290690000000  0.5029890000000  0.5519870000000 1.0
C      1  0.4083760000000  0.4767950000000  0.5247540000000 1.0
C      1  0.4080750000000  0.4668550000000  0.4968330000000 1.0
C      1  0.4064550000000  0.4811700000000  0.4709680000000 1.0
C      1  0.4073350000000  0.5102420000000  0.4673650000000 1.0
C      1  0.4075750000000  0.5311430000000  0.4878150000000 1.0
C      1  0.4058040000000  0.5293490000000  0.5168440000000 1.0
C      1  0.4065120000000  0.5050130000000  0.5338410000000 1.0
C      1  0.5903420000000  0.5258230000000  0.4758900000000 1.0
C      1  0.5883030000000  0.5319460000000  0.5045400000000 1.0
C      1  0.5896990000000  0.5154080000000  0.5296960000000 1.0
C      1  0.5895900000000  0.4861660000000  0.5330560000000 1.0
C      1  0.5871260000000  0.4672570000000  0.5099980000000 1.0
C      1  0.5893590000000  0.4733300000000  0.4819470000000 1.0
C      1  0.5868870000000  0.4977950000000  0.4669000000000 1.0
C      1  0.5408600000000  0.5913030000000  0.4885550000000 1.0
C      1  0.5412230000000  0.5654460000000  0.5604780000000 1.0
C      1  0.5454410000000  0.4840110000000  0.5907700000000 1.0
C      1  0.5405130000000  0.4225420000000  0.5513320000000 1.0
C      1  0.5392140000000  0.4144060000000  0.4676370000000 1.0
C      1  0.5401260000000  0.4656980000000  0.4143960000000 1.0
C      1  0.5440220000000  0.5509490000000  0.4252840000000 1.0
C      1  0.4389270000000  0.5836500000000  0.5589310000000 1.0
C      1  0.4448990000000  0.5056110000000  0.6008360000000 1.0
C      1  0.4389090000000  0.4257420000000  0.5645130000000 1.0
C      1  0.4413690000000  0.3981430000000  0.4872660000000 1.0
C      1  0.4425880000000  0.4506280000000  0.4102640000000 1.0
C      1  0.4417610000000  0.5403880000000  0.4090030000000 1.0
C      1  0.4350920000000  0.5968650000000  0.4754240000000 1.0
C      1  0.5811540000000  0.4746780000000  0.5589910000000 1.0
C      1  0.5620690000000  0.4500450000000  0.5173190000000 1.0
C      1  0.5702340000000  0.4518680000000  0.4670890000000 1.0
C      1  0.5683970000000  0.4951780000000  0.4440690000000 1.0
C      1  0.5814930000000  0.5483520000000  0.4595460000000 1.0
C      1  0.5627580000000  0.5481930000000  0.5025550000000 1.0
C      1  0.5696490000000  0.5287080000000  0.5486590000000 1.0
C      1  0.5221580000000  0.5328480000000  0.4361570000000 1.0
C      1  0.5199930000000  0.5683610000000  0.4829900000000 1.0
C      1  0.5256190000000  0.5452120000000  0.5417250000000 1.0
C      1  0.5257090000000  0.4998590000000  0.5746980000000 1.0
C      1  0.5219290000000  0.4473750000000  0.5463100000000 1.0
C      1  0.5257580000000  0.4387000000000  0.4854390000000 1.0
C      1  0.5200480000000  0.4692850000000  0.4348100000000 1.0
C      1  0.5350380000000  0.4562030000000  0.5940590000000 1.0
C      1  0.5264840000000  0.4002530000000  0.5293520000000 1.0
C      1  0.5307470000000  0.4172750000000  0.4396960000000 1.0
C      1  0.5328500000000  0.4939800000000  0.3967560000000 1.0
C      1  0.5370510000000  0.5781050000000  0.4353790000000 1.0
C      1  0.5308510000000  0.6034590000000  0.5159950000000 1.0
C      1  0.5316810000000  0.5524790000000  0.5870740000000 1.0
C      1  0.4328250000000  0.4314870000000  0.5363840000000 1.0
C      1  0.4289790000000  0.4244580000000  0.4762940000000 1.0
C      1  0.4275410000000  0.4729360000000  0.4226230000000 1.0
C      1  0.4300050000000  0.5444540000000  0.4357950000000 1.0
C      1  0.4293420000000  0.5744890000000  0.4942750000000 1.0
C      1  0.4298360000000  0.5568440000000  0.5533120000000 1.0
C      1  0.4309120000000  0.4917810000000  0.5788290000000 1.0
C      1  0.5462100000000  0.4361270000000  0.4230840000000 1.0
C      1  0.5473040000000  0.5146820000000  0.4066220000000 1.0
C      1  0.5507680000000  0.5884010000000  0.4591420000000 1.0
C      1  0.5450880000000  0.5921290000000  0.5388520000000 1.0
C      1  0.5405930000000  0.5252490000000  0.5878370000000 1.0
C      1  0.5488200000000  0.4364840000000  0.5776400000000 1.0
C      1  0.5414000000000  0.4062110000000  0.5074000000000 1.0
C      1  0.4722470000000  0.4613080000000  0.4433720000000 1.0
C      1  0.4755000000000  0.5188440000000  0.4326780000000 1.0
C      1  0.4802790000000  0.5900020000000  0.4683020000000 1.0
C      1  0.4836880000000  0.5726600000000  0.5485430000000 1.0
C      1  0.4810370000000  0.5105200000000  0.5692380000000 1.0
C      1  0.4773710000000  0.4493640000000  0.5556630000000 1.0
C      1  0.4864350000000  0.4110240000000  0.4921190000000 1.0
C      1  0.4857320000000  0.4654870000000  0.4950610000000 1.0
C      1  0.5072400000000  0.4923150000000  0.4744400000000 1.0
C      1  0.5027920000000  0.5199820000000  0.4734940000000 1.0
C      1  0.4900260000000  0.5339960000000  0.4969020000000 1.0
C      1  0.5033410000000  0.5167950000000  0.5173980000000 1.0
C      1  0.4858590000000  0.5011470000000  0.5349790000000 1.0
C      1  0.4951650000000  0.4757620000000  0.5208990000000 1.0
C      1  0.4989520000000  0.5791700000000  0.5233800000000 1.0
C      1  0.4979930000000  0.5330130000000  0.5719320000000 1.0
C      1  0.5018400000000  0.4577120000000  0.5682280000000 1.0
C      1  0.5029850000000  0.4278880000000  0.5070760000000 1.0
C      1  0.4968010000000  0.4466490000000  0.4488410000000 1.0
C      1  0.4988050000000  0.5054800000000  0.4223220000000 1.0
C      1  0.5018110000000  0.5736520000000  0.4593150000000 1.0
C      1  0.5329480000000  0.4932050000000  0.5428680000000 1.0
C      1  0.5347760000000  0.4677360000000  0.5294930000000 1.0
C      1  0.5425440000000  0.4611510000000  0.4760080000000 1.0
C      1  0.5310470000000  0.4817490000000  0.4599180000000 1.0
C      1  0.5295070000000  0.5268770000000  0.4646710000000 1.0
C      1  0.5412420000000  0.5444180000000  0.4846370000000 1.0
C      1  0.5390760000000  0.5209060000000  0.5355940000000 1.0
C      1  0.5015270000000  0.4522870000000  0.4756750000000 1.0
C      1  0.4935710000000  0.4780620000000  0.4255320000000 1.0
C      1  0.4938290000000  0.5428570000000  0.4347650000000 1.0
C      1  0.5004020000000  0.5612730000000  0.5024210000000 1.0
C      1  0.4975650000000  0.5456470000000  0.5474420000000 1.0
C      1  0.4985790000000  0.4923950000000  0.5816650000000 1.0
C      1  0.4942550000000  0.4333080000000  0.5358810000000 1.0
C      1  0.5128390000000  0.4933270000000  0.5029560000000 1.0
C      1  0.5422150000000  0.4972810000000  0.5031250000000 1.0
C      1  0.5634730000000  0.5003520000000  0.5033810000000 1.0
END
