TITL C-2441156-4686-978 0.00778985256080191 125000 -11012.2978793555 0 0 76 (C1) n - 1
REM
REM in /home/bkarasulu/work/CARBON/AIRSS/Generating-Clusters/ReaxFF-fromJPCA2015/Units_Real/with-SteepDescent/Higher-Symm
REM
REM
REM
REM
REM
REM ./C.cell (1df0a924f5614ab8850e4351716899ee)
REM
REM compiler GCC version 9.2.1 20190827 (Red Hat 9.2.1-1)
REM options -cpp -mtune=generic -march=x86-64 -g -O0 -fpre-include=/usr/include/finclude/math-vector-fortran.h
REM seed 1413197784 1726705579 -1429513387 158986421 593316244 -1811179987 -2083439196 1937870732 1192503854 -65569947 -1267276106 -1180325974 455460131 1408723736 438597697 -140732828 -1051606857 1028152339 -991582472 1634796566 1067620903 1375969450 313515275 239153070 416313546 1483559967 -523660863 -1739306685 -1967852672 -2111676090 -95507678 -1987009239 60622267
REM
CELL 1.54180   50.00000   50.00000   50.00000   90.00000   90.00000   90.00000
LATT -1
SFAC C  
C      1  0.4249410000000  0.5078260000000  0.5290860000000 1.0
C      1  0.5032910000000  0.5252840000000  0.4252420000000 1.0
C      1  0.5289510000000  0.4251210000000  0.5077070000000 1.0
C      1  0.5720820000000  0.4915380000000  0.5301720000000 1.0
C      1  0.4266680000000  0.4970710000000  0.4727690000000 1.0
C      1  0.5726240000000  0.5094670000000  0.4674310000000 1.0
C      1  0.4908170000000  0.4702850000000  0.4248240000000 1.0
C      1  0.5088200000000  0.4704850000000  0.5730440000000 1.0
C      1  0.4960860000000  0.5258710000000  0.5751140000000 1.0
C      1  0.4685810000000  0.5747190000000  0.5094340000000 1.0
C      1  0.5291880000000  0.5747880000000  0.4907670000000 1.0
C      1  0.4739260000000  0.4245470000000  0.4956060000000 1.0
C      1  0.5042590000000  0.4246110000000  0.5253740000000 1.0
C      1  0.5280470000000  0.5075010000000  0.4255470000000 1.0
C      1  0.4280340000000  0.5246900000000  0.5048440000000 1.0
C      1  0.4886000000000  0.5737550000000  0.5308410000000 1.0
C      1  0.4915560000000  0.4244670000000  0.4707500000000 1.0
C      1  0.5101160000000  0.5740140000000  0.4686750000000 1.0
C      1  0.4740210000000  0.4950000000000  0.4273170000000 1.0
C      1  0.4710900000000  0.5084260000000  0.5744210000000 1.0
C      1  0.5256350000000  0.4957420000000  0.5753580000000 1.0
C      1  0.5732090000000  0.4687630000000  0.5097370000000 1.0
C      1  0.5674440000000  0.5308070000000  0.4881570000000 1.0
C      1  0.4278390000000  0.4715680000000  0.4897480000000 1.0
C      1  0.4861160000000  0.5523080000000  0.5744740000000 1.0
C      1  0.5565840000000  0.5714470000000  0.4848830000000 1.0
C      1  0.5687710000000  0.4853040000000  0.5568280000000 1.0
C      1  0.5167470000000  0.4444360000000  0.5684870000000 1.0
C      1  0.4810530000000  0.4445190000000  0.4283520000000 1.0
C      1  0.5136740000000  0.5516050000000  0.4255380000000 1.0
C      1  0.4481910000000  0.4270820000000  0.4843590000000 1.0
C      1  0.5551350000000  0.4279300000000  0.5170410000000 1.0
C      1  0.4416320000000  0.5699420000000  0.5146660000000 1.0
C      1  0.4286620000000  0.5180380000000  0.5546510000000 1.0
C      1  0.5737160000000  0.5190620000000  0.4405430000000 1.0
C      1  0.4288530000000  0.4891250000000  0.4454080000000 1.0
C      1  0.5521380000000  0.4866170000000  0.5746620000000 1.0
C      1  0.5745940000000  0.5566860000000  0.4816470000000 1.0
C      1  0.4830250000000  0.5697760000000  0.5574780000000 1.0
C      1  0.4455770000000  0.5184030000000  0.5711620000000 1.0
C      1  0.4468280000000  0.4885460000000  0.4303500000000 1.0
C      1  0.5544260000000  0.5164320000000  0.4275880000000 1.0
C      1  0.4315320000000  0.4453830000000  0.4819190000000 1.0
C      1  0.4274240000000  0.5513290000000  0.5129340000000 1.0
C      1  0.5734200000000  0.4422970000000  0.5195760000000 1.0
C      1  0.5149660000000  0.4265630000000  0.5514180000000 1.0
C      1  0.5164120000000  0.5693540000000  0.4422330000000 1.0
C      1  0.4814010000000  0.4279890000000  0.4451810000000 1.0
C      1  0.4878900000000  0.4688900000000  0.5523290000000 1.0
C      1  0.4691550000000  0.5550720000000  0.4883530000000 1.0
C      1  0.5530590000000  0.4869320000000  0.4672780000000 1.0
C      1  0.5106590000000  0.5312780000000  0.5495710000000 1.0
C      1  0.4894240000000  0.5308350000000  0.4509290000000 1.0
C      1  0.5117850000000  0.4662170000000  0.4455250000000 1.0
C      1  0.5326470000000  0.4461440000000  0.4871850000000 1.0
C      1  0.4686750000000  0.4493710000000  0.5117240000000 1.0
C      1  0.5298080000000  0.5546940000000  0.5114510000000 1.0
C      1  0.4495020000000  0.5151360000000  0.4686420000000 1.0
C      1  0.5516950000000  0.5124570000000  0.5309990000000 1.0
C      1  0.4460780000000  0.4875730000000  0.5330800000000 1.0
C      1  0.4674270000000  0.4884880000000  0.5530010000000 1.0
C      1  0.5536250000000  0.4673530000000  0.4874400000000 1.0
C      1  0.4890940000000  0.5539590000000  0.4685360000000 1.0
C      1  0.5312330000000  0.5125470000000  0.5509410000000 1.0
C      1  0.5315800000000  0.4871810000000  0.4467680000000 1.0
C      1  0.4736610000000  0.5077860000000  0.4549760000000 1.0
C      1  0.4572240000000  0.5284550000000  0.4925680000000 1.0
C      1  0.4469690000000  0.4686540000000  0.5121090000000 1.0
C      1  0.5428790000000  0.5284120000000  0.5078130000000 1.0
C      1  0.5120240000000  0.4455230000000  0.4668560000000 1.0
C      1  0.5096280000000  0.5536080000000  0.5308760000000 1.0
C      1  0.4880210000000  0.4493700000000  0.5309540000000 1.0
C      1  0.4840960000000  0.5100930000000  0.5006000000000 1.0
C      1  0.5152190000000  0.5099850000000  0.5012500000000 1.0
C      1  0.5158360000000  0.4836570000000  0.5036900000000 1.0
C      1  0.4835770000000  0.4868560000000  0.4834360000000 1.0
END
