TITL C-2441158-471-1386 0.02695797907629 125000 -14899.1739734109 0 0 105 (C1) n - 1
REM
REM in /home/bkarasulu/work/CARBON/AIRSS/Generating-Clusters/ReaxFF-fromJPCA2015/Units_Real/with-SteepDescent/Higher-Symm
REM
REM
REM
REM
REM
REM ./C.cell (1df0a924f5614ab8850e4351716899ee)
REM
REM compiler GCC version 9.2.1 20190827 (Red Hat 9.2.1-1)
REM options -cpp -mtune=generic -march=x86-64 -g -O0 -fpre-include=/usr/include/finclude/math-vector-fortran.h
REM seed 646518101 950148410 1374567332 1414097777 169796459 842758623 -1033089453 222578903 388567598 -149993374 387676581 672350138 940014908 1253152728 -1433153530 -764250225 1362968059 -470874325 -1362771124 -896060692 2141914151 2059604443 -1590883230 919011359 920274430 -116046270 1518938726 -578385724 -1168393539 -967485610 -2003297327 123825851 -518505193
REM
CELL 1.54180   50.00000   50.00000   50.00000   90.00000   90.00000   90.00000
LATT -1
SFAC C  
C      1  0.5375250000000  0.5107680000000  0.4434030000000 1.0
C      1  0.5830220000000  0.5360790000000  0.5357140000000 1.0
C      1  0.4514720000000  0.4179440000000  0.4787860000000 1.0
C      1  0.4720990000000  0.5392130000000  0.4310860000000 1.0
C      1  0.4508390000000  0.4493160000000  0.5166260000000 1.0
C      1  0.4825740000000  0.5409250000000  0.5353850000000 1.0
C      1  0.5132180000000  0.5227540000000  0.5360180000000 1.0
C      1  0.4774020000000  0.5651300000000  0.4537410000000 1.0
C      1  0.5418090000000  0.5847080000000  0.4838890000000 1.0
C      1  0.5191950000000  0.5922290000000  0.4988960000000 1.0
C      1  0.5362710000000  0.4855420000000  0.5220420000000 1.0
C      1  0.5487630000000  0.4607320000000  0.4400560000000 1.0
C      1  0.5569780000000  0.5698080000000  0.5046860000000 1.0
C      1  0.5783080000000  0.5240690000000  0.4686770000000 1.0
C      1  0.5052930000000  0.5185420000000  0.5821110000000 1.0
C      1  0.5154410000000  0.5682110000000  0.5125510000000 1.0
C      1  0.4634260000000  0.5119400000000  0.4671020000000 1.0
C      1  0.5160980000000  0.4808990000000  0.5667470000000 1.0
C      1  0.5395450000000  0.4223670000000  0.5186880000000 1.0
C      1  0.4775480000000  0.4470390000000  0.4416590000000 1.0
C      1  0.5482600000000  0.4510770000000  0.4896240000000 1.0
C      1  0.4973130000000  0.4659810000000  0.5042110000000 1.0
C      1  0.4741460000000  0.4656860000000  0.5232180000000 1.0
C      1  0.4751370000000  0.4300440000000  0.5499790000000 1.0
C      1  0.4894140000000  0.5207900000000  0.4156900000000 1.0
C      1  0.4165640000000  0.4766790000000  0.5353100000000 1.0
C      1  0.5223680000000  0.4249390000000  0.4651030000000 1.0
C      1  0.5210240000000  0.4179380000000  0.4945510000000 1.0
C      1  0.5270810000000  0.4632630000000  0.5060560000000 1.0
C      1  0.5871350000000  0.4714050000000  0.5030310000000 1.0
C      1  0.5514970000000  0.5104840000000  0.5613400000000 1.0
C      1  0.4415450000000  0.4700100000000  0.4663050000000 1.0
C      1  0.4783580000000  0.5446950000000  0.5073430000000 1.0
C      1  0.5037840000000  0.4354310000000  0.4439030000000 1.0
C      1  0.5637160000000  0.4312430000000  0.5057070000000 1.0
C      1  0.4699200000000  0.4745690000000  0.4306690000000 1.0
C      1  0.4645850000000  0.4884800000000  0.5824810000000 1.0
C      1  0.5980930000000  0.4965600000000  0.5053940000000 1.0
C      1  0.5452350000000  0.5461330000000  0.4963720000000 1.0
C      1  0.5061230000000  0.5745490000000  0.4519620000000 1.0
C      1  0.4860460000000  0.4917400000000  0.4108850000000 1.0
C      1  0.4786300000000  0.5167320000000  0.5852440000000 1.0
C      1  0.5252560000000  0.5019320000000  0.4184370000000 1.0
C      1  0.4266060000000  0.5064900000000  0.4397580000000 1.0
C      1  0.5004700000000  0.5476720000000  0.4637800000000 1.0
C      1  0.4268970000000  0.4648850000000  0.5105500000000 1.0
C      1  0.4302610000000  0.4840330000000  0.4887460000000 1.0
C      1  0.5120250000000  0.4787800000000  0.4103160000000 1.0
C      1  0.5647130000000  0.4587740000000  0.5429500000000 1.0
C      1  0.4946210000000  0.4427910000000  0.5675000000000 1.0
C      1  0.4478270000000  0.5090480000000  0.5431890000000 1.0
C      1  0.4474200000000  0.5286370000000  0.4456040000000 1.0
C      1  0.5144400000000  0.4934320000000  0.5407300000000 1.0
C      1  0.5295630000000  0.5042150000000  0.5805050000000 1.0
C      1  0.4732720000000  0.5437390000000  0.5742420000000 1.0
C      1  0.5117310000000  0.5194160000000  0.5057240000000 1.0
C      1  0.5262760000000  0.4959730000000  0.4678620000000 1.0
C      1  0.4399020000000  0.4904450000000  0.5681180000000 1.0
C      1  0.4239980000000  0.5514640000000  0.5094430000000 1.0
C      1  0.5599140000000  0.4873470000000  0.4404270000000 1.0
C      1  0.4559150000000  0.5390230000000  0.5479630000000 1.0
C      1  0.5350620000000  0.5052240000000  0.4936150000000 1.0
C      1  0.4656790000000  0.5188110000000  0.4936610000000 1.0
C      1  0.4840950000000  0.4952200000000  0.4541240000000 1.0
C      1  0.4528090000000  0.4455440000000  0.5634900000000 1.0
C      1  0.5576010000000  0.5229280000000  0.4905010000000 1.0
C      1  0.4572600000000  0.5711400000000  0.4777900000000 1.0
C      1  0.4191160000000  0.5062130000000  0.5341020000000 1.0
C      1  0.5438060000000  0.5452580000000  0.4450180000000 1.0
C      1  0.5461340000000  0.4410700000000  0.4618100000000 1.0
C      1  0.4946120000000  0.5232690000000  0.4427010000000 1.0
C      1  0.5591780000000  0.5559570000000  0.5354870000000 1.0
C      1  0.4631300000000  0.4465110000000  0.4679720000000 1.0
C      1  0.4707220000000  0.4930330000000  0.5290540000000 1.0
C      1  0.4528550000000  0.4201070000000  0.5072390000000 1.0
C      1  0.5804230000000  0.4496710000000  0.5207800000000 1.0
C      1  0.4119210000000  0.5242670000000  0.5125310000000 1.0
C      1  0.4901440000000  0.4520180000000  0.4823990000000 1.0
C      1  0.5406350000000  0.5725420000000  0.5569940000000 1.0
C      1  0.4941620000000  0.4257320000000  0.4996160000000 1.0
C      1  0.4234820000000  0.5441510000000  0.4580380000000 1.0
C      1  0.5346620000000  0.5712130000000  0.4544600000000 1.0
C      1  0.5189390000000  0.4601010000000  0.4352550000000 1.0
C      1  0.5414100000000  0.5318680000000  0.5444850000000 1.0
C      1  0.4126700000000  0.5078140000000  0.4884150000000 1.0
C      1  0.4725030000000  0.4605180000000  0.5794540000000 1.0
C      1  0.4896760000000  0.5607460000000  0.5569260000000 1.0
C      1  0.5948310000000  0.4836560000000  0.4795620000000 1.0
C      1  0.5048620000000  0.5455080000000  0.4959710000000 1.0
C      1  0.4306640000000  0.4645400000000  0.5583170000000 1.0
C      1  0.4104470000000  0.5184780000000  0.4613070000000 1.0
C      1  0.5217410000000  0.4517780000000  0.5619510000000 1.0
C      1  0.4407740000000  0.4812520000000  0.4406490000000 1.0
C      1  0.5635790000000  0.4893280000000  0.5433740000000 1.0
C      1  0.4446820000000  0.5594830000000  0.5268240000000 1.0
C      1  0.4622490000000  0.5714980000000  0.5064260000000 1.0
C      1  0.5850010000000  0.5079370000000  0.5289230000000 1.0
C      1  0.5146850000000  0.5704730000000  0.5444330000000 1.0
C      1  0.4783520000000  0.4176210000000  0.5232300000000 1.0
C      1  0.4302990000000  0.5613290000000  0.4805250000000 1.0
C      1  0.5814140000000  0.4966250000000  0.4571880000000 1.0
C      1  0.4860630000000  0.5013250000000  0.5053090000000 1.0
C      1  0.5412750000000  0.4414270000000  0.5426240000000 1.0
C      1  0.5064650000000  0.4761320000000  0.4630450000000 1.0
C      1  0.5660270000000  0.5459440000000  0.4563450000000 1.0
END
