TITL C-2441161-5029-1397 0.0554602036687141 125000 -9661.45810988728 0 0 74 (C1) n - 1
REM
REM in /home/bkarasulu/work/CARBON/AIRSS/Generating-Clusters/ReaxFF-fromJPCA2015/Units_Real/with-SteepDescent/Higher-Symm
REM
REM
REM
REM
REM
REM ./C.cell (1df0a924f5614ab8850e4351716899ee)
REM
REM compiler GCC version 9.2.1 20190827 (Red Hat 9.2.1-1)
REM options -cpp -mtune=generic -march=x86-64 -g -O0 -fpre-include=/usr/include/finclude/math-vector-fortran.h
REM seed 18123353 666176523 -2022704367 -778454865 -1135257740 1941483069 -1662048280 -1713624571 -1967530438 1086682457 -1484050472 293824442 -1942470268 671039373 -1697564985 38869177 -966234105 -1204872755 850706866 -676270324 1025316712 -227176417 -816870353 -94348044 -337560181 -885375055 -1722478946 318266632 1963817470 -1710830210 2046731346 -581349219 -502984070
REM
CELL 1.54180   50.00000   50.00000   50.00000   90.00000   90.00000   90.00000
LATT -1
SFAC C  
C      1  0.4627530000000  0.4510520000000  0.4544230000000 1.0
C      1  0.5343230000000  0.4501360000000  0.4483750000000 1.0
C      1  0.5599070000000  0.4508990000000  0.5145310000000 1.0
C      1  0.5043580000000  0.4504990000000  0.5627560000000 1.0
C      1  0.4449730000000  0.4519050000000  0.5235160000000 1.0
C      1  0.5398580000000  0.5482300000000  0.4543660000000 1.0
C      1  0.4670550000000  0.5497490000000  0.4492320000000 1.0
C      1  0.4419290000000  0.5490730000000  0.5155870000000 1.0
C      1  0.4961130000000  0.5485560000000  0.5606230000000 1.0
C      1  0.5565990000000  0.5487760000000  0.5223070000000 1.0
C      1  0.4764750000000  0.4228780000000  0.4977720000000 1.0
C      1  0.4968070000000  0.4212940000000  0.4772070000000 1.0
C      1  0.5227230000000  0.4205370000000  0.4890580000000 1.0
C      1  0.5181490000000  0.4218890000000  0.5172140000000 1.0
C      1  0.4899140000000  0.4231670000000  0.5229410000000 1.0
C      1  0.5244240000000  0.5786890000000  0.4971860000000 1.0
C      1  0.5050740000000  0.5785720000000  0.4759980000000 1.0
C      1  0.4794140000000  0.5779180000000  0.4892860000000 1.0
C      1  0.4829900000000  0.5784400000000  0.5178130000000 1.0
C      1  0.5111440000000  0.5788010000000  0.5227590000000 1.0
C      1  0.5129430000000  0.5587110000000  0.4568360000000 1.0
C      1  0.5398110000000  0.5539580000000  0.4986710000000 1.0
C      1  0.5146590000000  0.5543880000000  0.5384350000000 1.0
C      1  0.4707540000000  0.5525100000000  0.5241930000000 1.0
C      1  0.4666110000000  0.5541620000000  0.4782130000000 1.0
C      1  0.4907680000000  0.4447380000000  0.4607920000000 1.0
C      1  0.4552030000000  0.4421130000000  0.4985190000000 1.0
C      1  0.4844940000000  0.4422930000000  0.5434330000000 1.0
C      1  0.5331840000000  0.4453100000000  0.5252480000000 1.0
C      1  0.5323200000000  0.4469460000000  0.4793650000000 1.0
C      1  0.5408420000000  0.5430030000000  0.5456590000000 1.0
C      1  0.4686670000000  0.5429550000000  0.5527160000000 1.0
C      1  0.4400170000000  0.5453380000000  0.4868670000000 1.0
C      1  0.4939310000000  0.5472520000000  0.4382530000000 1.0
C      1  0.5571570000000  0.5418160000000  0.4770340000000 1.0
C      1  0.4608220000000  0.4584400000000  0.5468110000000 1.0
C      1  0.5316680000000  0.4546270000000  0.5528900000000 1.0
C      1  0.5611380000000  0.4564160000000  0.4860760000000 1.0
C      1  0.5078310000000  0.4520780000000  0.4373200000000 1.0
C      1  0.4443550000000  0.4571640000000  0.4760530000000 1.0
C      1  0.4558730000000  0.5230240000000  0.4524020000000 1.0
C      1  0.5310330000000  0.5227720000000  0.4451660000000 1.0
C      1  0.5659790000000  0.5228910000000  0.5126700000000 1.0
C      1  0.5090810000000  0.5230840000000  0.5645140000000 1.0
C      1  0.4416080000000  0.5229470000000  0.5281950000000 1.0
C      1  0.5453410000000  0.4762460000000  0.4532880000000 1.0
C      1  0.4701150000000  0.4764110000000  0.4439630000000 1.0
C      1  0.4379790000000  0.4772900000000  0.5129590000000 1.0
C      1  0.4921780000000  0.4766930000000  0.5661960000000 1.0
C      1  0.5599240000000  0.4764950000000  0.5282060000000 1.0
C      1  0.4355230000000  0.4835740000000  0.4846380000000 1.0
C      1  0.4980970000000  0.4795960000000  0.4344770000000 1.0
C      1  0.5625170000000  0.4853060000000  0.4777070000000 1.0
C      1  0.5411140000000  0.4833080000000  0.5505460000000 1.0
C      1  0.4648030000000  0.4839080000000  0.5601480000000 1.0
C      1  0.5689850000000  0.5164680000000  0.4846240000000 1.0
C      1  0.5029780000000  0.5196390000000  0.4348380000000 1.0
C      1  0.4392070000000  0.5162900000000  0.4771220000000 1.0
C      1  0.4601110000000  0.5134860000000  0.5510190000000 1.0
C      1  0.5362950000000  0.5162660000000  0.5561050000000 1.0
C      1  0.4930360000000  0.5110290000000  0.5438000000000 1.0
C      1  0.4549830000000  0.5127770000000  0.5046570000000 1.0
C      1  0.4823230000000  0.5128730000000  0.4564770000000 1.0
C      1  0.5250160000000  0.5100130000000  0.4700880000000 1.0
C      1  0.5380500000000  0.5114370000000  0.5180030000000 1.0
C      1  0.5081760000000  0.4872990000000  0.5445290000000 1.0
C      1  0.5467350000000  0.4879740000000  0.5062060000000 1.0
C      1  0.5183000000000  0.4862030000000  0.4565760000000 1.0
C      1  0.4725730000000  0.4897630000000  0.4695340000000 1.0
C      1  0.4650270000000  0.4885990000000  0.5138190000000 1.0
C      1  0.5066850000000  0.4617590000000  0.4943600000000 1.0
C      1  0.5003610000000  0.5414580000000  0.5028820000000 1.0
C      1  0.5128640000000  0.5156900000000  0.4981730000000 1.0
C      1  0.4908740000000  0.4846550000000  0.4969470000000 1.0
END
