TITL C-2441167-4473-1014 0.0796346372881645 125000 -20742.9022209132 0 0 152 (C1) n - 1
REM
REM in /home/bkarasulu/work/CARBON/AIRSS/Generating-Clusters/ReaxFF-fromJPCA2015/Units_Real/with-SteepDescent/Higher-Symm
REM
REM
REM
REM
REM
REM ./C.cell (1df0a924f5614ab8850e4351716899ee)
REM
REM compiler GCC version 9.2.1 20190827 (Red Hat 9.2.1-1)
REM options -cpp -mtune=generic -march=x86-64 -g -O0 -fpre-include=/usr/include/finclude/math-vector-fortran.h
REM seed -1260860814 -683008743 1246799341 -1913094625 1458352282 -902201454 -467116821 -1275831844 -1645856121 544756436 -1862365423 332464233 442994407 -1360219756 1890198234 1587780523 1947460334 568740078 -1214398339 -1022468030 892765597 -260643705 2105736188 -825678191 -1839672364 -319553357 -1870470638 -1781392521 -1479686900 -1951749122 -311517611 1994458240 1733396992
REM
CELL 1.54180   50.00000   50.00000   50.00000   90.00000   90.00000   90.00000
LATT -1
SFAC C  
C      1  0.5814930000000  0.4888840000000  0.4461830000000 1.0
C      1  0.5757180000000  0.5200980000000  0.5582350000000 1.0
C      1  0.5808610000000  0.4885550000000  0.5509170000000 1.0
C      1  0.5864750000000  0.5164890000000  0.4528280000000 1.0
C      1  0.4781190000000  0.4873760000000  0.5536610000000 1.0
C      1  0.4782460000000  0.5167640000000  0.4408030000000 1.0
C      1  0.4809450000000  0.4865110000000  0.4419120000000 1.0
C      1  0.4785660000000  0.5152430000000  0.5537280000000 1.0
C      1  0.5564230000000  0.4871510000000  0.4086390000000 1.0
C      1  0.5536320000000  0.5100790000000  0.5946050000000 1.0
C      1  0.5522340000000  0.4815550000000  0.5908510000000 1.0
C      1  0.5578230000000  0.5169020000000  0.4092270000000 1.0
C      1  0.5536540000000  0.5582550000000  0.5387360000000 1.0
C      1  0.5494210000000  0.4469010000000  0.4663310000000 1.0
C      1  0.5548940000000  0.5547510000000  0.4688990000000 1.0
C      1  0.5516210000000  0.4474600000000  0.5347350000000 1.0
C      1  0.5206740000000  0.4176360000000  0.4426670000000 1.0
C      1  0.5142190000000  0.5865130000000  0.5350630000000 1.0
C      1  0.5196770000000  0.4202680000000  0.5535670000000 1.0
C      1  0.5200820000000  0.5808090000000  0.4457790000000 1.0
C      1  0.4707760000000  0.6117830000000  0.4864680000000 1.0
C      1  0.4732420000000  0.3900220000000  0.5123210000000 1.0
C      1  0.4712990000000  0.6057770000000  0.5117300000000 1.0
C      1  0.4718200000000  0.3905540000000  0.4866010000000 1.0
C      1  0.5618370000000  0.4608490000000  0.4217140000000 1.0
C      1  0.5632660000000  0.5343550000000  0.5825950000000 1.0
C      1  0.5599780000000  0.4563480000000  0.5776950000000 1.0
C      1  0.5566190000000  0.5434690000000  0.4226310000000 1.0
C      1  0.4714030000000  0.4165760000000  0.4774630000000 1.0
C      1  0.4768980000000  0.5815810000000  0.5238100000000 1.0
C      1  0.4821520000000  0.4160590000000  0.5225460000000 1.0
C      1  0.4770480000000  0.5844640000000  0.4772450000000 1.0
C      1  0.4856920000000  0.5675340000000  0.4135740000000 1.0
C      1  0.4828370000000  0.4380220000000  0.5838720000000 1.0
C      1  0.4863800000000  0.5438740000000  0.5948210000000 1.0
C      1  0.4830560000000  0.4369420000000  0.4140360000000 1.0
C      1  0.4280770000000  0.5655240000000  0.4877730000000 1.0
C      1  0.4198590000000  0.4516290000000  0.5122770000000 1.0
C      1  0.4226570000000  0.5502570000000  0.5132780000000 1.0
C      1  0.4256510000000  0.4353750000000  0.4877200000000 1.0
C      1  0.4919790000000  0.4174210000000  0.4349510000000 1.0
C      1  0.4966430000000  0.5851060000000  0.5585000000000 1.0
C      1  0.4927230000000  0.4178480000000  0.5643500000000 1.0
C      1  0.4932280000000  0.5863250000000  0.4344540000000 1.0
C      1  0.4324360000000  0.4852680000000  0.5654160000000 1.0
C      1  0.4336780000000  0.5139750000000  0.4341320000000 1.0
C      1  0.4341280000000  0.4864640000000  0.4353260000000 1.0
C      1  0.4324630000000  0.5133940000000  0.5647790000000 1.0
C      1  0.3949730000000  0.5151290000000  0.5332090000000 1.0
C      1  0.3929530000000  0.4874700000000  0.4695640000000 1.0
C      1  0.3930340000000  0.5143220000000  0.4689480000000 1.0
C      1  0.3946370000000  0.4858470000000  0.5335720000000 1.0
C      1  0.5015430000000  0.4891390000000  0.6017420000000 1.0
C      1  0.5016550000000  0.5151160000000  0.3950000000000 1.0
C      1  0.5043680000000  0.4870840000000  0.3915470000000 1.0
C      1  0.4992190000000  0.5175570000000  0.5988740000000 1.0
C      1  0.5863400000000  0.4436170000000  0.5166700000000 1.0
C      1  0.5890040000000  0.5538320000000  0.4932090000000 1.0
C      1  0.5869680000000  0.4479860000000  0.4883500000000 1.0
C      1  0.5948140000000  0.5410240000000  0.5185390000000 1.0
C      1  0.5022900000000  0.5648260000000  0.5813780000000 1.0
C      1  0.5004150000000  0.4569410000000  0.4022190000000 1.0
C      1  0.4996780000000  0.5382000000000  0.4405210000000 1.0
C      1  0.4991490000000  0.4586520000000  0.5979100000000 1.0
C      1  0.5710220000000  0.5422010000000  0.4471340000000 1.0
C      1  0.5734740000000  0.4601120000000  0.5522450000000 1.0
C      1  0.5789970000000  0.5444440000000  0.5416630000000 1.0
C      1  0.5709200000000  0.4622410000000  0.4483080000000 1.0
C      1  0.5261770000000  0.5531850000000  0.5846070000000 1.0
C      1  0.5234530000000  0.4470570000000  0.4112760000000 1.0
C      1  0.5095110000000  0.5498600000000  0.4146980000000 1.0
C      1  0.5228620000000  0.4456820000000  0.5911110000000 1.0
C      1  0.4588530000000  0.4745680000000  0.4263370000000 1.0
C      1  0.4578120000000  0.5232310000000  0.5702950000000 1.0
C      1  0.4587180000000  0.4748960000000  0.5708730000000 1.0
C      1  0.4567090000000  0.5256370000000  0.4237420000000 1.0
C      1  0.4605780000000  0.5542510000000  0.4208200000000 1.0
C      1  0.4591830000000  0.4477670000000  0.5737320000000 1.0
C      1  0.4600860000000  0.5498800000000  0.5805790000000 1.0
C      1  0.4582100000000  0.4469160000000  0.4227770000000 1.0
C      1  0.5630290000000  0.4293370000000  0.4850610000000 1.0
C      1  0.5488450000000  0.5759760000000  0.5142710000000 1.0
C      1  0.5629700000000  0.4273230000000  0.5161820000000 1.0
C      1  0.5656500000000  0.5710420000000  0.4900840000000 1.0
C      1  0.4362610000000  0.4759700000000  0.5085530000000 1.0
C      1  0.4401200000000  0.5208680000000  0.4790940000000 1.0
C      1  0.4404160000000  0.4791220000000  0.4810850000000 1.0
C      1  0.4354870000000  0.5246560000000  0.5066320000000 1.0
C      1  0.4506530000000  0.5659560000000  0.5580880000000 1.0
C      1  0.4470340000000  0.4314940000000  0.4436240000000 1.0
C      1  0.4496140000000  0.5691710000000  0.4434470000000 1.0
C      1  0.4491250000000  0.4321170000000  0.5516240000000 1.0
C      1  0.5075470000000  0.4767410000000  0.5509740000000 1.0
C      1  0.5260540000000  0.5073480000000  0.4454770000000 1.0
C      1  0.5101200000000  0.4835490000000  0.4465290000000 1.0
C      1  0.5262790000000  0.5213220000000  0.5534310000000 1.0
C      1  0.5180870000000  0.5141400000000  0.5158860000000 1.0
C      1  0.5114450000000  0.4828330000000  0.4772900000000 1.0
C      1  0.5098350000000  0.5097150000000  0.4895050000000 1.0
C      1  0.5208970000000  0.4880150000000  0.5272680000000 1.0
C      1  0.4806630000000  0.4625810000000  0.5152920000000 1.0
C      1  0.4883100000000  0.5279750000000  0.4864430000000 1.0
C      1  0.4884690000000  0.4670990000000  0.4862170000000 1.0
C      1  0.4810710000000  0.5342800000000  0.5143850000000 1.0
C      1  0.4685930000000  0.5584060000000  0.5135410000000 1.0
C      1  0.4533570000000  0.4318340000000  0.4930550000000 1.0
C      1  0.4561920000000  0.5674670000000  0.4907860000000 1.0
C      1  0.4648130000000  0.4388420000000  0.5176600000000 1.0
C      1  0.5964990000000  0.5157590000000  0.5052280000000 1.0
C      1  0.5816670000000  0.4776570000000  0.4856920000000 1.0
C      1  0.5918820000000  0.5275690000000  0.4797440000000 1.0
C      1  0.5866920000000  0.4905760000000  0.5110980000000 1.0
C      1  0.5501350000000  0.5167750000000  0.5377730000000 1.0
C      1  0.5557300000000  0.4867050000000  0.4770420000000 1.0
C      1  0.5459380000000  0.5108670000000  0.4656810000000 1.0
C      1  0.5629350000000  0.4914320000000  0.5276370000000 1.0
C      1  0.5419600000000  0.5335830000000  0.4846850000000 1.0
C      1  0.5406080000000  0.4691270000000  0.5177120000000 1.0
C      1  0.5416290000000  0.5314420000000  0.5141820000000 1.0
C      1  0.5364640000000  0.4675230000000  0.4847550000000 1.0
C      1  0.5235990000000  0.4854880000000  0.5815750000000 1.0
C      1  0.5290160000000  0.5142450000000  0.4171710000000 1.0
C      1  0.5271120000000  0.4865890000000  0.4115010000000 1.0
C      1  0.5263270000000  0.5134160000000  0.5814090000000 1.0
C      1  0.4238680000000  0.4436730000000  0.5399930000000 1.0
C      1  0.4287200000000  0.5580760000000  0.4596200000000 1.0
C      1  0.4263780000000  0.4428120000000  0.4599220000000 1.0
C      1  0.4279320000000  0.5559640000000  0.5419050000000 1.0
C      1  0.4217150000000  0.5280300000000  0.4566990000000 1.0
C      1  0.4133030000000  0.4686470000000  0.5502420000000 1.0
C      1  0.4146980000000  0.5310060000000  0.5500760000000 1.0
C      1  0.4214140000000  0.4725620000000  0.4587450000000 1.0
C      1  0.5031040000000  0.4412240000000  0.4747010000000 1.0
C      1  0.5015280000000  0.5298520000000  0.5413910000000 1.0
C      1  0.5011330000000  0.4535080000000  0.5338990000000 1.0
C      1  0.5020690000000  0.5490980000000  0.4666280000000 1.0
C      1  0.5487630000000  0.5568980000000  0.5700810000000 1.0
C      1  0.5417070000000  0.4341490000000  0.4273490000000 1.0
C      1  0.5334530000000  0.5631750000000  0.4257780000000 1.0
C      1  0.5388130000000  0.4331440000000  0.5727170000000 1.0
C      1  0.4672610000000  0.5140350000000  0.4718110000000 1.0
C      1  0.4611600000000  0.4852950000000  0.5230110000000 1.0
C      1  0.4602250000000  0.5144830000000  0.5194240000000 1.0
C      1  0.4678630000000  0.4834600000000  0.4726560000000 1.0
C      1  0.4691550000000  0.5878880000000  0.5483420000000 1.0
C      1  0.4676920000000  0.4116190000000  0.4518150000000 1.0
C      1  0.4691540000000  0.5904330000000  0.4511170000000 1.0
C      1  0.4705260000000  0.4105510000000  0.5469140000000 1.0
C      1  0.5216100000000  0.5800540000000  0.5068760000000 1.0
C      1  0.5222660000000  0.4284030000000  0.4919440000000 1.0
C      1  0.5108690000000  0.5755580000000  0.4756350000000 1.0
C      1  0.5142840000000  0.4288050000000  0.5254470000000 1.0
END
