TITL C-2441168-9922-151 0.0484882971403828 125000 -20112.2318522934 0 0 141 (C1) n - 1
REM
REM in /home/bkarasulu/work/CARBON/AIRSS/Generating-Clusters/ReaxFF-fromJPCA2015/Units_Real/with-SteepDescent/Higher-Symm
REM
REM
REM
REM
REM
REM ./C.cell (1df0a924f5614ab8850e4351716899ee)
REM
REM compiler GCC version 9.2.1 20190827 (Red Hat 9.2.1-1)
REM options -cpp -mtune=generic -march=x86-64 -g -O0 -fpre-include=/usr/include/finclude/math-vector-fortran.h
REM seed 861416608 319463323 -1451101457 -1251725609 726733757 -980753021 2121283788 -1631025825 -1169106100 -1709058147 -1150218797 1752739341 -270048105 877415068 219761210 1256224377 2042603041 1107886071 2034960915 2015941026 632420236 1964811269 -772649282 1896656280 -412625182 -185430376 -2093946754 1129537250 -583244061 -2023625448 -789112731 -506102955 506721405
REM
CELL 1.54180   50.00000   50.00000   50.00000   90.00000   90.00000   90.00000
LATT -1
SFAC C  
C      1  0.4136570000000  0.5065360000000  0.4498040000000 1.0
C      1  0.4200040000000  0.5405860000000  0.5269270000000 1.0
C      1  0.4131300000000  0.4503040000000  0.5262070000000 1.0
C      1  0.4811630000000  0.4172170000000  0.4363920000000 1.0
C      1  0.4818000000000  0.5936960000000  0.4600650000000 1.0
C      1  0.4797830000000  0.4862950000000  0.6025770000000 1.0
C      1  0.5159250000000  0.4628400000000  0.4335170000000 1.0
C      1  0.5225280000000  0.5719860000000  0.5042250000000 1.0
C      1  0.5206160000000  0.4621010000000  0.5652730000000 1.0
C      1  0.5292650000000  0.4694470000000  0.5058170000000 1.0
C      1  0.5332550000000  0.5071440000000  0.4694900000000 1.0
C      1  0.5399480000000  0.5159660000000  0.5237930000000 1.0
C      1  0.4695950000000  0.5322100000000  0.5778300000000 1.0
C      1  0.4683100000000  0.4217850000000  0.4912040000000 1.0
C      1  0.4678330000000  0.5501130000000  0.4344920000000 1.0
C      1  0.4364800000000  0.5695350000000  0.4652960000000 1.0
C      1  0.4360250000000  0.4970720000000  0.5799180000000 1.0
C      1  0.4360060000000  0.4377000000000  0.4594840000000 1.0
C      1  0.4658090000000  0.5501820000000  0.5053060000000 1.0
C      1  0.4652120000000  0.4636400000000  0.5329960000000 1.0
C      1  0.4678880000000  0.4791960000000  0.4435690000000 1.0
C      1  0.5277410000000  0.4796190000000  0.4780270000000 1.0
C      1  0.5333720000000  0.5218650000000  0.4948820000000 1.0
C      1  0.5298040000000  0.4891970000000  0.5276860000000 1.0
C      1  0.5240760000000  0.5806860000000  0.5496780000000 1.0
C      1  0.5246100000000  0.4144340000000  0.5443910000000 1.0
C      1  0.5250040000000  0.5048370000000  0.4041560000000 1.0
C      1  0.5518660000000  0.5743380000000  0.5524360000000 1.0
C      1  0.5506850000000  0.4192050000000  0.5357680000000 1.0
C      1  0.5517450000000  0.5094900000000  0.4125050000000 1.0
C      1  0.4659580000000  0.4316280000000  0.4606970000000 1.0
C      1  0.4616030000000  0.5741250000000  0.4512790000000 1.0
C      1  0.4620150000000  0.5063300000000  0.5897280000000 1.0
C      1  0.4094840000000  0.4754140000000  0.5407410000000 1.0
C      1  0.4092160000000  0.4822660000000  0.4630000000000 1.0
C      1  0.4091580000000  0.5396010000000  0.4902440000000 1.0
C      1  0.4845990000000  0.4376690000000  0.4179010000000 1.0
C      1  0.4789280000000  0.5982630000000  0.4888940000000 1.0
C      1  0.4785280000000  0.4612090000000  0.5890460000000 1.0
C      1  0.5641090000000  0.4518960000000  0.4477830000000 1.0
C      1  0.5628020000000  0.5693440000000  0.4804830000000 1.0
C      1  0.5641980000000  0.4819270000000  0.5700530000000 1.0
C      1  0.4912300000000  0.5029750000000  0.5087810000000 1.0
C      1  0.4839370000000  0.4844480000000  0.4894580000000 1.0
C      1  0.5043230000000  0.5237300000000  0.4962730000000 1.0
C      1  0.5534690000000  0.4930830000000  0.4367210000000 1.0
C      1  0.5634060000000  0.5737050000000  0.5267340000000 1.0
C      1  0.5608840000000  0.4422270000000  0.5458240000000 1.0
C      1  0.5807050000000  0.4563110000000  0.5316920000000 1.0
C      1  0.5809540000000  0.4949020000000  0.4465570000000 1.0
C      1  0.5812290000000  0.5526860000000  0.5219050000000 1.0
C      1  0.5812480000000  0.4511610000000  0.5029070000000 1.0
C      1  0.5831940000000  0.5225140000000  0.4546370000000 1.0
C      1  0.5791760000000  0.5308550000000  0.5410160000000 1.0
C      1  0.4106040000000  0.5315740000000  0.4622110000000 1.0
C      1  0.4249100000000  0.5170510000000  0.5427970000000 1.0
C      1  0.4242770000000  0.4580760000000  0.5004570000000 1.0
C      1  0.4844560000000  0.4905730000000  0.4189970000000 1.0
C      1  0.4839510000000  0.5730910000000  0.5344780000000 1.0
C      1  0.4822450000000  0.4335480000000  0.5456390000000 1.0
C      1  0.4290100000000  0.4743880000000  0.5622450000000 1.0
C      1  0.4251420000000  0.4621770000000  0.4487330000000 1.0
C      1  0.4272980000000  0.5634690000000  0.4927270000000 1.0
C      1  0.5811270000000  0.4808660000000  0.5469760000000 1.0
C      1  0.5854660000000  0.4683380000000  0.4566600000000 1.0
C      1  0.5826170000000  0.5524300000000  0.4929090000000 1.0
C      1  0.5942900000000  0.4672480000000  0.4835740000000 1.0
C      1  0.5934220000000  0.5304130000000  0.4794800000000 1.0
C      1  0.5798080000000  0.5041950000000  0.5292910000000 1.0
C      1  0.4983060000000  0.5388670000000  0.5680420000000 1.0
C      1  0.4941500000000  0.4269590000000  0.5031120000000 1.0
C      1  0.4943150000000  0.5370110000000  0.4344970000000 1.0
C      1  0.4775990000000  0.5935440000000  0.5151120000000 1.0
C      1  0.4772930000000  0.4408790000000  0.5731050000000 1.0
C      1  0.4954500000000  0.4622990000000  0.4113630000000 1.0
C      1  0.5100680000000  0.4943550000000  0.4300510000000 1.0
C      1  0.5116820000000  0.5610330000000  0.5293990000000 1.0
C      1  0.5102900000000  0.4423970000000  0.5432050000000 1.0
C      1  0.4455160000000  0.4510520000000  0.5529100000000 1.0
C      1  0.4416890000000  0.4789610000000  0.4319890000000 1.0
C      1  0.4458160000000  0.5704270000000  0.5153500000000 1.0
C      1  0.5491110000000  0.5794870000000  0.5034660000000 1.0
C      1  0.5483000000000  0.4586010000000  0.5658390000000 1.0
C      1  0.5448400000000  0.4652790000000  0.4322330000000 1.0
C      1  0.5541970000000  0.5070370000000  0.5784700000000 1.0
C      1  0.5518070000000  0.4353150000000  0.4656200000000 1.0
C      1  0.5523750000000  0.5628550000000  0.4542360000000 1.0
C      1  0.4614850000000  0.4892430000000  0.4723630000000 1.0
C      1  0.4517390000000  0.5255900000000  0.4978850000000 1.0
C      1  0.4491440000000  0.5012810000000  0.5128790000000 1.0
C      1  0.4874370000000  0.5671610000000  0.5638050000000 1.0
C      1  0.4875280000000  0.4096520000000  0.5263700000000 1.0
C      1  0.4880680000000  0.5222240000000  0.4104060000000 1.0
C      1  0.5069300000000  0.4081920000000  0.4470680000000 1.0
C      1  0.5094370000000  0.5836860000000  0.4549040000000 1.0
C      1  0.5079510000000  0.4947630000000  0.6035150000000 1.0
C      1  0.4453800000000  0.5449950000000  0.5673120000000 1.0
C      1  0.4439500000000  0.4209950000000  0.5070260000000 1.0
C      1  0.4438360000000  0.5339300000000  0.4291590000000 1.0
C      1  0.4012960000000  0.4918040000000  0.5175620000000 1.0
C      1  0.3977080000000  0.4881700000000  0.4888970000000 1.0
C      1  0.3979820000000  0.5142280000000  0.5008160000000 1.0
C      1  0.5490600000000  0.5529760000000  0.5719150000000 1.0
C      1  0.5523600000000  0.4122230000000  0.5085070000000 1.0
C      1  0.5539040000000  0.5374000000000  0.4176080000000 1.0
C      1  0.5073620000000  0.5695110000000  0.4806890000000 1.0
C      1  0.5121510000000  0.4875020000000  0.5758320000000 1.0
C      1  0.5238340000000  0.4299060000000  0.4579840000000 1.0
C      1  0.5137800000000  0.5312490000000  0.3988270000000 1.0
C      1  0.5121270000000  0.5776410000000  0.5760840000000 1.0
C      1  0.5135350000000  0.3962650000000  0.5250700000000 1.0
C      1  0.4530040000000  0.5070480000000  0.5408790000000 1.0
C      1  0.4490510000000  0.4727330000000  0.5062950000000 1.0
C      1  0.4605100000000  0.5172830000000  0.4728950000000 1.0
C      1  0.4264560000000  0.4325520000000  0.4860820000000 1.0
C      1  0.4264670000000  0.5489300000000  0.4469780000000 1.0
C      1  0.4263020000000  0.5231330000000  0.5708820000000 1.0
C      1  0.5267550000000  0.5108550000000  0.5872670000000 1.0
C      1  0.5194800000000  0.4052380000000  0.4734090000000 1.0
C      1  0.5284820000000  0.5690850000000  0.4382550000000 1.0
C      1  0.5012070000000  0.4668590000000  0.4759970000000 1.0
C      1  0.4874950000000  0.5285190000000  0.4726320000000 1.0
C      1  0.5016130000000  0.5001900000000  0.5360520000000 1.0
C      1  0.4828570000000  0.5549330000000  0.4825360000000 1.0
C      1  0.4739370000000  0.4882490000000  0.5457200000000 1.0
C      1  0.4836740000000  0.4564600000000  0.4556320000000 1.0
C      1  0.4343300000000  0.4317490000000  0.5332130000000 1.0
C      1  0.4335560000000  0.5064270000000  0.4291690000000 1.0
C      1  0.4358860000000  0.5581670000000  0.5416380000000 1.0
C      1  0.5165930000000  0.5280690000000  0.5385120000000 1.0
C      1  0.5110100000000  0.4484280000000  0.5132520000000 1.0
C      1  0.5099940000000  0.5175250000000  0.4515460000000 1.0
C      1  0.5221350000000  0.5507280000000  0.5834520000000 1.0
C      1  0.5290260000000  0.3972830000000  0.4999620000000 1.0
C      1  0.5293530000000  0.5518460000000  0.4143230000000 1.0
C      1  0.6056410000000  0.5009770000000  0.5153920000000 1.0
C      1  0.6117320000000  0.4867760000000  0.4925590000000 1.0
C      1  0.6113830000000  0.5140640000000  0.4923120000000 1.0
C      1  0.5665600000000  0.5418860000000  0.4419220000000 1.0
C      1  0.5650220000000  0.5303770000000  0.5661960000000 1.0
C      1  0.5636000000000  0.4317570000000  0.4913180000000 1.0
END
