TITL C-2441163-1170-590 0.0569583668450608 125000 -22214.3726760413 0 0 156 (C1) n - 1
REM
REM in /home/bkarasulu/work/CARBON/AIRSS/Generating-Clusters/ReaxFF-fromJPCA2015/Units_Real/with-SteepDescent/Higher-Symm
REM
REM
REM
REM
REM
REM ./C.cell (1df0a924f5614ab8850e4351716899ee)
REM
REM compiler GCC version 9.2.1 20190827 (Red Hat 9.2.1-1)
REM options -cpp -mtune=generic -march=x86-64 -g -O0 -fpre-include=/usr/include/finclude/math-vector-fortran.h
REM seed 188409625 386467282 667799642 531150107 -1532293050 -1563737297 716456756 -2040588797 -726079217 -407334481 1707622955 -1451482111 -1847255078 234512770 -44045844 -1698967629 1802575273 1740096116 30432853 -1790316011 1853601650 -1849583122 -460583337 -1970167212 836015642 -864922465 268926862 1391147384 992059759 808682775 993256566 293804095 -1320270653
REM
CELL 1.54180   50.00000   50.00000   50.00000   90.00000   90.00000   90.00000
LATT -1
SFAC C  
C      1  0.5880020000000  0.5625390000000  0.5074420000000 1.0
C      1  0.5070100000000  0.3931960000000  0.5101200000000 1.0
C      1  0.4013040000000  0.5465930000000  0.5076220000000 1.0
C      1  0.4582970000000  0.4236380000000  0.4727440000000 1.0
C      1  0.4552840000000  0.5777260000000  0.4762920000000 1.0
C      1  0.5871800000000  0.5038320000000  0.4739830000000 1.0
C      1  0.5667790000000  0.5295930000000  0.5648360000000 1.0
C      1  0.4948700000000  0.4277660000000  0.5646420000000 1.0
C      1  0.4392450000000  0.5402460000000  0.5644760000000 1.0
C      1  0.4776110000000  0.4548910000000  0.4103530000000 1.0
C      1  0.4767950000000  0.5358910000000  0.4058220000000 1.0
C      1  0.5545830000000  0.5085270000000  0.4058030000000 1.0
C      1  0.4252290000000  0.4564610000000  0.4477850000000 1.0
C      1  0.5007730000000  0.5844750000000  0.4500790000000 1.0
C      1  0.5684890000000  0.4514620000000  0.4404960000000 1.0
C      1  0.5260150000000  0.6016050000000  0.4890190000000 1.0
C      1  0.5713800000000  0.4299930000000  0.4911200000000 1.0
C      1  0.4015610000000  0.4779290000000  0.4885870000000 1.0
C      1  0.5324650000000  0.4158100000000  0.4474510000000 1.0
C      1  0.4153280000000  0.5030300000000  0.4469150000000 1.0
C      1  0.5492880000000  0.5645690000000  0.4468630000000 1.0
C      1  0.5059360000000  0.4478260000000  0.4123010000000 1.0
C      1  0.4528730000000  0.5206770000000  0.4129160000000 1.0
C      1  0.5388200000000  0.5306000000000  0.4048590000000 1.0
C      1  0.5752380000000  0.4733550000000  0.5268810000000 1.0
C      1  0.4387520000000  0.4462220000000  0.5237730000000 1.0
C      1  0.5014470000000  0.5971180000000  0.5325370000000 1.0
C      1  0.5371690000000  0.4478120000000  0.5652990000000 1.0
C      1  0.4540710000000  0.4814890000000  0.5488380000000 1.0
C      1  0.5079290000000  0.5404030000000  0.5417480000000 1.0
C      1  0.4818160000000  0.5635590000000  0.4126510000000 1.0
C      1  0.5689480000000  0.4864890000000  0.4188830000000 1.0
C      1  0.4493220000000  0.4503220000000  0.4216690000000 1.0
C      1  0.5129130000000  0.4034330000000  0.5371330000000 1.0
C      1  0.4015500000000  0.5377950000000  0.5360500000000 1.0
C      1  0.5788770000000  0.5637710000000  0.5340090000000 1.0
C      1  0.4367710000000  0.4673910000000  0.5659260000000 1.0
C      1  0.4965210000000  0.5737220000000  0.5778490000000 1.0
C      1  0.5631190000000  0.4571000000000  0.5708590000000 1.0
C      1  0.4760270000000  0.5923500000000  0.5201980000000 1.0
C      1  0.5993040000000  0.4764570000000  0.5112280000000 1.0
C      1  0.4252370000000  0.4224640000000  0.5083190000000 1.0
C      1  0.5536880000000  0.4928480000000  0.4422140000000 1.0
C      1  0.4711380000000  0.4594730000000  0.4372030000000 1.0
C      1  0.4776400000000  0.5718100000000  0.4398400000000 1.0
C      1  0.5320770000000  0.4581400000000  0.5126820000000 1.0
C      1  0.4380320000000  0.5056150000000  0.5068130000000 1.0
C      1  0.5398090000000  0.5502290000000  0.4953940000000 1.0
C      1  0.5457510000000  0.4856690000000  0.5195520000000 1.0
C      1  0.4598290000000  0.4661710000000  0.5051350000000 1.0
C      1  0.4933310000000  0.5494070000000  0.5040050000000 1.0
C      1  0.4859200000000  0.4556130000000  0.4981880000000 1.0
C      1  0.4669630000000  0.5381430000000  0.4992400000000 1.0
C      1  0.5429840000000  0.5056990000000  0.4994620000000 1.0
C      1  0.5270640000000  0.4670360000000  0.4160300000000 1.0
C      1  0.4600450000000  0.4927250000000  0.4135210000000 1.0
C      1  0.5063900000000  0.5289870000000  0.4133300000000 1.0
C      1  0.5748170000000  0.5334070000000  0.4434230000000 1.0
C      1  0.4928710000000  0.4193180000000  0.4469870000000 1.0
C      1  0.4354430000000  0.5457810000000  0.4491550000000 1.0
C      1  0.5242940000000  0.5740660000000  0.4368650000000 1.0
C      1  0.5511480000000  0.4320090000000  0.4452250000000 1.0
C      1  0.4180290000000  0.4781120000000  0.4337830000000 1.0
C      1  0.5559260000000  0.5472040000000  0.4254290000000 1.0
C      1  0.5119260000000  0.4244790000000  0.4290890000000 1.0
C      1  0.4320990000000  0.5234230000000  0.4342840000000 1.0
C      1  0.5406920000000  0.4589310000000  0.4839930000000 1.0
C      1  0.4466570000000  0.4843950000000  0.4854100000000 1.0
C      1  0.5133980000000  0.5533570000000  0.4824590000000 1.0
C      1  0.5445840000000  0.4388840000000  0.5393220000000 1.0
C      1  0.4318060000000  0.4922040000000  0.5334810000000 1.0
C      1  0.5305230000000  0.5635040000000  0.5526140000000 1.0
C      1  0.5504340000000  0.5975710000000  0.5218960000000 1.0
C      1  0.5589460000000  0.4034470000000  0.5205410000000 1.0
C      1  0.3926120000000  0.4999570000000  0.5308760000000 1.0
C      1  0.5219480000000  0.4944290000000  0.5649990000000 1.0
C      1  0.4944130000000  0.4895030000000  0.5644300000000 1.0
C      1  0.4831320000000  0.5152080000000  0.5745370000000 1.0
C      1  0.5578190000000  0.4825640000000  0.5827270000000 1.0
C      1  0.4575150000000  0.4549390000000  0.5820420000000 1.0
C      1  0.4793490000000  0.5572660000000  0.5889030000000 1.0
C      1  0.5039910000000  0.5112740000000  0.4388750000000 1.0
C      1  0.5266530000000  0.4869460000000  0.4392050000000 1.0
C      1  0.4769860000000  0.4939520000000  0.4388630000000 1.0
C      1  0.5203650000000  0.4742920000000  0.4687760000000 1.0
C      1  0.4698870000000  0.4946360000000  0.4679670000000 1.0
C      1  0.5041440000000  0.5253100000000  0.4660890000000 1.0
C      1  0.5228850000000  0.6047810000000  0.5167510000000 1.0
C      1  0.5772230000000  0.4260610000000  0.5194580000000 1.0
C      1  0.3972740000000  0.4758930000000  0.5176050000000 1.0
C      1  0.4623080000000  0.5174310000000  0.5196350000000 1.0
C      1  0.5464580000000  0.5301860000000  0.5142960000000 1.0
C      1  0.5031080000000  0.4558370000000  0.5213170000000 1.0
C      1  0.5504400000000  0.4087050000000  0.4923870000000 1.0
C      1  0.4041700000000  0.5023450000000  0.4738470000000 1.0
C      1  0.5538870000000  0.5939890000000  0.4927770000000 1.0
C      1  0.5242610000000  0.5391890000000  0.5884000000000 1.0
C      1  0.5062000000000  0.4677340000000  0.5957550000000 1.0
C      1  0.4594300000000  0.5029010000000  0.5878260000000 1.0
C      1  0.4730930000000  0.3996900000000  0.4786700000000 1.0
C      1  0.4266340000000  0.5752680000000  0.4805020000000 1.0
C      1  0.5992790000000  0.5306040000000  0.4778270000000 1.0
C      1  0.5932440000000  0.5199900000000  0.5255950000000 1.0
C      1  0.4715390000000  0.4138490000000  0.5251190000000 1.0
C      1  0.4413240000000  0.5609240000000  0.5218430000000 1.0
C      1  0.4789870000000  0.4414750000000  0.4587330000000 1.0
C      1  0.4608780000000  0.5552120000000  0.4571060000000 1.0
C      1  0.5651960000000  0.5100640000000  0.4573050000000 1.0
C      1  0.4376960000000  0.5144140000000  0.5751360000000 1.0
C      1  0.5461640000000  0.5471770000000  0.5751140000000 1.0
C      1  0.5124690000000  0.4453730000000  0.5791400000000 1.0
C      1  0.5844190000000  0.5514310000000  0.4640980000000 1.0
C      1  0.4999880000000  0.4004050000000  0.4664600000000 1.0
C      1  0.4177800000000  0.5493350000000  0.4699150000000 1.0
C      1  0.4143710000000  0.5261540000000  0.4896260000000 1.0
C      1  0.5659670000000  0.5668420000000  0.4848900000000 1.0
C      1  0.5215010000000  0.4034680000000  0.4870120000000 1.0
C      1  0.5189020000000  0.5017260000000  0.4836370000000 1.0
C      1  0.4911400000000  0.4674460000000  0.4728020000000 1.0
C      1  0.4749360000000  0.5259290000000  0.4732050000000 1.0
C      1  0.5554600000000  0.4611280000000  0.4158420000000 1.0
C      1  0.4366380000000  0.4743090000000  0.4129500000000 1.0
C      1  0.5107470000000  0.5592560000000  0.4142590000000 1.0
C      1  0.5406330000000  0.5015890000000  0.5441380000000 1.0
C      1  0.4822390000000  0.4777870000000  0.5413720000000 1.0
C      1  0.4806430000000  0.5323760000000  0.5476460000000 1.0
C      1  0.5730800000000  0.4475460000000  0.5425090000000 1.0
C      1  0.4181890000000  0.4639790000000  0.5384430000000 1.0
C      1  0.5108800000000  0.5866730000000  0.5585410000000 1.0
C      1  0.4172620000000  0.5709850000000  0.5073130000000 1.0
C      1  0.6031130000000  0.5381010000000  0.5054960000000 1.0
C      1  0.4779810000000  0.3928290000000  0.5065870000000 1.0
C      1  0.5901880000000  0.4771660000000  0.4840940000000 1.0
C      1  0.4312790000000  0.4314280000000  0.4805710000000 1.0
C      1  0.4757040000000  0.5903010000000  0.4910520000000 1.0
C      1  0.5693560000000  0.4567330000000  0.4748970000000 1.0
C      1  0.4233480000000  0.4614960000000  0.4750770000000 1.0
C      1  0.5031340000000  0.5874110000000  0.4784710000000 1.0
C      1  0.4261180000000  0.5483200000000  0.5422280000000 1.0
C      1  0.5717790000000  0.5351710000000  0.5369790000000 1.0
C      1  0.4960410000000  0.4265570000000  0.5359430000000 1.0
C      1  0.5062180000000  0.5266490000000  0.5167540000000 1.0
C      1  0.5037130000000  0.4996600000000  0.5075030000000 1.0
C      1  0.4781790000000  0.4918900000000  0.5169060000000 1.0
C      1  0.5397740000000  0.4108610000000  0.5402310000000 1.0
C      1  0.4096330000000  0.5117600000000  0.5492470000000 1.0
C      1  0.5548350000000  0.5770810000000  0.5416340000000 1.0
C      1  0.4640960000000  0.5559090000000  0.5603400000000 1.0
C      1  0.5657060000000  0.5012720000000  0.5605370000000 1.0
C      1  0.4665980000000  0.4325020000000  0.5660020000000 1.0
C      1  0.4983890000000  0.5354950000000  0.5956130000000 1.0
C      1  0.5295540000000  0.4854550000000  0.5909360000000 1.0
C      1  0.4774820000000  0.4751990000000  0.5919930000000 1.0
C      1  0.4512960000000  0.4249960000000  0.5419310000000 1.0
C      1  0.4599640000000  0.5763980000000  0.5376580000000 1.0
C      1  0.5944040000000  0.4938430000000  0.5332910000000 1.0
END
