TITL C-2441156-4686-468 0.166577581913926 125000 -25103.9099478196 0 0 193 (C1) n - 1
REM
REM in /home/bkarasulu/work/CARBON/AIRSS/Generating-Clusters/ReaxFF-fromJPCA2015/Units_Real/with-SteepDescent/Higher-Symm
REM
REM
REM
REM
REM
REM ./C.cell (1df0a924f5614ab8850e4351716899ee)
REM
REM compiler GCC version 9.2.1 20190827 (Red Hat 9.2.1-1)
REM options -cpp -mtune=generic -march=x86-64 -g -O0 -fpre-include=/usr/include/finclude/math-vector-fortran.h
REM seed -1133590446 -742438846 -558890975 4675026 1352536712 -1114651664 -29390508 -443882726 -1073798123 -391105888 996481891 -1915190448 -641147810 2111090659 -125229878 -2027629979 -987017729 -594170976 -475235090 -1923732793 -1898732680 -1622053611 -57328189 1070067686 2085779992 234242126 314426676 -1137123790 75202842 -494497545 127033447 1694790911 -1879052296
REM
CELL 1.54180   50.00000   50.00000   50.00000   90.00000   90.00000   90.00000
LATT -1
SFAC C  
C      1  0.4476480000000  0.4924240000000  0.5318890000000 1.0
C      1  0.4443720000000  0.4495250000000  0.5085670000000 1.0
C      1  0.4492590000000  0.4697130000000  0.4750560000000 1.0
C      1  0.4597960000000  0.5135380000000  0.4794280000000 1.0
C      1  0.4491000000000  0.5370470000000  0.5158870000000 1.0
C      1  0.5441230000000  0.5006630000000  0.5376050000000 1.0
C      1  0.5484780000000  0.4648840000000  0.5185800000000 1.0
C      1  0.5364990000000  0.4840490000000  0.4756770000000 1.0
C      1  0.5494640000000  0.5249520000000  0.4712520000000 1.0
C      1  0.5538480000000  0.5328120000000  0.5155950000000 1.0
C      1  0.5843210000000  0.4361250000000  0.4821660000000 1.0
C      1  0.5850880000000  0.4977230000000  0.4330530000000 1.0
C      1  0.5824870000000  0.5579520000000  0.4798990000000 1.0
C      1  0.5851650000000  0.5393030000000  0.5516860000000 1.0
C      1  0.5841870000000  0.4631770000000  0.5544090000000 1.0
C      1  0.4105400000000  0.4374750000000  0.4786380000000 1.0
C      1  0.4136220000000  0.4983880000000  0.4354260000000 1.0
C      1  0.4152510000000  0.5627760000000  0.4771080000000 1.0
C      1  0.4145640000000  0.5400400000000  0.5516970000000 1.0
C      1  0.4152740000000  0.4621430000000  0.5525530000000 1.0
C      1  0.5141020000000  0.5911100000000  0.5582430000000 1.0
C      1  0.5123990000000  0.4727710000000  0.6051680000000 1.0
C      1  0.5129910000000  0.3945440000000  0.5071270000000 1.0
C      1  0.5118100000000  0.4608920000000  0.3996090000000 1.0
C      1  0.5133170000000  0.5848490000000  0.4337710000000 1.0
C      1  0.4866920000000  0.5909130000000  0.5580510000000 1.0
C      1  0.4860810000000  0.4739810000000  0.6021540000000 1.0
C      1  0.4855310000000  0.3969550000000  0.5001370000000 1.0
C      1  0.4835410000000  0.4653710000000  0.4005260000000 1.0
C      1  0.4858830000000  0.5819620000000  0.4333080000000 1.0
C      1  0.5291840000000  0.4951910000000  0.4337580000000 1.0
C      1  0.5265260000000  0.5583010000000  0.4763210000000 1.0
C      1  0.5179780000000  0.5416410000000  0.5489980000000 1.0
C      1  0.5219710000000  0.4650500000000  0.5579760000000 1.0
C      1  0.5295930000000  0.4385920000000  0.4843900000000 1.0
C      1  0.4776360000000  0.4982250000000  0.4421520000000 1.0
C      1  0.4667580000000  0.5606960000000  0.4759150000000 1.0
C      1  0.4793210000000  0.5440660000000  0.5502420000000 1.0
C      1  0.4841090000000  0.4664000000000  0.5515450000000 1.0
C      1  0.4812300000000  0.4470160000000  0.4808450000000 1.0
C      1  0.5146330000000  0.5395930000000  0.4064170000000 1.0
C      1  0.5146680000000  0.6010340000000  0.5049970000000 1.0
C      1  0.5131510000000  0.5247470000000  0.6000110000000 1.0
C      1  0.5202820000000  0.4155810000000  0.5565830000000 1.0
C      1  0.5152650000000  0.4208360000000  0.4347880000000 1.0
C      1  0.4855270000000  0.5359610000000  0.4042250000000 1.0
C      1  0.4853340000000  0.6015530000000  0.5058710000000 1.0
C      1  0.4843430000000  0.5241720000000  0.5992030000000 1.0
C      1  0.4912820000000  0.4163060000000  0.5645950000000 1.0
C      1  0.4887740000000  0.4134340000000  0.4449620000000 1.0
C      1  0.4489450000000  0.5612200000000  0.4278060000000 1.0
C      1  0.4500180000000  0.5861750000000  0.5368000000000 1.0
C      1  0.4492070000000  0.4889400000000  0.5906280000000 1.0
C      1  0.4394200000000  0.4043080000000  0.5098220000000 1.0
C      1  0.4389400000000  0.4570040000000  0.4102320000000 1.0
C      1  0.5507970000000  0.5625130000000  0.4286660000000 1.0
C      1  0.5492090000000  0.5847370000000  0.5363660000000 1.0
C      1  0.5500740000000  0.4916580000000  0.5943750000000 1.0
C      1  0.5502370000000  0.4077790000000  0.5217770000000 1.0
C      1  0.5492530000000  0.4504680000000  0.4180090000000 1.0
C      1  0.5438460000000  0.4678970000000  0.5765800000000 1.0
C      1  0.5476940000000  0.4200590000000  0.4951770000000 1.0
C      1  0.5463480000000  0.4796720000000  0.4187210000000 1.0
C      1  0.5441290000000  0.5685240000000  0.4575640000000 1.0
C      1  0.5406880000000  0.5597960000000  0.5508880000000 1.0
C      1  0.4598390000000  0.4695910000000  0.5689650000000 1.0
C      1  0.4598180000000  0.4336400000000  0.4911460000000 1.0
C      1  0.4620480000000  0.4784260000000  0.4354710000000 1.0
C      1  0.4522760000000  0.5723500000000  0.4550450000000 1.0
C      1  0.4567330000000  0.5619790000000  0.5529780000000 1.0
C      1  0.5247920000000  0.5227590000000  0.4282920000000 1.0
C      1  0.5236290000000  0.5734240000000  0.4976780000000 1.0
C      1  0.5220180000000  0.5248310000000  0.5715010000000 1.0
C      1  0.5270370000000  0.4417190000000  0.5426640000000 1.0
C      1  0.5264720000000  0.4385430000000  0.4558660000000 1.0
C      1  0.4747090000000  0.5232490000000  0.4278700000000 1.0
C      1  0.4749090000000  0.5753210000000  0.4980270000000 1.0
C      1  0.4746280000000  0.5256720000000  0.5714120000000 1.0
C      1  0.4725410000000  0.4203310000000  0.5426020000000 1.0
C      1  0.4702710000000  0.4343190000000  0.4373750000000 1.0
C      1  0.4826640000000  0.4453850000000  0.5307750000000 1.0
C      1  0.4824080000000  0.4557510000000  0.4530090000000 1.0
C      1  0.4866850000000  0.5372000000000  0.4489950000000 1.0
C      1  0.4879630000000  0.5557540000000  0.5125000000000 1.0
C      1  0.4856540000000  0.5049680000000  0.5570840000000 1.0
C      1  0.5097940000000  0.4435280000000  0.5221840000000 1.0
C      1  0.5099710000000  0.4599230000000  0.4490400000000 1.0
C      1  0.5108290000000  0.5308870000000  0.4512110000000 1.0
C      1  0.5126420000000  0.5551730000000  0.5131450000000 1.0
C      1  0.5096360000000  0.5031960000000  0.5597870000000 1.0
C      1  0.5243330000000  0.4372870000000  0.4122790000000 1.0
C      1  0.5258880000000  0.5652640000000  0.4150200000000 1.0
C      1  0.5258290000000  0.6006980000000  0.5327550000000 1.0
C      1  0.5263260000000  0.4999400000000  0.6077320000000 1.0
C      1  0.5260580000000  0.3981560000000  0.5334610000000 1.0
C      1  0.4651240000000  0.4447880000000  0.4110980000000 1.0
C      1  0.4741040000000  0.5625000000000  0.4146830000000 1.0
C      1  0.4739030000000  0.6011110000000  0.5329580000000 1.0
C      1  0.4720210000000  0.4981930000000  0.6068710000000 1.0
C      1  0.4653270000000  0.4005540000000  0.5218740000000 1.0
C      1  0.4497880000000  0.4872530000000  0.4108510000000 1.0
C      1  0.4544070000000  0.5973550000000  0.4697720000000 1.0
C      1  0.4534040000000  0.5584140000000  0.5813590000000 1.0
C      1  0.4558970000000  0.4419600000000  0.5759810000000 1.0
C      1  0.4433930000000  0.4120320000000  0.4804120000000 1.0
C      1  0.5470200000000  0.5007400000000  0.3988010000000 1.0
C      1  0.5440670000000  0.5945900000000  0.4707700000000 1.0
C      1  0.5442600000000  0.5576630000000  0.5797120000000 1.0
C      1  0.5408270000000  0.4394710000000  0.5805060000000 1.0
C      1  0.5481200000000  0.4045330000000  0.4702620000000 1.0
C      1  0.5655730000000  0.5341050000000  0.4896830000000 1.0
C      1  0.5647790000000  0.5085040000000  0.5257950000000 1.0
C      1  0.5727960000000  0.4812190000000  0.5126950000000 1.0
C      1  0.5745950000000  0.4811770000000  0.4839210000000 1.0
C      1  0.5587850000000  0.4998040000000  0.4700610000000 1.0
C      1  0.4257210000000  0.5264580000000  0.5016470000000 1.0
C      1  0.4351370000000  0.5161160000000  0.5258770000000 1.0
C      1  0.4366200000000  0.4760000000000  0.5122670000000 1.0
C      1  0.4279370000000  0.4846720000000  0.4864210000000 1.0
C      1  0.4320250000000  0.5113710000000  0.4786960000000 1.0
C      1  0.3851770000000  0.5092200000000  0.4777410000000 1.0
C      1  0.3847010000000  0.5249130000000  0.5015480000000 1.0
C      1  0.3869930000000  0.5067570000000  0.5238670000000 1.0
C      1  0.3869080000000  0.4794090000000  0.5136550000000 1.0
C      1  0.3856100000000  0.4816700000000  0.4849260000000 1.0
C      1  0.6123700000000  0.5089190000000  0.4767100000000 1.0
C      1  0.6122090000000  0.5247250000000  0.5015150000000 1.0
C      1  0.6129850000000  0.5063870000000  0.5242330000000 1.0
C      1  0.6149430000000  0.4798910000000  0.5126970000000 1.0
C      1  0.6153220000000  0.4815160000000  0.4841750000000 1.0
C      1  0.4159880000000  0.4382040000000  0.5114330000000 1.0
C      1  0.4136710000000  0.4706750000000  0.4436460000000 1.0
C      1  0.4147690000000  0.5454780000000  0.4531380000000 1.0
C      1  0.4125460000000  0.5588870000000  0.5288580000000 1.0
C      1  0.4137920000000  0.4910920000000  0.5626050000000 1.0
C      1  0.5860880000000  0.4357030000000  0.5110080000000 1.0
C      1  0.5851770000000  0.4697720000000  0.4413350000000 1.0
C      1  0.5870530000000  0.5433890000000  0.4518510000000 1.0
C      1  0.5869400000000  0.5578850000000  0.5281250000000 1.0
C      1  0.5860270000000  0.4916790000000  0.5638800000000 1.0
C      1  0.4318860000000  0.5838340000000  0.4876860000000 1.0
C      1  0.4330530000000  0.5375190000000  0.5749500000000 1.0
C      1  0.4337800000000  0.4387090000000  0.5556610000000 1.0
C      1  0.4275660000000  0.4268110000000  0.4593620000000 1.0
C      1  0.4317130000000  0.5105720000000  0.4180450000000 1.0
C      1  0.5658730000000  0.5843170000000  0.4880090000000 1.0
C      1  0.5663650000000  0.5375020000000  0.5740550000000 1.0
C      1  0.5676160000000  0.4403380000000  0.5586600000000 1.0
C      1  0.5683750000000  0.4252880000000  0.4609330000000 1.0
C      1  0.5677400000000  0.5139150000000  0.4154190000000 1.0
C      1  0.5705870000000  0.4246370000000  0.5337140000000 1.0
C      1  0.5694030000000  0.4458450000000  0.4381600000000 1.0
C      1  0.5706470000000  0.5413870000000  0.4282530000000 1.0
C      1  0.5699830000000  0.5799440000000  0.5167820000000 1.0
C      1  0.5692130000000  0.5087180000000  0.5808790000000 1.0
C      1  0.4293300000000  0.4199840000000  0.5323030000000 1.0
C      1  0.4279650000000  0.4478340000000  0.4358640000000 1.0
C      1  0.4308570000000  0.5386280000000  0.4297310000000 1.0
C      1  0.4292550000000  0.5799440000000  0.5177170000000 1.0
C      1  0.4295380000000  0.5074160000000  0.5806260000000 1.0
C      1  0.5236830000000  0.5311190000000  0.5211220000000 1.0
C      1  0.5233380000000  0.4879680000000  0.5452660000000 1.0
C      1  0.5139040000000  0.4593700000000  0.5010370000000 1.0
C      1  0.5175950000000  0.4847660000000  0.4568210000000 1.0
C      1  0.5218700000000  0.5301560000000  0.4771780000000 1.0
C      1  0.4752770000000  0.5342900000000  0.5240220000000 1.0
C      1  0.4751610000000  0.4891610000000  0.5373990000000 1.0
C      1  0.4871010000000  0.4672780000000  0.4979510000000 1.0
C      1  0.4937870000000  0.4954770000000  0.4640210000000 1.0
C      1  0.4742120000000  0.5354020000000  0.4728230000000 1.0
C      1  0.4853000000000  0.4355930000000  0.5849350000000 1.0
C      1  0.4931510000000  0.3996170000000  0.4709050000000 1.0
C      1  0.4874970000000  0.4943490000000  0.3987930000000 1.0
C      1  0.4841060000000  0.5964530000000  0.4609240000000 1.0
C      1  0.4857350000000  0.5709490000000  0.5799700000000 1.0
C      1  0.5135150000000  0.4448900000000  0.5918970000000 1.0
C      1  0.5208690000000  0.3948550000000  0.4781840000000 1.0
C      1  0.5155520000000  0.4902720000000  0.3945040000000 1.0
C      1  0.5145330000000  0.5975730000000  0.4619970000000 1.0
C      1  0.5147910000000  0.5697410000000  0.5807880000000 1.0
C      1  0.5945760000000  0.4643050000000  0.4701330000000 1.0
C      1  0.5980360000000  0.5172790000000  0.4521720000000 1.0
C      1  0.5998890000000  0.5506050000000  0.5037980000000 1.0
C      1  0.5987360000000  0.5131180000000  0.5489810000000 1.0
C      1  0.5969040000000  0.4596930000000  0.5261760000000 1.0
C      1  0.4003340000000  0.4631310000000  0.4685190000000 1.0
C      1  0.4039330000000  0.5177640000000  0.4559350000000 1.0
C      1  0.4009250000000  0.5502230000000  0.5023760000000 1.0
C      1  0.4019770000000  0.5133010000000  0.5480600000000 1.0
C      1  0.4014740000000  0.4589500000000  0.5279440000000 1.0
C      1  0.4834570000000  0.4971040000000  0.4914300000000 1.0
C      1  0.5280950000000  0.4849530000000  0.5014270000000 1.0
C      1  0.5123520000000  0.5097010000000  0.5032010000000 1.0
END
