TITL C-2441162-9305-1264 0.060141537878257 125000 -12503.9335353206 0 0 98 (C1) n - 1
REM
REM in /home/bkarasulu/work/CARBON/AIRSS/Generating-Clusters/ReaxFF-fromJPCA2015/Units_Real/with-SteepDescent/Higher-Symm
REM
REM
REM
REM
REM
REM ./C.cell (1df0a924f5614ab8850e4351716899ee)
REM
REM compiler GCC version 9.2.1 20190827 (Red Hat 9.2.1-1)
REM options -cpp -mtune=generic -march=x86-64 -g -O0 -fpre-include=/usr/include/finclude/math-vector-fortran.h
REM seed -439207655 -832375525 1543670996 -1448495140 868714341 1369329759 -1727030493 -1399582357 -596625757 -1315790924 1400536718 650403723 -2042446564 1266514998 143584039 -661962506 950833772 -1695975217 1417672672 446215240 -568199876 1149311771 207873817 -1337012146 -840681851 1981683947 -735881243 1928188117 1598020879 1371663581 -58460464 1127837561 -143714217
REM
CELL 1.54180   50.00000   50.00000   50.00000   90.00000   90.00000   90.00000
LATT -1
SFAC C  
C      1  0.4810110000000  0.5604360000000  0.4553280000000 1.0
C      1  0.5357280000000  0.5547010000000  0.4557460000000 1.0
C      1  0.5557130000000  0.5052900000000  0.4511830000000 1.0
C      1  0.5407730000000  0.4506460000000  0.4534520000000 1.0
C      1  0.4871620000000  0.4338610000000  0.4545420000000 1.0
C      1  0.4413550000000  0.4681320000000  0.4568750000000 1.0
C      1  0.4419190000000  0.5231920000000  0.4499950000000 1.0
C      1  0.5187320000000  0.5265650000000  0.5178120000000 1.0
C      1  0.5332220000000  0.5023610000000  0.5148990000000 1.0
C      1  0.5215610000000  0.4761310000000  0.5187670000000 1.0
C      1  0.4944300000000  0.4678070000000  0.5188610000000 1.0
C      1  0.4722940000000  0.4846450000000  0.5085370000000 1.0
C      1  0.4661870000000  0.5121100000000  0.5189440000000 1.0
C      1  0.4902120000000  0.5316480000000  0.5117930000000 1.0
C      1  0.4449370000000  0.5475220000000  0.5440260000000 1.0
C      1  0.5004480000000  0.5691110000000  0.5399250000000 1.0
C      1  0.5571490000000  0.5441200000000  0.5411820000000 1.0
C      1  0.5671920000000  0.4832950000000  0.5408860000000 1.0
C      1  0.5302970000000  0.4357520000000  0.5409980000000 1.0
C      1  0.4689830000000  0.4352540000000  0.5404570000000 1.0
C      1  0.4291230000000  0.4709910000000  0.5295810000000 1.0
C      1  0.4647270000000  0.5126830000000  0.4340200000000 1.0
C      1  0.4928070000000  0.5460190000000  0.4346780000000 1.0
C      1  0.5203300000000  0.5427920000000  0.4360910000000 1.0
C      1  0.5449060000000  0.5057860000000  0.4240820000000 1.0
C      1  0.5323940000000  0.4629690000000  0.4297120000000 1.0
C      1  0.4918090000000  0.4586360000000  0.4413030000000 1.0
C      1  0.4537590000000  0.4731420000000  0.4356120000000 1.0
C      1  0.5353930000000  0.4739400000000  0.5679920000000 1.0
C      1  0.4971370000000  0.4544600000000  0.5639580000000 1.0
C      1  0.4608740000000  0.4812870000000  0.5578560000000 1.0
C      1  0.4559880000000  0.5068100000000  0.5461650000000 1.0
C      1  0.4829030000000  0.5357490000000  0.5643870000000 1.0
C      1  0.5222640000000  0.5344900000000  0.5588400000000 1.0
C      1  0.5383820000000  0.5115280000000  0.5540290000000 1.0
C      1  0.5308260000000  0.5019190000000  0.4702310000000 1.0
C      1  0.5222300000000  0.4760610000000  0.4782180000000 1.0
C      1  0.4971610000000  0.4723800000000  0.4660530000000 1.0
C      1  0.4776790000000  0.4863850000000  0.4800260000000 1.0
C      1  0.4767040000000  0.5098280000000  0.4650530000000 1.0
C      1  0.4926090000000  0.5256370000000  0.4815540000000 1.0
C      1  0.5189700000000  0.5256270000000  0.4778590000000 1.0
C      1  0.4664960000000  0.4875700000000  0.4175630000000 1.0
C      1  0.4793070000000  0.5302280000000  0.4152810000000 1.0
C      1  0.5029650000000  0.5247950000000  0.4026790000000 1.0
C      1  0.5285090000000  0.5262690000000  0.4138540000000 1.0
C      1  0.5392300000000  0.4827970000000  0.4129250000000 1.0
C      1  0.5159820000000  0.4687340000000  0.4067780000000 1.0
C      1  0.4885920000000  0.4687980000000  0.4139120000000 1.0
C      1  0.4539660000000  0.5503580000000  0.4904770000000 1.0
C      1  0.5070620000000  0.5670360000000  0.4909040000000 1.0
C      1  0.5611200000000  0.5315220000000  0.4902830000000 1.0
C      1  0.5642730000000  0.4760790000000  0.4891310000000 1.0
C      1  0.5155770000000  0.4346490000000  0.4899150000000 1.0
C      1  0.4630360000000  0.4467770000000  0.4914330000000 1.0
C      1  0.4302670000000  0.5004320000000  0.4893730000000 1.0
C      1  0.4807790000000  0.5587640000000  0.5036210000000 1.0
C      1  0.5323040000000  0.5439170000000  0.4994970000000 1.0
C      1  0.5586410000000  0.5033720000000  0.5012410000000 1.0
C      1  0.5363460000000  0.4608330000000  0.4991470000000 1.0
C      1  0.4899750000000  0.4437480000000  0.5047950000000 1.0
C      1  0.4422380000000  0.4726070000000  0.5041250000000 1.0
C      1  0.4447010000000  0.5231840000000  0.5012250000000 1.0
C      1  0.5084460000000  0.5683490000000  0.4650130000000 1.0
C      1  0.5556710000000  0.5346820000000  0.4613960000000 1.0
C      1  0.5581440000000  0.4723410000000  0.4608340000000 1.0
C      1  0.5160730000000  0.4324000000000  0.4634280000000 1.0
C      1  0.4609220000000  0.4427090000000  0.4648450000000 1.0
C      1  0.4333210000000  0.4971300000000  0.4616210000000 1.0
C      1  0.4564460000000  0.5462800000000  0.4614720000000 1.0
C      1  0.4878890000000  0.4680960000000  0.5872310000000 1.0
C      1  0.4697740000000  0.4896650000000  0.5833190000000 1.0
C      1  0.4728500000000  0.5184550000000  0.5843090000000 1.0
C      1  0.4960130000000  0.5335010000000  0.5896010000000 1.0
C      1  0.5233320000000  0.5249760000000  0.5876090000000 1.0
C      1  0.5357350000000  0.4990410000000  0.5798730000000 1.0
C      1  0.5160830000000  0.4638990000000  0.5837540000000 1.0
C      1  0.4317840000000  0.5750040000000  0.5011800000000 1.0
C      1  0.5122570000000  0.5906090000000  0.4977570000000 1.0
C      1  0.5885500000000  0.5503820000000  0.4996840000000 1.0
C      1  0.5933160000000  0.4615150000000  0.5010350000000 1.0
C      1  0.5262080000000  0.4133170000000  0.4967660000000 1.0
C      1  0.4481540000000  0.4218440000000  0.4960700000000 1.0
C      1  0.4110000000000  0.5003330000000  0.5059820000000 1.0
C      1  0.5655930000000  0.5170440000000  0.5460810000000 1.0
C      1  0.5505130000000  0.4615820000000  0.5482250000000 1.0
C      1  0.5022920000000  0.4323860000000  0.5469780000000 1.0
C      1  0.4495380000000  0.4563990000000  0.5465650000000 1.0
C      1  0.4306930000000  0.5194320000000  0.5468980000000 1.0
C      1  0.4714740000000  0.5553810000000  0.5490620000000 1.0
C      1  0.5273410000000  0.5599470000000  0.5462980000000 1.0
C      1  0.4526390000000  0.4230330000000  0.5216100000000 1.0
C      1  0.4154960000000  0.4979050000000  0.5338590000000 1.0
C      1  0.4398140000000  0.5669710000000  0.5258760000000 1.0
C      1  0.5110730000000  0.5889330000000  0.5234790000000 1.0
C      1  0.5787120000000  0.5483510000000  0.5248940000000 1.0
C      1  0.5836930000000  0.4681790000000  0.5256690000000 1.0
C      1  0.5295170000000  0.4157620000000  0.5220620000000 1.0
END
