TITL C-2441167-4473-1104 0.00521849973459687 125000 -9699.8858400305 0 0 67 (C1) n - 1
REM
REM in /home/bkarasulu/work/CARBON/AIRSS/Generating-Clusters/ReaxFF-fromJPCA2015/Units_Real/with-SteepDescent/Higher-Symm
REM
REM
REM
REM
REM
REM ./C.cell (1df0a924f5614ab8850e4351716899ee)
REM
REM compiler GCC version 9.2.1 20190827 (Red Hat 9.2.1-1)
REM options -cpp -mtune=generic -march=x86-64 -g -O0 -fpre-include=/usr/include/finclude/math-vector-fortran.h
REM seed 1012323429 397710602 -1570120981 761193699 -2074525808 73742747 1238582680 748504282 -1713789311 1085455466 -244511546 -607849817 -884611395 2133371438 -1940303066 1139345837 -346376899 -1639774273 1928838562 -1221100423 1062220912 -1444614208 485909041 -1073537762 15957371 -756176532 1376751366 -51832653 1349517697 -129111358 -408774212 696750536 1656850523
REM
CELL 1.54180   50.00000   50.00000   50.00000   90.00000   90.00000   90.00000
LATT -1
SFAC C  
C      1  0.4566960000000  0.5476480000000  0.4629080000000 1.0
C      1  0.4300350000000  0.4945320000000  0.5129700000000 1.0
C      1  0.5232030000000  0.5407540000000  0.4420000000000 1.0
C      1  0.5633230000000  0.4952560000000  0.5483460000000 1.0
C      1  0.5527960000000  0.5516980000000  0.4877950000000 1.0
C      1  0.5253410000000  0.5769920000000  0.4692610000000 1.0
C      1  0.5668310000000  0.5324900000000  0.5045020000000 1.0
C      1  0.5677310000000  0.5176760000000  0.5440400000000 1.0
C      1  0.5134980000000  0.5747330000000  0.4941270000000 1.0
C      1  0.4712400000000  0.5075770000000  0.4942630000000 1.0
C      1  0.5051930000000  0.4771690000000  0.5081380000000 1.0
C      1  0.4769680000000  0.4353870000000  0.4963890000000 1.0
C      1  0.4623890000000  0.4870430000000  0.4420100000000 1.0
C      1  0.5532230000000  0.4859380000000  0.4560030000000 1.0
C      1  0.4395800000000  0.5164870000000  0.5297650000000 1.0
C      1  0.4366890000000  0.4664440000000  0.5177060000000 1.0
C      1  0.4625630000000  0.5605090000000  0.5262960000000 1.0
C      1  0.5400250000000  0.4365890000000  0.5085190000000 1.0
C      1  0.5260790000000  0.4327740000000  0.4825830000000 1.0
C      1  0.4350660000000  0.4420050000000  0.4656510000000 1.0
C      1  0.4392660000000  0.5270100000000  0.4619520000000 1.0
C      1  0.5122230000000  0.5430380000000  0.5406140000000 1.0
C      1  0.4926370000000  0.5508070000000  0.5652720000000 1.0
C      1  0.5396140000000  0.5704390000000  0.5070980000000 1.0
C      1  0.4418980000000  0.5413140000000  0.5167260000000 1.0
C      1  0.4995570000000  0.4770680000000  0.4782870000000 1.0
C      1  0.5636860000000  0.4769070000000  0.4955040000000 1.0
C      1  0.5060550000000  0.4908570000000  0.5569770000000 1.0
C      1  0.4703110000000  0.4426040000000  0.5231080000000 1.0
C      1  0.5050170000000  0.4640270000000  0.4532790000000 1.0
C      1  0.4859890000000  0.5014370000000  0.4357820000000 1.0
C      1  0.5380180000000  0.5570270000000  0.5330090000000 1.0
C      1  0.4582790000000  0.5101280000000  0.5549820000000 1.0
C      1  0.5690470000000  0.5057250000000  0.4907570000000 1.0
C      1  0.4720330000000  0.5655520000000  0.5527920000000 1.0
C      1  0.5522330000000  0.4698410000000  0.5460260000000 1.0
C      1  0.4757210000000  0.5281020000000  0.5673360000000 1.0
C      1  0.5158130000000  0.5216330000000  0.4888440000000 1.0
C      1  0.4995080000000  0.4479140000000  0.5290640000000 1.0
C      1  0.4289860000000  0.4888450000000  0.4829840000000 1.0
C      1  0.5610170000000  0.5116400000000  0.4631450000000 1.0
C      1  0.4497440000000  0.5318650000000  0.4881820000000 1.0
C      1  0.4407650000000  0.4996860000000  0.4588190000000 1.0
C      1  0.4852360000000  0.5491550000000  0.4585650000000 1.0
C      1  0.4617270000000  0.4687410000000  0.5316520000000 1.0
C      1  0.4993000000000  0.4217870000000  0.4860180000000 1.0
C      1  0.4613990000000  0.4377470000000  0.4524980000000 1.0
C      1  0.4766600000000  0.4880180000000  0.5564210000000 1.0
C      1  0.4888390000000  0.5484180000000  0.5194320000000 1.0
C      1  0.4931980000000  0.5054360000000  0.4750020000000 1.0
C      1  0.5561240000000  0.4627320000000  0.4689270000000 1.0
C      1  0.4741640000000  0.4212340000000  0.4731690000000 1.0
C      1  0.5156620000000  0.4423040000000  0.5541610000000 1.0
C      1  0.4978340000000  0.5479640000000  0.4917350000000 1.0
C      1  0.4285010000000  0.4600320000000  0.4883340000000 1.0
C      1  0.5392430000000  0.5335100000000  0.4670560000000 1.0
C      1  0.4781300000000  0.4895140000000  0.5140290000000 1.0
C      1  0.5200770000000  0.5035120000000  0.5125080000000 1.0
C      1  0.4770520000000  0.4612200000000  0.4426720000000 1.0
C      1  0.5633990000000  0.5427270000000  0.5325050000000 1.0
C      1  0.5167150000000  0.5119500000000  0.5389910000000 1.0
C      1  0.4970280000000  0.5273800000000  0.4379270000000 1.0
C      1  0.5546940000000  0.4604980000000  0.5174030000000 1.0
C      1  0.5102590000000  0.5663460000000  0.4478580000000 1.0
C      1  0.5222630000000  0.4279600000000  0.5298300000000 1.0
C      1  0.5258830000000  0.4686270000000  0.5599390000000 1.0
C      1  0.5307280000000  0.4500240000000  0.4595550000000 1.0
END
