TITL C-2441156-4686-126 0.00782435081132703 125000 -5732.86342702635 0 0 42 (C1) n - 1
REM
REM in /home/bkarasulu/work/CARBON/AIRSS/Generating-Clusters/ReaxFF-fromJPCA2015/Units_Real/with-SteepDescent/Higher-Symm
REM
REM
REM
REM
REM
REM ./C.cell (1df0a924f5614ab8850e4351716899ee)
REM
REM compiler GCC version 9.2.1 20190827 (Red Hat 9.2.1-1)
REM options -cpp -mtune=generic -march=x86-64 -g -O0 -fpre-include=/usr/include/finclude/math-vector-fortran.h
REM seed 488717420 404861722 1394328163 1292040505 -936624867 1894681656 35309356 2142972457 -609911305 -2081496059 -1911602828 -154649555 -888605270 1151858342 2020377329 879757949 -1223541591 775210779 2046867110 646578993 -599788889 -870689658 1542807460 994138260 1738906065 -774051106 1535112331 -472583333 -1438477131 -1462509519 -1141659510 1478230952 -128405046
REM
CELL 1.54180   50.00000   50.00000   50.00000   90.00000   90.00000   90.00000
LATT -1
SFAC C  
C      1  0.5025310000000  0.4769580000000  0.4377410000000 1.0
C      1  0.4418180000000  0.4856020000000  0.4533790000000 1.0
C      1  0.4563530000000  0.4687440000000  0.4947990000000 1.0
C      1  0.4224880000000  0.5064810000000  0.4999630000000 1.0
C      1  0.5059940000000  0.4487360000000  0.5336040000000 1.0
C      1  0.5446940000000  0.5034250000000  0.5428580000000 1.0
C      1  0.5431130000000  0.4764000000000  0.5563380000000 1.0
C      1  0.4947070000000  0.4685730000000  0.5514400000000 1.0
C      1  0.4452500000000  0.4901380000000  0.5377730000000 1.0
C      1  0.5152780000000  0.4973700000000  0.4250510000000 1.0
C      1  0.4437930000000  0.4940320000000  0.4840400000000 1.0
C      1  0.4204520000000  0.5054690000000  0.5300560000000 1.0
C      1  0.4904200000000  0.4578800000000  0.4557600000000 1.0
C      1  0.4846250000000  0.4649470000000  0.4851180000000 1.0
C      1  0.5040920000000  0.4819250000000  0.4986910000000 1.0
C      1  0.5522160000000  0.4628940000000  0.5304730000000 1.0
C      1  0.5451580000000  0.5334200000000  0.4580630000000 1.0
C      1  0.5046000000000  0.5594200000000  0.5032120000000 1.0
C      1  0.4639800000000  0.5413320000000  0.4866530000000 1.0
C      1  0.4557040000000  0.4662430000000  0.5249390000000 1.0
C      1  0.5065800000000  0.5187460000000  0.5592160000000 1.0
C      1  0.5254770000000  0.5275020000000  0.5404990000000 1.0
C      1  0.4756160000000  0.5564040000000  0.5089230000000 1.0
C      1  0.4894910000000  0.4979570000000  0.5499700000000 1.0
C      1  0.5612970000000  0.4902370000000  0.5219600000000 1.0
C      1  0.5265710000000  0.5517480000000  0.4668350000000 1.0
C      1  0.4625540000000  0.5308440000000  0.5145380000000 1.0
C      1  0.5293820000000  0.4514040000000  0.5162560000000 1.0
C      1  0.4683040000000  0.5060220000000  0.5299070000000 1.0
C      1  0.5686880000000  0.5300760000000  0.4734900000000 1.0
C      1  0.4777430000000  0.4527550000000  0.5368530000000 1.0
C      1  0.5261100000000  0.5067200000000  0.4561510000000 1.0
C      1  0.5263410000000  0.4644480000000  0.4897120000000 1.0
C      1  0.4848220000000  0.5406850000000  0.4656280000000 1.0
C      1  0.5045850000000  0.5118870000000  0.4970410000000 1.0
C      1  0.5749800000000  0.5157440000000  0.4935030000000 1.0
C      1  0.5388450000000  0.4860870000000  0.4747830000000 1.0
C      1  0.4424450000000  0.4586020000000  0.4632300000000 1.0
C      1  0.5156460000000  0.5339480000000  0.5129460000000 1.0
C      1  0.4999110000000  0.5160590000000  0.4687660000000 1.0
C      1  0.5543120000000  0.4983270000000  0.4963050000000 1.0
C      1  0.5030340000000  0.5638090000000  0.4735370000000 1.0
END
