TITL C-2441158-471-1209 0.0232514137914164 125000 -21495.576493683 0 0 148 (C1) n - 1
REM
REM in /home/bkarasulu/work/CARBON/AIRSS/Generating-Clusters/ReaxFF-fromJPCA2015/Units_Real/with-SteepDescent/Higher-Symm
REM
REM
REM
REM
REM
REM ./C.cell (1df0a924f5614ab8850e4351716899ee)
REM
REM compiler GCC version 9.2.1 20190827 (Red Hat 9.2.1-1)
REM options -cpp -mtune=generic -march=x86-64 -g -O0 -fpre-include=/usr/include/finclude/math-vector-fortran.h
REM seed 444256508 1659207390 186392749 -194371653 1314609553 134341658 -993491861 -791344213 1821124635 1082119094 1738630974 -1647630079 337675020 -1024474052 -897854643 301341427 1231471655 1583217846 -959320360 -489205502 905035137 -93369987 -2025084193 -903580993 -1687530572 -1265277084 778291481 -545665246 -1511976945 2086288281 -1624312593 2043356777 -1177232274
REM
CELL 1.54180   50.00000   50.00000   50.00000   90.00000   90.00000   90.00000
LATT -1
SFAC C  
C      1  0.5964690000000  0.4891790000000  0.4675380000000 1.0
C      1  0.5988480000000  0.5128330000000  0.5322700000000 1.0
C      1  0.4031600000000  0.5107180000000  0.4679130000000 1.0
C      1  0.4029710000000  0.4893430000000  0.5332780000000 1.0
C      1  0.5961790000000  0.4676420000000  0.4888560000000 1.0
C      1  0.5984730000000  0.5339000000000  0.5107860000000 1.0
C      1  0.4016910000000  0.4678750000000  0.5114800000000 1.0
C      1  0.4022980000000  0.5325790000000  0.4887220000000 1.0
C      1  0.4716630000000  0.5082770000000  0.5874680000000 1.0
C      1  0.4714820000000  0.4917950000000  0.4120200000000 1.0
C      1  0.5277610000000  0.4926600000000  0.5876760000000 1.0
C      1  0.5286720000000  0.5073600000000  0.4118310000000 1.0
C      1  0.4728360000000  0.5876110000000  0.5077480000000 1.0
C      1  0.4722640000000  0.4126130000000  0.4922880000000 1.0
C      1  0.5273670000000  0.5869730000000  0.4920500000000 1.0
C      1  0.5285660000000  0.4124220000000  0.5082910000000 1.0
C      1  0.5044590000000  0.4546190000000  0.4355520000000 1.0
C      1  0.5040090000000  0.5447290000000  0.5649470000000 1.0
C      1  0.4958380000000  0.5450580000000  0.4352870000000 1.0
C      1  0.4955500000000  0.4551350000000  0.5652130000000 1.0
C      1  0.5043250000000  0.4346680000000  0.4545200000000 1.0
C      1  0.5041070000000  0.5642770000000  0.5446000000000 1.0
C      1  0.4960170000000  0.4354880000000  0.5453530000000 1.0
C      1  0.4961170000000  0.5647270000000  0.4550700000000 1.0
C      1  0.4426490000000  0.5003190000000  0.5210150000000 1.0
C      1  0.4432390000000  0.4999220000000  0.4807700000000 1.0
C      1  0.5588950000000  0.4972080000000  0.5218850000000 1.0
C      1  0.5564820000000  0.4994280000000  0.4811630000000 1.0
C      1  0.4427830000000  0.5204310000000  0.5008990000000 1.0
C      1  0.4427980000000  0.4799550000000  0.5010460000000 1.0
C      1  0.5584140000000  0.5189730000000  0.5010810000000 1.0
C      1  0.5565050000000  0.4791990000000  0.4998530000000 1.0
C      1  0.5906070000000  0.4618940000000  0.5166910000000 1.0
C      1  0.5920180000000  0.5385150000000  0.4824100000000 1.0
C      1  0.4086680000000  0.5380670000000  0.5171670000000 1.0
C      1  0.4082140000000  0.4618150000000  0.4833220000000 1.0
C      1  0.5912150000000  0.5172950000000  0.4618700000000 1.0
C      1  0.5868070000000  0.4852320000000  0.5369760000000 1.0
C      1  0.4094990000000  0.5176290000000  0.5384780000000 1.0
C      1  0.4085480000000  0.4824550000000  0.4621290000000 1.0
C      1  0.4718910000000  0.4539690000000  0.5804450000000 1.0
C      1  0.4729650000000  0.5454920000000  0.4190570000000 1.0
C      1  0.5266830000000  0.5465150000000  0.5803140000000 1.0
C      1  0.5282270000000  0.4536120000000  0.4201090000000 1.0
C      1  0.4725960000000  0.5795600000000  0.4541070000000 1.0
C      1  0.4729900000000  0.4201170000000  0.5463470000000 1.0
C      1  0.5274130000000  0.5789710000000  0.5456080000000 1.0
C      1  0.5272860000000  0.4183320000000  0.4537290000000 1.0
C      1  0.5584190000000  0.5789660000000  0.4928240000000 1.0
C      1  0.5576760000000  0.4215850000000  0.5060130000000 1.0
C      1  0.4422830000000  0.4214370000000  0.4936170000000 1.0
C      1  0.4413460000000  0.5795240000000  0.5066030000000 1.0
C      1  0.5565830000000  0.4955820000000  0.5786880000000 1.0
C      1  0.5583770000000  0.5067930000000  0.4212510000000 1.0
C      1  0.4424990000000  0.4937760000000  0.4221280000000 1.0
C      1  0.4421610000000  0.5059180000000  0.5790820000000 1.0
C      1  0.5046180000000  0.5135270000000  0.3932500000000 1.0
C      1  0.5042030000000  0.4864530000000  0.6064430000000 1.0
C      1  0.4959160000000  0.4856260000000  0.3939980000000 1.0
C      1  0.4950820000000  0.5141280000000  0.6067850000000 1.0
C      1  0.5045110000000  0.3938310000000  0.5141450000000 1.0
C      1  0.5042960000000  0.6062340000000  0.4860410000000 1.0
C      1  0.4954640000000  0.3935320000000  0.4862670000000 1.0
C      1  0.4960560000000  0.6064310000000  0.5141070000000 1.0
C      1  0.4646520000000  0.5359590000000  0.4884200000000 1.0
C      1  0.4640710000000  0.4614190000000  0.5116420000000 1.0
C      1  0.5360750000000  0.4624790000000  0.4876720000000 1.0
C      1  0.5358980000000  0.5351880000000  0.5117340000000 1.0
C      1  0.4646510000000  0.4882890000000  0.5360490000000 1.0
C      1  0.4642390000000  0.5115940000000  0.4629130000000 1.0
C      1  0.5366590000000  0.4877980000000  0.4622620000000 1.0
C      1  0.5362310000000  0.5112060000000  0.5376670000000 1.0
C      1  0.4780770000000  0.5956970000000  0.4778430000000 1.0
C      1  0.4783340000000  0.4041190000000  0.5227760000000 1.0
C      1  0.5219100000000  0.4034860000000  0.4775460000000 1.0
C      1  0.5221690000000  0.5953010000000  0.5223420000000 1.0
C      1  0.4781350000000  0.4773530000000  0.5959030000000 1.0
C      1  0.4781070000000  0.5222220000000  0.4033340000000 1.0
C      1  0.5224340000000  0.4776390000000  0.4042130000000 1.0
C      1  0.5209700000000  0.5234590000000  0.5964150000000 1.0
C      1  0.4331100000000  0.4339380000000  0.5359290000000 1.0
C      1  0.4317080000000  0.5679830000000  0.4627000000000 1.0
C      1  0.5671530000000  0.5679470000000  0.5380500000000 1.0
C      1  0.5647490000000  0.4319090000000  0.4610160000000 1.0
C      1  0.4358140000000  0.5392570000000  0.4331150000000 1.0
C      1  0.4334360000000  0.4606590000000  0.5671340000000 1.0
C      1  0.5659000000000  0.5373480000000  0.5648730000000 1.0
C      1  0.5662220000000  0.4626870000000  0.4309680000000 1.0
C      1  0.5533260000000  0.4388230000000  0.4840250000000 1.0
C      1  0.5514490000000  0.5618930000000  0.5149580000000 1.0
C      1  0.4490090000000  0.5622850000000  0.4848480000000 1.0
C      1  0.4485350000000  0.4375490000000  0.5149730000000 1.0
C      1  0.5549560000000  0.4850570000000  0.4385670000000 1.0
C      1  0.5505670000000  0.5161160000000  0.5613810000000 1.0
C      1  0.4495590000000  0.4841120000000  0.5618030000000 1.0
C      1  0.4466190000000  0.5156430000000  0.4392410000000 1.0
C      1  0.4367930000000  0.4319090000000  0.4539610000000 1.0
C      1  0.4366420000000  0.5702250000000  0.5465130000000 1.0
C      1  0.5630710000000  0.5688690000000  0.4528040000000 1.0
C      1  0.5630130000000  0.4304310000000  0.5460680000000 1.0
C      1  0.4374100000000  0.4537800000000  0.4316960000000 1.0
C      1  0.4363670000000  0.5488700000000  0.5676250000000 1.0
C      1  0.5645130000000  0.4518600000000  0.5674500000000 1.0
C      1  0.5623230000000  0.5466230000000  0.4313540000000 1.0
C      1  0.4067170000000  0.5527350000000  0.4675200000000 1.0
C      1  0.4071110000000  0.4474930000000  0.5323280000000 1.0
C      1  0.5891370000000  0.4471660000000  0.4682310000000 1.0
C      1  0.5920440000000  0.5538680000000  0.5317680000000 1.0
C      1  0.4077370000000  0.4677860000000  0.5532190000000 1.0
C      1  0.4105960000000  0.5314460000000  0.4474620000000 1.0
C      1  0.5903530000000  0.4683660000000  0.4474070000000 1.0
C      1  0.5918970000000  0.5333840000000  0.5518730000000 1.0
C      1  0.5128050000000  0.4668900000000  0.5082090000000 1.0
C      1  0.5124600000000  0.5321340000000  0.4913850000000 1.0
C      1  0.4880780000000  0.5323730000000  0.5083170000000 1.0
C      1  0.4884810000000  0.4667030000000  0.4912410000000 1.0
C      1  0.5124250000000  0.5080280000000  0.4666510000000 1.0
C      1  0.5127600000000  0.4911910000000  0.5333110000000 1.0
C      1  0.4880760000000  0.5080830000000  0.5328780000000 1.0
C      1  0.4879740000000  0.4907860000000  0.4667560000000 1.0
C      1  0.4625770000000  0.5405280000000  0.5578840000000 1.0
C      1  0.4638670000000  0.4601250000000  0.4419330000000 1.0
C      1  0.5370670000000  0.4580880000000  0.5590480000000 1.0
C      1  0.5369100000000  0.5390620000000  0.4438010000000 1.0
C      1  0.4628100000000  0.5585970000000  0.5394800000000 1.0
C      1  0.4633320000000  0.4426910000000  0.4599680000000 1.0
C      1  0.5374640000000  0.5575070000000  0.4612740000000 1.0
C      1  0.5365230000000  0.4412580000000  0.5400230000000 1.0
C      1  0.4228330000000  0.5230270000000  0.5650530000000 1.0
C      1  0.4220970000000  0.4780920000000  0.4356820000000 1.0
C      1  0.5752680000000  0.4781150000000  0.5653720000000 1.0
C      1  0.5780750000000  0.5226840000000  0.4351430000000 1.0
C      1  0.4214640000000  0.5648520000000  0.5223640000000 1.0
C      1  0.4217220000000  0.4355250000000  0.4780870000000 1.0
C      1  0.5788940000000  0.5649760000000  0.4768940000000 1.0
C      1  0.5780720000000  0.4357750000000  0.5212520000000 1.0
C      1  0.4854560000000  0.4772990000000  0.4386660000000 1.0
C      1  0.4839320000000  0.5222060000000  0.5617630000000 1.0
C      1  0.5150230000000  0.5218960000000  0.4393020000000 1.0
C      1  0.5155690000000  0.4775790000000  0.5618140000000 1.0
C      1  0.4853290000000  0.4382860000000  0.4779770000000 1.0
C      1  0.4844670000000  0.5618060000000  0.5219900000000 1.0
C      1  0.5155170000000  0.4384310000000  0.5223130000000 1.0
C      1  0.5155010000000  0.5615300000000  0.4779480000000 1.0
C      1  0.4486450000000  0.5660440000000  0.4386860000000 1.0
C      1  0.4478490000000  0.4348660000000  0.5613570000000 1.0
C      1  0.5514390000000  0.4377700000000  0.4349040000000 1.0
C      1  0.5507870000000  0.5632430000000  0.5632140000000 1.0
END
