TITL C-2441166-8118-756 -0.0011545120076132 125000 -1013.85893911693 0 0 8 (C3) n - 1
REM
REM in /home/bkarasulu/work/CARBON/AIRSS/Generating-Clusters/ReaxFF-fromJPCA2015/Units_Real/with-SteepDescent/Higher-Symm
REM
REM
REM
REM
REM
REM ./C.cell (1df0a924f5614ab8850e4351716899ee)
REM
REM compiler GCC version 9.2.1 20190827 (Red Hat 9.2.1-1)
REM options -cpp -mtune=generic -march=x86-64 -g -O0 -fpre-include=/usr/include/finclude/math-vector-fortran.h
REM seed -705498629 46805302 382466600 -2077931592 -852966088 1071892750 1142036770 -211825265 -958271917 -14881863 1334356650 1604626437 952931327 -640780143 -1488748346 361418780 -480879810 1160664435 853758278 -2020007690 -1297325861 -1900741062 553586515 115532519 -1621093505 1539842144 1776311335 -994449498 -355346303 -748295168 -792433243 1208532047 -374860802
REM
CELL 1.54180   50.00000   50.00000   50.00000   90.00000   90.00000   90.00000
LATT -1
SFAC C  
C      1  0.4674470000000  0.5167800000000  0.5046300000000 1.0
C      1  0.5095030000000  0.5167850000000  0.4663920000000 1.0
C      1  0.5215840000000  0.5167800000000  0.5219320000000 1.0
C      1  0.5256140000000  0.4888280000000  0.5169260000000 1.0
C      1  0.4697650000000  0.4888260000000  0.5106160000000 1.0
C      1  0.5031520000000  0.4888390000000  0.4654210000000 1.0
C      1  0.4995090000000  0.4846960000000  0.4976550000000 1.0
C      1  0.4995130000000  0.5158570000000  0.4976400000000 1.0
END
