TITL C-2441162-9305-374 0.0307150812998213 125000 -17269.007240702 0 0 119 (C1) n - 1
REM
REM in /home/bkarasulu/work/CARBON/AIRSS/Generating-Clusters/ReaxFF-fromJPCA2015/Units_Real/with-SteepDescent/Higher-Symm
REM
REM
REM
REM
REM
REM ./C.cell (1df0a924f5614ab8850e4351716899ee)
REM
REM compiler GCC version 9.2.1 20190827 (Red Hat 9.2.1-1)
REM options -cpp -mtune=generic -march=x86-64 -g -O0 -fpre-include=/usr/include/finclude/math-vector-fortran.h
REM seed 379536087 867638224 -163926333 1490554636 1946027095 -738113078 -1379653508 -1605378498 -1151979953 85651908 -1944425095 1027424000 1083097321 -1844142308 -1878265165 -1770523188 1009433410 1224384851 2075937944 836709074 -1807054769 791182328 -1742744834 1846967838 -2045299517 -1506976984 -1300959194 -1144635763 -686293937 1447199684 -679745183 701825577 2029703110
REM
CELL 1.54180   50.00000   50.00000   50.00000   90.00000   90.00000   90.00000
LATT -1
SFAC C  
C      1  0.5682570000000  0.5003660000000  0.4473830000000 1.0
C      1  0.5676530000000  0.5654270000000  0.4922170000000 1.0
C      1  0.5706940000000  0.5225270000000  0.5456700000000 1.0
C      1  0.5745810000000  0.4652720000000  0.5419590000000 1.0
C      1  0.5679890000000  0.4467300000000  0.4745970000000 1.0
C      1  0.4281960000000  0.5121630000000  0.4480210000000 1.0
C      1  0.4316540000000  0.5529680000000  0.4919130000000 1.0
C      1  0.4291850000000  0.5249780000000  0.5492640000000 1.0
C      1  0.4287080000000  0.4657430000000  0.5400910000000 1.0
C      1  0.4216080000000  0.4391710000000  0.4768200000000 1.0
C      1  0.5441790000000  0.4574220000000  0.5059760000000 1.0
C      1  0.5450600000000  0.4844620000000  0.4910050000000 1.0
C      1  0.5602760000000  0.5385390000000  0.4630450000000 1.0
C      1  0.5365240000000  0.5313280000000  0.5154710000000 1.0
C      1  0.5373470000000  0.4945350000000  0.5355180000000 1.0
C      1  0.4535010000000  0.4628970000000  0.5033140000000 1.0
C      1  0.4516330000000  0.4751150000000  0.4650300000000 1.0
C      1  0.4647520000000  0.5247270000000  0.4651150000000 1.0
C      1  0.4584210000000  0.5258410000000  0.5196790000000 1.0
C      1  0.4607700000000  0.4981040000000  0.5261700000000 1.0
C      1  0.5150290000000  0.4516760000000  0.4200140000000 1.0
C      1  0.5174170000000  0.5614670000000  0.4303870000000 1.0
C      1  0.5145310000000  0.5860970000000  0.5403450000000 1.0
C      1  0.5137440000000  0.4884700000000  0.5908780000000 1.0
C      1  0.5103370000000  0.4111260000000  0.5229590000000 1.0
C      1  0.4808410000000  0.4518220000000  0.4255350000000 1.0
C      1  0.4845490000000  0.5622130000000  0.4296520000000 1.0
C      1  0.4838560000000  0.5855260000000  0.5395410000000 1.0
C      1  0.4829140000000  0.4894950000000  0.5924940000000 1.0
C      1  0.4805570000000  0.4078990000000  0.5191720000000 1.0
C      1  0.5208540000000  0.4214560000000  0.5491430000000 1.0
C      1  0.5199330000000  0.4427280000000  0.4602240000000 1.0
C      1  0.5206810000000  0.5212030000000  0.4290490000000 1.0
C      1  0.5217230000000  0.5798090000000  0.4974780000000 1.0
C      1  0.5193270000000  0.5231630000000  0.5670080000000 1.0
C      1  0.4782810000000  0.4443790000000  0.5397680000000 1.0
C      1  0.4774000000000  0.4298810000000  0.4465550000000 1.0
C      1  0.4781930000000  0.5219470000000  0.4390780000000 1.0
C      1  0.4779720000000  0.5730210000000  0.4979830000000 1.0
C      1  0.4764280000000  0.5276400000000  0.5723120000000 1.0
C      1  0.4153010000000  0.5103580000000  0.4748820000000 1.0
C      1  0.4176420000000  0.5283450000000  0.4966820000000 1.0
C      1  0.4160610000000  0.5143770000000  0.5260960000000 1.0
C      1  0.4126230000000  0.4859910000000  0.5240130000000 1.0
C      1  0.4104680000000  0.4621660000000  0.4854480000000 1.0
C      1  0.5828390000000  0.4948410000000  0.4739320000000 1.0
C      1  0.5793380000000  0.5398400000000  0.4847010000000 1.0
C      1  0.5855820000000  0.5076710000000  0.5245860000000 1.0
C      1  0.5848290000000  0.4786750000000  0.5190020000000 1.0
C      1  0.5824180000000  0.4696020000000  0.4881390000000 1.0
C      1  0.4834950000000  0.5161800000000  0.4834060000000 1.0
C      1  0.4843830000000  0.5254750000000  0.5087760000000 1.0
C      1  0.4872930000000  0.4938030000000  0.5380540000000 1.0
C      1  0.4796660000000  0.4629650000000  0.4980970000000 1.0
C      1  0.4802970000000  0.4732900000000  0.4724780000000 1.0
C      1  0.5106610000000  0.5160660000000  0.4742990000000 1.0
C      1  0.5089800000000  0.5369160000000  0.5173760000000 1.0
C      1  0.5121870000000  0.4860100000000  0.5267440000000 1.0
C      1  0.5177480000000  0.4617190000000  0.5163600000000 1.0
C      1  0.5242360000000  0.4904510000000  0.4718340000000 1.0
C      1  0.5291330000000  0.5752930000000  0.4530910000000 1.0
C      1  0.5295740000000  0.5656440000000  0.5529990000000 1.0
C      1  0.5279220000000  0.4680180000000  0.5771680000000 1.0
C      1  0.5271450000000  0.4139370000000  0.4980700000000 1.0
C      1  0.5298530000000  0.4759880000000  0.4178210000000 1.0
C      1  0.4695920000000  0.5721920000000  0.4518420000000 1.0
C      1  0.4698830000000  0.5662230000000  0.5540230000000 1.0
C      1  0.4670260000000  0.4696250000000  0.5789970000000 1.0
C      1  0.4668250000000  0.4151520000000  0.4955550000000 1.0
C      1  0.4672470000000  0.4792070000000  0.4236780000000 1.0
C      1  0.4848490000000  0.5529980000000  0.5730080000000 1.0
C      1  0.4848260000000  0.4487680000000  0.5678330000000 1.0
C      1  0.4829590000000  0.4184080000000  0.4715600000000 1.0
C      1  0.4848560000000  0.4994490000000  0.4212330000000 1.0
C      1  0.4843070000000  0.5853550000000  0.4725390000000 1.0
C      1  0.5132340000000  0.5513860000000  0.5715550000000 1.0
C      1  0.5134080000000  0.4448940000000  0.5681520000000 1.0
C      1  0.5116130000000  0.4186010000000  0.4745860000000 1.0
C      1  0.5117240000000  0.4984200000000  0.4140140000000 1.0
C      1  0.5126180000000  0.5883650000000  0.4719630000000 1.0
C      1  0.4624440000000  0.5865330000000  0.5184920000000 1.0
C      1  0.4616170000000  0.5099730000000  0.5894740000000 1.0
C      1  0.4596200000000  0.4220590000000  0.5365910000000 1.0
C      1  0.4560600000000  0.4376410000000  0.4360620000000 1.0
C      1  0.4627800000000  0.5439040000000  0.4225720000000 1.0
C      1  0.5366000000000  0.5905120000000  0.5201820000000 1.0
C      1  0.5358280000000  0.5085760000000  0.5855330000000 1.0
C      1  0.5457200000000  0.4248190000000  0.5389800000000 1.0
C      1  0.5351940000000  0.4374910000000  0.4353780000000 1.0
C      1  0.5390990000000  0.5422780000000  0.4228530000000 1.0
C      1  0.5651350000000  0.4416690000000  0.5295970000000 1.0
C      1  0.5595520000000  0.4512890000000  0.4467280000000 1.0
C      1  0.5597790000000  0.5265760000000  0.4377190000000 1.0
C      1  0.5592570000000  0.5716780000000  0.5191400000000 1.0
C      1  0.5609150000000  0.5079180000000  0.5684900000000 1.0
C      1  0.4359740000000  0.4386720000000  0.5307710000000 1.0
C      1  0.4379970000000  0.4499360000000  0.4549460000000 1.0
C      1  0.4377020000000  0.5385360000000  0.4379090000000 1.0
C      1  0.4400800000000  0.5669130000000  0.5154350000000 1.0
C      1  0.4388990000000  0.5058880000000  0.5694220000000 1.0
C      1  0.4470020000000  0.5482110000000  0.5383860000000 1.0
C      1  0.4419190000000  0.4779650000000  0.5633870000000 1.0
C      1  0.4415840000000  0.4345040000000  0.5011050000000 1.0
C      1  0.4445680000000  0.4885480000000  0.4398270000000 1.0
C      1  0.4483260000000  0.5499170000000  0.4642580000000 1.0
C      1  0.5520890000000  0.5474570000000  0.5355680000000 1.0
C      1  0.5520890000000  0.4809530000000  0.5577280000000 1.0
C      1  0.5490120000000  0.4323070000000  0.4913340000000 1.0
C      1  0.5556900000000  0.4773920000000  0.4353900000000 1.0
C      1  0.5506390000000  0.5639280000000  0.4682940000000 1.0
C      1  0.4945580000000  0.5115310000000  0.5578400000000 1.0
C      1  0.5068610000000  0.4692680000000  0.4615100000000 1.0
C      1  0.5043490000000  0.5297460000000  0.4500560000000 1.0
C      1  0.4944030000000  0.4488700000000  0.5161910000000 1.0
C      1  0.5023930000000  0.5623150000000  0.5084840000000 1.0
C      1  0.4497160000000  0.4907020000000  0.5010580000000 1.0
C      1  0.5465650000000  0.5049390000000  0.5111350000000 1.0
C      1  0.4048010000000  0.4872840000000  0.4942480000000 1.0
C      1  0.5886490000000  0.5146290000000  0.4953800000000 1.0
END
