TITL C-2441158-471-1335 2.95242108617688e-13 125000 -471.540439798486 0 0 4 (D4h) n - 1
REM
REM in /home/bkarasulu/work/CARBON/AIRSS/Generating-Clusters/ReaxFF-fromJPCA2015/Units_Real/with-SteepDescent/Higher-Symm
REM
REM
REM
REM
REM
REM ./C.cell (1df0a924f5614ab8850e4351716899ee)
REM
REM compiler GCC version 9.2.1 20190827 (Red Hat 9.2.1-1)
REM options -cpp -mtune=generic -march=x86-64 -g -O0 -fpre-include=/usr/include/finclude/math-vector-fortran.h
REM seed 1475258499 1034638576 812819745 1721575973 -1441295970 -2011828891 -138964307 399122503 -1470648145 -1400779566 653915535 -11340107 -1575313670 413910074 1130465304 136835764 -389364441 2091320666 628373425 1607906082 1575523680 -1330289542 159044429 166757862 910575834 -2077945785 -1751964574 -518905877 316272060 1977344319 -1996811173 -31165058 -746330619
REM
CELL 1.54180   50.00000   50.00000   50.00000   90.00000   90.00000   90.00000
LATT -1
SFAC C  
C      1  0.4923080000000  0.5202520000000  0.5029780000000 1.0
C      1  0.5202520000000  0.5076920000000  0.5029780000000 1.0
C      1  0.5076920000000  0.4797480000000  0.5029780000000 1.0
C      1  0.4797480000000  0.4923080000000  0.5029780000000 1.0
END
