TITL C-2441168-9922-1239 0.0145375471578895 125000 -17048.2088473064 0 0 115 (C1) n - 1
REM
REM in /home/bkarasulu/work/CARBON/AIRSS/Generating-Clusters/ReaxFF-fromJPCA2015/Units_Real/with-SteepDescent/Higher-Symm
REM
REM
REM
REM
REM
REM ./C.cell (1df0a924f5614ab8850e4351716899ee)
REM
REM compiler GCC version 9.2.1 20190827 (Red Hat 9.2.1-1)
REM options -cpp -mtune=generic -march=x86-64 -g -O0 -fpre-include=/usr/include/finclude/math-vector-fortran.h
REM seed -201542806 1726491490 1967028926 1780823568 -271138568 -1852626521 -1098127995 1275496629 1353378022 1326184812 1299284883 -456142629 370467082 1482004809 179973410 -1422937054 -1851664314 669732643 1938189759 1722916429 -1549116658 -11281062 -411836170 1207484793 1987410890 242511361 -1347938075 166622514 187793475 -281294445 -528566210 -519163949 -1814591757
REM
CELL 1.54180   50.00000   50.00000   50.00000   90.00000   90.00000   90.00000
LATT -1
SFAC C  
C      1  0.5552550000000  0.5719550000000  0.5078620000000 1.0
C      1  0.5082100000000  0.5761070000000  0.5496120000000 1.0
C      1  0.4559650000000  0.5769760000000  0.5223580000000 1.0
C      1  0.4618430000000  0.5701990000000  0.4641250000000 1.0
C      1  0.5129970000000  0.5834450000000  0.4460310000000 1.0
C      1  0.5373760000000  0.4749310000000  0.5769580000000 1.0
C      1  0.4427770000000  0.4746330000000  0.5493670000000 1.0
C      1  0.4323920000000  0.4769100000000  0.4593550000000 1.0
C      1  0.5158950000000  0.4763870000000  0.4214880000000 1.0
C      1  0.5768800000000  0.4759410000000  0.4919970000000 1.0
C      1  0.5225140000000  0.4234920000000  0.5470050000000 1.0
C      1  0.4557080000000  0.4142450000000  0.5304850000000 1.0
C      1  0.4514850000000  0.4243800000000  0.4707630000000 1.0
C      1  0.5095740000000  0.4240690000000  0.4453470000000 1.0
C      1  0.5552240000000  0.4214950000000  0.4942940000000 1.0
C      1  0.4746640000000  0.5528280000000  0.4273890000000 1.0
C      1  0.5608890000000  0.5625280000000  0.4580950000000 1.0
C      1  0.5584860000000  0.5592330000000  0.5345380000000 1.0
C      1  0.4821490000000  0.5622100000000  0.5577310000000 1.0
C      1  0.4380530000000  0.5639350000000  0.5031800000000 1.0
C      1  0.5164230000000  0.4565120000000  0.5859910000000 1.0
C      1  0.4256140000000  0.4575560000000  0.5323550000000 1.0
C      1  0.4470570000000  0.4635120000000  0.4378380000000 1.0
C      1  0.5379500000000  0.4604230000000  0.4314440000000 1.0
C      1  0.5786930000000  0.4617190000000  0.5165270000000 1.0
C      1  0.4871090000000  0.5345460000000  0.5527670000000 1.0
C      1  0.4467060000000  0.5359930000000  0.5103110000000 1.0
C      1  0.4690280000000  0.5440210000000  0.4539160000000 1.0
C      1  0.5368180000000  0.5454200000000  0.4591010000000 1.0
C      1  0.5410210000000  0.5364480000000  0.5294500000000 1.0
C      1  0.4909450000000  0.4699030000000  0.5798810000000 1.0
C      1  0.4223400000000  0.4744300000000  0.5089050000000 1.0
C      1  0.4641830000000  0.4780900000000  0.4186770000000 1.0
C      1  0.5531090000000  0.4759300000000  0.4492640000000 1.0
C      1  0.5712720000000  0.4799220000000  0.5400760000000 1.0
C      1  0.4686010000000  0.5069890000000  0.4176450000000 1.0
C      1  0.5808870000000  0.5258370000000  0.4619920000000 1.0
C      1  0.5760270000000  0.5108980000000  0.5487460000000 1.0
C      1  0.4667910000000  0.5205970000000  0.5949470000000 1.0
C      1  0.4088920000000  0.5262870000000  0.4822180000000 1.0
C      1  0.4795860000000  0.4448130000000  0.5699100000000 1.0
C      1  0.4322690000000  0.4354300000000  0.4893470000000 1.0
C      1  0.4864110000000  0.4381390000000  0.4341080000000 1.0
C      1  0.5558120000000  0.4350930000000  0.4682060000000 1.0
C      1  0.5487390000000  0.4373320000000  0.5434240000000 1.0
C      1  0.4877180000000  0.5068560000000  0.4397570000000 1.0
C      1  0.5538740000000  0.5174540000000  0.4708870000000 1.0
C      1  0.5459360000000  0.5128550000000  0.5454220000000 1.0
C      1  0.4716450000000  0.5123260000000  0.5642170000000 1.0
C      1  0.4349000000000  0.5136090000000  0.4905020000000 1.0
C      1  0.5643440000000  0.4364160000000  0.5184130000000 1.0
C      1  0.5070570000000  0.4327350000000  0.5702760000000 1.0
C      1  0.4345970000000  0.4322820000000  0.5189450000000 1.0
C      1  0.4593310000000  0.4381810000000  0.4461830000000 1.0
C      1  0.5365360000000  0.4349730000000  0.4457310000000 1.0
C      1  0.5369850000000  0.4967560000000  0.4584340000000 1.0
C      1  0.5479350000000  0.4941760000000  0.5225110000000 1.0
C      1  0.4957860000000  0.4929500000000  0.5607720000000 1.0
C      1  0.4430340000000  0.4951080000000  0.5138180000000 1.0
C      1  0.4738430000000  0.4971470000000  0.4620790000000 1.0
C      1  0.5217420000000  0.5393740000000  0.5084970000000 1.0
C      1  0.4957770000000  0.5260930000000  0.5264690000000 1.0
C      1  0.4741460000000  0.5255070000000  0.5061540000000 1.0
C      1  0.4862280000000  0.5363030000000  0.4813390000000 1.0
C      1  0.5121840000000  0.5232900000000  0.4855150000000 1.0
C      1  0.5221580000000  0.4448510000000  0.4981000000000 1.0
C      1  0.5124490000000  0.4578260000000  0.5212150000000 1.0
C      1  0.4839980000000  0.4529320000000  0.5229080000000 1.0
C      1  0.4776950000000  0.4466230000000  0.4951430000000 1.0
C      1  0.5013020000000  0.4461560000000  0.4787920000000 1.0
C      1  0.4869310000000  0.4831890000000  0.4819140000000 1.0
C      1  0.5148910000000  0.4943330000000  0.4842500000000 1.0
C      1  0.5209450000000  0.4852020000000  0.5158870000000 1.0
C      1  0.4975480000000  0.4967350000000  0.5299440000000 1.0
C      1  0.4736700000000  0.4932520000000  0.5080930000000 1.0
C      1  0.4379120000000  0.5353060000000  0.5410750000000 1.0
C      1  0.4192160000000  0.5449600000000  0.4606900000000 1.0
C      1  0.5283900000000  0.5367560000000  0.4305410000000 1.0
C      1  0.5887980000000  0.5408190000000  0.4862220000000 1.0
C      1  0.5271600000000  0.5480640000000  0.5744230000000 1.0
C      1  0.5257820000000  0.4139060000000  0.4987120000000 1.0
C      1  0.5098120000000  0.4102990000000  0.5244060000000 1.0
C      1  0.4813310000000  0.4076220000000  0.5175320000000 1.0
C      1  0.4751570000000  0.4158680000000  0.4874320000000 1.0
C      1  0.5033500000000  0.4158200000000  0.4730280000000 1.0
C      1  0.5347510000000  0.5667820000000  0.5569800000000 1.0
C      1  0.4551920000000  0.5607510000000  0.5465250000000 1.0
C      1  0.4347730000000  0.5667740000000  0.4745440000000 1.0
C      1  0.5057500000000  0.5610000000000  0.4255180000000 1.0
C      1  0.5716860000000  0.5647160000000  0.4856710000000 1.0
C      1  0.5865030000000  0.5240690000000  0.5098880000000 1.0
C      1  0.5206120000000  0.5256890000000  0.5892290000000 1.0
C      1  0.4064800000000  0.5378010000000  0.5352140000000 1.0
C      1  0.4303100000000  0.5365250000000  0.4351840000000 1.0
C      1  0.5560220000000  0.5368030000000  0.4178250000000 1.0
C      1  0.4855400000000  0.5673350000000  0.4833830000000 1.0
C      1  0.5169510000000  0.5693090000000  0.4713490000000 1.0
C      1  0.5272330000000  0.5731320000000  0.5020030000000 1.0
C      1  0.5071180000000  0.5819120000000  0.5211490000000 1.0
C      1  0.4819790000000  0.5797210000000  0.5092590000000 1.0
C      1  0.4934430000000  0.5268540000000  0.6034840000000 1.0
C      1  0.4019840000000  0.5329170000000  0.5077730000000 1.0
C      1  0.4536920000000  0.5332080000000  0.4170760000000 1.0
C      1  0.5753200000000  0.5441710000000  0.4392380000000 1.0
C      1  0.5814570000000  0.5354340000000  0.5359420000000 1.0
C      1  0.5256810000000  0.5020590000000  0.5709500000000 1.0
C      1  0.4459230000000  0.5038380000000  0.5465350000000 1.0
C      1  0.4462030000000  0.5010670000000  0.4664560000000 1.0
C      1  0.5167760000000  0.5035050000000  0.4339350000000 1.0
C      1  0.5656020000000  0.5035050000000  0.4984550000000 1.0
C      1  0.5548630000000  0.4618270000000  0.5580830000000 1.0
C      1  0.4655220000000  0.4557700000000  0.5463750000000 1.0
C      1  0.4221530000000  0.4620160000000  0.4826880000000 1.0
C      1  0.4898780000000  0.4633490000000  0.4195860000000 1.0
C      1  0.5678890000000  0.4615140000000  0.4684520000000 1.0
END
