TITL C-2441169-1362-1396 0.0878802887824482 125000 -17559.2730834884 0 0 132 (C1) n - 1
REM
REM in /home/bkarasulu/work/CARBON/AIRSS/Generating-Clusters/ReaxFF-fromJPCA2015/Units_Real/with-SteepDescent/Higher-Symm
REM
REM
REM
REM
REM
REM ./C.cell (1df0a924f5614ab8850e4351716899ee)
REM
REM compiler GCC version 9.2.1 20190827 (Red Hat 9.2.1-1)
REM options -cpp -mtune=generic -march=x86-64 -g -O0 -fpre-include=/usr/include/finclude/math-vector-fortran.h
REM seed -1112786656 -1862351862 -873041907 -165342692 874632064 791965700 -1036261 -725592547 -170141884 1988462234 804927028 1535091572 -594561731 1958647479 364595383 167750416 -989043258 488008794 676036359 -777005818 1707289565 490013078 -654476281 -31040590 -1522998078 -977056605 612819105 1181514463 35313365 940030112 -42112587 -1281211775 1196204371
REM
CELL 1.54180   50.00000   50.00000   50.00000   90.00000   90.00000   90.00000
LATT -1
SFAC C  
C      1  0.4098490000000  0.5061340000000  0.5372940000000 1.0
C      1  0.5378780000000  0.4196360000000  0.5346380000000 1.0
C      1  0.5495790000000  0.5749590000000  0.5341370000000 1.0
C      1  0.5182770000000  0.5630650000000  0.5712280000000 1.0
C      1  0.4392990000000  0.4812940000000  0.5719570000000 1.0
C      1  0.5458240000000  0.4533060000000  0.5720310000000 1.0
C      1  0.4091330000000  0.5120890000000  0.4873680000000 1.0
C      1  0.5291880000000  0.4109770000000  0.4856710000000 1.0
C      1  0.5614460000000  0.5675800000000  0.4838000000000 1.0
C      1  0.5097190000000  0.5925270000000  0.4737060000000 1.0
C      1  0.4111550000000  0.4600290000000  0.4787770000000 1.0
C      1  0.5721360000000  0.4459230000000  0.4732070000000 1.0
C      1  0.5928100000000  0.5141980000000  0.5208810000000 1.0
C      1  0.4426340000000  0.5695260000000  0.5192870000000 1.0
C      1  0.4657370000000  0.4150980000000  0.5191600000000 1.0
C      1  0.5603950000000  0.5013230000000  0.5636690000000 1.0
C      1  0.4669190000000  0.5495320000000  0.5680800000000 1.0
C      1  0.4576000000000  0.4463040000000  0.5639330000000 1.0
C      1  0.4497320000000  0.4250560000000  0.4669570000000 1.0
C      1  0.5935310000000  0.4943740000000  0.4720530000000 1.0
C      1  0.4566460000000  0.5825750000000  0.4673540000000 1.0
C      1  0.5032320000000  0.4901290000000  0.5947640000000 1.0
C      1  0.5134280000000  0.5155260000000  0.5882900000000 1.0
C      1  0.4738770000000  0.4946180000000  0.5890430000000 1.0
C      1  0.4946530000000  0.4188260000000  0.5504970000000 1.0
C      1  0.5716280000000  0.5404740000000  0.5507100000000 1.0
C      1  0.4294820000000  0.5410980000000  0.5515160000000 1.0
C      1  0.4429390000000  0.4510790000000  0.5014330000000 1.0
C      1  0.5714970000000  0.4788870000000  0.5045300000000 1.0
C      1  0.4836840000000  0.5695500000000  0.5055380000000 1.0
C      1  0.5821420000000  0.5139800000000  0.5493390000000 1.0
C      1  0.4472650000000  0.5626950000000  0.5484450000000 1.0
C      1  0.4663730000000  0.4227890000000  0.5502440000000 1.0
C      1  0.4381050000000  0.5068830000000  0.4813590000000 1.0
C      1  0.5248610000000  0.4416580000000  0.4792650000000 1.0
C      1  0.5394450000000  0.5476450000000  0.4786760000000 1.0
C      1  0.5693880000000  0.4662570000000  0.5306250000000 1.0
C      1  0.4928200000000  0.5741900000000  0.5324840000000 1.0
C      1  0.4357990000000  0.4553370000000  0.5294250000000 1.0
C      1  0.5200190000000  0.4225170000000  0.4362970000000 1.0
C      1  0.5560230000000  0.5590970000000  0.4348910000000 1.0
C      1  0.4239810000000  0.5193150000000  0.4383230000000 1.0
C      1  0.4994930000000  0.4615400000000  0.4199210000000 1.0
C      1  0.5347920000000  0.5169990000000  0.4184080000000 1.0
C      1  0.4640520000000  0.5224300000000  0.4156670000000 1.0
C      1  0.5141190000000  0.3997730000000  0.5078810000000 1.0
C      1  0.5799570000000  0.5603460000000  0.5064380000000 1.0
C      1  0.4071090000000  0.5348820000000  0.5070990000000 1.0
C      1  0.4585250000000  0.5823170000000  0.4981950000000 1.0
C      1  0.4483770000000  0.4226410000000  0.4965950000000 1.0
C      1  0.5974800000000  0.4921290000000  0.5005890000000 1.0
C      1  0.4857990000000  0.5550000000000  0.4446060000000 1.0
C      1  0.4625980000000  0.4598770000000  0.4416330000000 1.0
C      1  0.5652380000000  0.4892840000000  0.4417020000000 1.0
C      1  0.4107680000000  0.5285460000000  0.4628040000000 1.0
C      1  0.5160900000000  0.4067960000000  0.4609240000000 1.0
C      1  0.5726910000000  0.5609880000000  0.4586060000000 1.0
C      1  0.5141270000000  0.4032780000000  0.5367740000000 1.0
C      1  0.5767950000000  0.5644280000000  0.5355600000000 1.0
C      1  0.4055250000000  0.5351130000000  0.5363060000000 1.0
C      1  0.5139780000000  0.4923540000000  0.4635040000000 1.0
C      1  0.5035690000000  0.5187460000000  0.4641630000000 1.0
C      1  0.4831400000000  0.4985740000000  0.4625920000000 1.0
C      1  0.5163790000000  0.5388880000000  0.4173230000000 1.0
C      1  0.4575990000000  0.4945610000000  0.4176950000000 1.0
C      1  0.5273630000000  0.4670650000000  0.4201530000000 1.0
C      1  0.4686010000000  0.4329970000000  0.4440140000000 1.0
C      1  0.5773810000000  0.5156670000000  0.4415270000000 1.0
C      1  0.4575810000000  0.5613990000000  0.4454830000000 1.0
C      1  0.4724460000000  0.4879370000000  0.4916530000000 1.0
C      1  0.5240450000000  0.4849450000000  0.4930010000000 1.0
C      1  0.5019140000000  0.5314180000000  0.4885980000000 1.0
C      1  0.5306910000000  0.5840760000000  0.5542680000000 1.0
C      1  0.4152940000000  0.4839950000000  0.5565280000000 1.0
C      1  0.5553400000000  0.4325110000000  0.5536790000000 1.0
C      1  0.4868570000000  0.4068380000000  0.5023290000000 1.0
C      1  0.5889580000000  0.5339800000000  0.5014430000000 1.0
C      1  0.4256500000000  0.5552570000000  0.5006730000000 1.0
C      1  0.4329500000000  0.5455080000000  0.4734270000000 1.0
C      1  0.4890740000000  0.4143940000000  0.4735050000000 1.0
C      1  0.5792980000000  0.5320420000000  0.4682560000000 1.0
C      1  0.5285720000000  0.5388760000000  0.5839080000000 1.0
C      1  0.4641560000000  0.5233690000000  0.5830540000000 1.0
C      1  0.5193980000000  0.4666270000000  0.5839440000000 1.0
C      1  0.4900190000000  0.5309340000000  0.4282880000000 1.0
C      1  0.4791330000000  0.4799440000000  0.4324430000000 1.0
C      1  0.5344930000000  0.4916290000000  0.4355980000000 1.0
C      1  0.4819770000000  0.4876640000000  0.5182860000000 1.0
C      1  0.5190730000000  0.4997960000000  0.5177430000000 1.0
C      1  0.4954940000000  0.5096960000000  0.5303790000000 1.0
C      1  0.4926820000000  0.4434230000000  0.4746950000000 1.0
C      1  0.5533690000000  0.5219670000000  0.4755530000000 1.0
C      1  0.4566110000000  0.5282830000000  0.4754030000000 1.0
C      1  0.5289850000000  0.4581330000000  0.5007800000000 1.0
C      1  0.5214640000000  0.5462780000000  0.5005710000000 1.0
C      1  0.4467900000000  0.4940500000000  0.5007800000000 1.0
C      1  0.5586820000000  0.5313310000000  0.4251340000000 1.0
C      1  0.4449290000000  0.5381690000000  0.4304700000000 1.0
C      1  0.4950510000000  0.4350830000000  0.4295190000000 1.0
C      1  0.5401560000000  0.4437330000000  0.4321930000000 1.0
C      1  0.5270720000000  0.5617650000000  0.4324670000000 1.0
C      1  0.4329760000000  0.4920190000000  0.4318530000000 1.0
C      1  0.4728630000000  0.5057270000000  0.5626110000000 1.0
C      1  0.5056630000000  0.4630690000000  0.5649440000000 1.0
C      1  0.5347610000000  0.5145890000000  0.5702510000000 1.0
C      1  0.5136950000000  0.5948030000000  0.5307100000000 1.0
C      1  0.4089320000000  0.4661110000000  0.5307560000000 1.0
C      1  0.5744210000000  0.4379810000000  0.5297260000000 1.0
C      1  0.5470320000000  0.4477150000000  0.4597780000000 1.0
C      1  0.5107670000000  0.5657610000000  0.4566500000000 1.0
C      1  0.4383830000000  0.4687820000000  0.4495170000000 1.0
C      1  0.5742490000000  0.4379730000000  0.5008530000000 1.0
C      1  0.5154980000000  0.5951280000000  0.5017800000000 1.0
C      1  0.4089510000000  0.4751190000000  0.5027360000000 1.0
C      1  0.4821360000000  0.5944650000000  0.4663250000000 1.0
C      1  0.4279530000000  0.4441980000000  0.4616090000000 1.0
C      1  0.5813610000000  0.4729290000000  0.4590870000000 1.0
C      1  0.4759640000000  0.5290830000000  0.5238860000000 1.0
C      1  0.4861050000000  0.4616520000000  0.5217400000000 1.0
C      1  0.5428570000000  0.5095480000000  0.5217240000000 1.0
C      1  0.4533270000000  0.5213000000000  0.5397900000000 1.0
C      1  0.5035690000000  0.4488760000000  0.5409850000000 1.0
C      1  0.5452220000000  0.5329100000000  0.5384870000000 1.0
C      1  0.5283340000000  0.4454930000000  0.5256310000000 1.0
C      1  0.5303710000000  0.5543250000000  0.5264280000000 1.0
C      1  0.4365910000000  0.5030310000000  0.5251170000000 1.0
C      1  0.4542930000000  0.4702370000000  0.5507810000000 1.0
C      1  0.5571020000000  0.4743370000000  0.5559850000000 1.0
C      1  0.4925060000000  0.5592450000000  0.5582980000000 1.0
C      1  0.5516340000000  0.4993050000000  0.4946170000000 1.0
C      1  0.4770850000000  0.5389880000000  0.4970620000000 1.0
C      1  0.4755230000000  0.4569760000000  0.4946760000000 1.0
END
