TITL C-2441167-4473-1278 0.0212486931607647 125000 -17553.3862918142 0 0 117 (C1) n - 1
REM
REM in /home/bkarasulu/work/CARBON/AIRSS/Generating-Clusters/ReaxFF-fromJPCA2015/Units_Real/with-SteepDescent/Higher-Symm
REM
REM
REM
REM
REM
REM ./C.cell (1df0a924f5614ab8850e4351716899ee)
REM
REM compiler GCC version 9.2.1 20190827 (Red Hat 9.2.1-1)
REM options -cpp -mtune=generic -march=x86-64 -g -O0 -fpre-include=/usr/include/finclude/math-vector-fortran.h
REM seed -722898431 1013913541 1090698174 1391880253 -1353892382 2051560459 -1892214583 237723179 -1757696379 278026379 -351149772 993443451 1055444015 -1471731660 1597153776 -274059191 -1244968783 1043477793 16350635 1001746105 101880369 1584991164 -51151597 397864741 -1255394350 323615384 161507810 -978190903 -797514669 -949267365 1543315740 1071205391 -1286190844
REM
CELL 1.54180   50.00000   50.00000   50.00000   90.00000   90.00000   90.00000
LATT -1
SFAC C  
C      1  0.5214550000000  0.4435120000000  0.4192460000000 1.0
C      1  0.4298380000000  0.4420890000000  0.4509860000000 1.0
C      1  0.4336000000000  0.4492940000000  0.5511810000000 1.0
C      1  0.5295020000000  0.4496750000000  0.5800070000000 1.0
C      1  0.5839230000000  0.4502680000000  0.4964500000000 1.0
C      1  0.5295630000000  0.5550820000000  0.5792230000000 1.0
C      1  0.4337780000000  0.5586740000000  0.5487660000000 1.0
C      1  0.4353360000000  0.5489090000000  0.4517290000000 1.0
C      1  0.5321830000000  0.5485620000000  0.4192980000000 1.0
C      1  0.5752990000000  0.5559060000000  0.5052280000000 1.0
C      1  0.5518860000000  0.4813570000000  0.4374380000000 1.0
C      1  0.4561330000000  0.4809820000000  0.4282930000000 1.0
C      1  0.4189570000000  0.4767280000000  0.5121060000000 1.0
C      1  0.4880810000000  0.4745470000000  0.5795800000000 1.0
C      1  0.5708750000000  0.4759740000000  0.5351970000000 1.0
C      1  0.5550790000000  0.5168810000000  0.5659350000000 1.0
C      1  0.4590480000000  0.5182740000000  0.5700910000000 1.0
C      1  0.4182750000000  0.5247270000000  0.4917550000000 1.0
C      1  0.4902450000000  0.5254620000000  0.4205560000000 1.0
C      1  0.5743560000000  0.5200160000000  0.4692610000000 1.0
C      1  0.5554070000000  0.5345260000000  0.4281110000000 1.0
C      1  0.4493150000000  0.5360330000000  0.4308380000000 1.0
C      1  0.4146820000000  0.5415660000000  0.5301010000000 1.0
C      1  0.5044180000000  0.5401650000000  0.5869820000000 1.0
C      1  0.5797810000000  0.5396510000000  0.5281870000000 1.0
C      1  0.5540490000000  0.4621380000000  0.5732590000000 1.0
C      1  0.4474030000000  0.4643460000000  0.5726400000000 1.0
C      1  0.4120910000000  0.4555190000000  0.4686580000000 1.0
C      1  0.5005220000000  0.4606810000000  0.4099680000000 1.0
C      1  0.5869630000000  0.4643400000000  0.4714520000000 1.0
C      1  0.5682200000000  0.4520380000000  0.5511310000000 1.0
C      1  0.5693750000000  0.4611800000000  0.4513460000000 1.0
C      1  0.4764030000000  0.4599660000000  0.4228660000000 1.0
C      1  0.4176830000000  0.4513740000000  0.4970070000000 1.0
C      1  0.4725190000000  0.4502210000000  0.5789340000000 1.0
C      1  0.5683740000000  0.5422670000000  0.4512240000000 1.0
C      1  0.5629970000000  0.5396110000000  0.5498100000000 1.0
C      1  0.4773680000000  0.5433350000000  0.5793760000000 1.0
C      1  0.4135770000000  0.5523780000000  0.5020750000000 1.0
C      1  0.4738940000000  0.5490790000000  0.4238680000000 1.0
C      1  0.4634480000000  0.4372590000000  0.4873300000000 1.0
C      1  0.4788620000000  0.4394230000000  0.5335310000000 1.0
C      1  0.5272250000000  0.4395220000000  0.5317730000000 1.0
C      1  0.5371750000000  0.4406950000000  0.4841950000000 1.0
C      1  0.4993540000000  0.4305340000000  0.4595780000000 1.0
C      1  0.4798620000000  0.5692970000000  0.5187600000000 1.0
C      1  0.4829590000000  0.5643740000000  0.4710470000000 1.0
C      1  0.5272740000000  0.5574030000000  0.4661110000000 1.0
C      1  0.5249850000000  0.5731400000000  0.5059380000000 1.0
C      1  0.4981070000000  0.5653320000000  0.5396570000000 1.0
C      1  0.4888110000000  0.5667130000000  0.4418510000000 1.0
C      1  0.4334290000000  0.5664180000000  0.4887960000000 1.0
C      1  0.4778910000000  0.5652970000000  0.5600180000000 1.0
C      1  0.5428000000000  0.5599920000000  0.5537110000000 1.0
C      1  0.5552430000000  0.5638360000000  0.4662610000000 1.0
C      1  0.4872390000000  0.4322930000000  0.5602230000000 1.0
C      1  0.4392750000000  0.4335000000000  0.5048080000000 1.0
C      1  0.4765280000000  0.4389100000000  0.4428670000000 1.0
C      1  0.5499050000000  0.4391480000000  0.4586360000000 1.0
C      1  0.5553120000000  0.4331200000000  0.5325330000000 1.0
C      1  0.5154050000000  0.5291360000000  0.4063800000000 1.0
C      1  0.4179300000000  0.5282920000000  0.4626650000000 1.0
C      1  0.4365350000000  0.5419250000000  0.5719200000000 1.0
C      1  0.5449750000000  0.5328840000000  0.5891860000000 1.0
C      1  0.5896800000000  0.5368320000000  0.4885150000000 1.0
C      1  0.5138030000000  0.4702060000000  0.5929260000000 1.0
C      1  0.4152750000000  0.4684290000000  0.5400880000000 1.0
C      1  0.4312860000000  0.4644390000000  0.4329880000000 1.0
C      1  0.5408270000000  0.4645640000000  0.4143070000000 1.0
C      1  0.5911870000000  0.4712600000000  0.5147690000000 1.0
C      1  0.4740780000000  0.5234940000000  0.4970620000000 1.0
C      1  0.4896830000000  0.5221640000000  0.5215420000000 1.0
C      1  0.5181290000000  0.5247960000000  0.5157650000000 1.0
C      1  0.5218420000000  0.5304800000000  0.4850130000000 1.0
C      1  0.4909860000000  0.5309480000000  0.4738410000000 1.0
C      1  0.4714710000000  0.4693660000000  0.4982230000000 1.0
C      1  0.4906180000000  0.4757040000000  0.4769600000000 1.0
C      1  0.5205730000000  0.4683370000000  0.4838810000000 1.0
C      1  0.5216800000000  0.4663260000000  0.5180990000000 1.0
C      1  0.4905960000000  0.4663050000000  0.5258720000000 1.0
C      1  0.5173850000000  0.5639820000000  0.4394270000000 1.0
C      1  0.4512010000000  0.5676110000000  0.4688050000000 1.0
C      1  0.4584010000000  0.5724250000000  0.5397190000000 1.0
C      1  0.5248530000000  0.5695760000000  0.5340600000000 1.0
C      1  0.5527740000000  0.5714180000000  0.4949230000000 1.0
C      1  0.5163180000000  0.4345590000000  0.5588430000000 1.0
C      1  0.4499170000000  0.4345850000000  0.5314510000000 1.0
C      1  0.4547850000000  0.4346450000000  0.4598900000000 1.0
C      1  0.5253610000000  0.4317070000000  0.4453100000000 1.0
C      1  0.5591540000000  0.4359320000000  0.5034890000000 1.0
C      1  0.4158320000000  0.5136930000000  0.5311240000000 1.0
C      1  0.5216450000000  0.5199190000000  0.6005270000000 1.0
C      1  0.5969950000000  0.5212650000000  0.5118050000000 1.0
C      1  0.5531750000000  0.5071720000000  0.4214590000000 1.0
C      1  0.4428650000000  0.5084690000000  0.4292460000000 1.0
C      1  0.4124350000000  0.4788060000000  0.4499080000000 1.0
C      1  0.5201170000000  0.4801370000000  0.4005570000000 1.0
C      1  0.5887980000000  0.4918380000000  0.4714600000000 1.0
C      1  0.5527230000000  0.4899950000000  0.5792290000000 1.0
C      1  0.4419870000000  0.4933140000000  0.5720000000000 1.0
C      1  0.4460290000000  0.4858560000000  0.5026860000000 1.0
C      1  0.4874730000000  0.4842950000000  0.5508940000000 1.0
C      1  0.5434770000000  0.4857620000000  0.5280870000000 1.0
C      1  0.5356240000000  0.4869970000000  0.4660740000000 1.0
C      1  0.4804700000000  0.4877390000000  0.4524640000000 1.0
C      1  0.4464320000000  0.5131870000000  0.4971390000000 1.0
C      1  0.4892380000000  0.5143360000000  0.4481620000000 1.0
C      1  0.5432440000000  0.5119590000000  0.4757730000000 1.0
C      1  0.5376390000000  0.5128580000000  0.5336770000000 1.0
C      1  0.4784640000000  0.5101150000000  0.5463230000000 1.0
C      1  0.5304470000000  0.5058800000000  0.4048690000000 1.0
C      1  0.5295960000000  0.4928530000000  0.5951810000000 1.0
C      1  0.4197030000000  0.4949630000000  0.5525910000000 1.0
C      1  0.4210470000000  0.5056000000000  0.4463760000000 1.0
C      1  0.5969790000000  0.4950360000000  0.4988780000000 1.0
C      1  0.4934670000000  0.4260670000000  0.4876710000000 1.0
C      1  0.4973750000000  0.5741070000000  0.4964070000000 1.0
END
