TITL C-2441158-471-817 0.00309793978754707 125000 -4797.74747669243 0 0 34 (C1) n - 1
REM
REM in /home/bkarasulu/work/CARBON/AIRSS/Generating-Clusters/ReaxFF-fromJPCA2015/Units_Real/with-SteepDescent/Higher-Symm
REM
REM
REM
REM
REM
REM ./C.cell (1df0a924f5614ab8850e4351716899ee)
REM
REM compiler GCC version 9.2.1 20190827 (Red Hat 9.2.1-1)
REM options -cpp -mtune=generic -march=x86-64 -g -O0 -fpre-include=/usr/include/finclude/math-vector-fortran.h
REM seed -7608023 1146469150 1418644972 583483081 294477065 528820735 -642021026 -926521967 -2000416503 1407055 -450467600 -148446864 1123630632 537108825 750014536 -725254411 1872703452 -2135662648 820519168 -772865178 1748959947 287004812 -1456962150 -556578615 487675503 -1794203776 1259808989 -1602235487 111082896 693570572 -1628815266 -1000111173 78805831
REM
CELL 1.54180   50.00000   50.00000   50.00000   90.00000   90.00000   90.00000
LATT -1
SFAC C  
C      1  0.5023680000000  0.4589540000000  0.5488440000000 1.0
C      1  0.4726170000000  0.4880340000000  0.5487000000000 1.0
C      1  0.4783220000000  0.5286200000000  0.5460380000000 1.0
C      1  0.5161740000000  0.5304440000000  0.5462840000000 1.0
C      1  0.5280790000000  0.4915670000000  0.5488850000000 1.0
C      1  0.5419000000000  0.5141290000000  0.5066890000000 1.0
C      1  0.5276560000000  0.4643760000000  0.5060970000000 1.0
C      1  0.4758550000000  0.4620140000000  0.5059620000000 1.0
C      1  0.4591950000000  0.5104740000000  0.5073510000000 1.0
C      1  0.4980680000000  0.5430850000000  0.5059830000000 1.0
C      1  0.4967910000000  0.5430320000000  0.5353810000000 1.0
C      1  0.5346900000000  0.5147920000000  0.5347920000000 1.0
C      1  0.5279180000000  0.4652390000000  0.5351300000000 1.0
C      1  0.4764560000000  0.4617880000000  0.5349150000000 1.0
C      1  0.4623490000000  0.5107200000000  0.5352650000000 1.0
C      1  0.5093100000000  0.4695790000000  0.4453880000000 1.0
C      1  0.4701830000000  0.4966600000000  0.4448880000000 1.0
C      1  0.4842550000000  0.5235610000000  0.4416570000000 1.0
C      1  0.5148860000000  0.5212650000000  0.4421040000000 1.0
C      1  0.5281930000000  0.4931630000000  0.4417930000000 1.0
C      1  0.5226160000000  0.5321620000000  0.4658430000000 1.0
C      1  0.5463450000000  0.4875430000000  0.4642980000000 1.0
C      1  0.5052030000000  0.4474980000000  0.4650050000000 1.0
C      1  0.4516610000000  0.4846800000000  0.4654260000000 1.0
C      1  0.4752070000000  0.5316850000000  0.4661470000000 1.0
C      1  0.5429720000000  0.4870360000000  0.4940220000000 1.0
C      1  0.5021960000000  0.4536910000000  0.4941400000000 1.0
C      1  0.4582680000000  0.4839620000000  0.4947380000000 1.0
C      1  0.4721950000000  0.5338520000000  0.4939570000000 1.0
C      1  0.5247860000000  0.5356860000000  0.4936100000000 1.0
C      1  0.5006850000000  0.4861290000000  0.5595660000000 1.0
C      1  0.4993050000000  0.4965190000000  0.4906840000000 1.0
C      1  0.5039810000000  0.5031900000000  0.5113190000000 1.0
C      1  0.4927790000000  0.4873080000000  0.4620300000000 1.0
END
