TITL C-2441156-4686-598 0.0478049691890169 125000 -25460.1158210074 0 0 184 (C1) n - 1
REM
REM in /home/bkarasulu/work/CARBON/AIRSS/Generating-Clusters/ReaxFF-fromJPCA2015/Units_Real/with-SteepDescent/Higher-Symm
REM
REM
REM
REM
REM
REM ./C.cell (1df0a924f5614ab8850e4351716899ee)
REM
REM compiler GCC version 9.2.1 20190827 (Red Hat 9.2.1-1)
REM options -cpp -mtune=generic -march=x86-64 -g -O0 -fpre-include=/usr/include/finclude/math-vector-fortran.h
REM seed 860816113 1600839041 -1940522095 -484554318 599107011 -299887700 697606319 1545725890 -864240109 1785923000 1080172720 1904057954 -91812152 -103342861 793363454 -276568693 -1089856233 -2042486641 577879198 459952122 878150189 893922534 571610536 -1947480009 1374078373 -204674153 -1158138682 1106829287 109349348 431324570 -950611299 -979915795 1162769828
REM
CELL 1.54180   50.00000   50.00000   50.00000   90.00000   90.00000   90.00000
LATT -1
SFAC C  
C      1  0.4994650000000  0.4195320000000  0.5702890000000 1.0
C      1  0.5575160000000  0.4228600000000  0.5513270000000 1.0
C      1  0.5756600000000  0.4218080000000  0.4841970000000 1.0
C      1  0.5365310000000  0.4235080000000  0.4334980000000 1.0
C      1  0.4711670000000  0.4222600000000  0.4293050000000 1.0
C      1  0.4293810000000  0.4223970000000  0.4837660000000 1.0
C      1  0.4394710000000  0.4211950000000  0.5439260000000 1.0
C      1  0.4870420000000  0.3880620000000  0.5227660000000 1.0
C      1  0.5110950000000  0.4020790000000  0.5347640000000 1.0
C      1  0.5308650000000  0.4024990000000  0.5121250000000 1.0
C      1  0.5260630000000  0.4021910000000  0.4827360000000 1.0
C      1  0.5017330000000  0.4007140000000  0.4661690000000 1.0
C      1  0.4715410000000  0.4026090000000  0.4707790000000 1.0
C      1  0.4690030000000  0.3976340000000  0.5019560000000 1.0
C      1  0.5017690000000  0.5098270000000  0.5612490000000 1.0
C      1  0.5475380000000  0.5071050000000  0.5368970000000 1.0
C      1  0.5589730000000  0.5062590000000  0.4868550000000 1.0
C      1  0.5229140000000  0.5083210000000  0.4439510000000 1.0
C      1  0.4746910000000  0.5090740000000  0.4468100000000 1.0
C      1  0.4433880000000  0.5052880000000  0.4833730000000 1.0
C      1  0.4539790000000  0.5089060000000  0.5397070000000 1.0
C      1  0.5463860000000  0.4664240000000  0.5814090000000 1.0
C      1  0.5974550000000  0.4832470000000  0.5333940000000 1.0
C      1  0.5833580000000  0.4790020000000  0.4448250000000 1.0
C      1  0.5091470000000  0.4668040000000  0.4004710000000 1.0
C      1  0.4292120000000  0.4639570000000  0.4346670000000 1.0
C      1  0.4017370000000  0.4691030000000  0.5125010000000 1.0
C      1  0.4472850000000  0.4682990000000  0.5840730000000 1.0
C      1  0.4618780000000  0.4633290000000  0.4643310000000 1.0
C      1  0.4424720000000  0.4702640000000  0.5086600000000 1.0
C      1  0.4731920000000  0.4623820000000  0.5447890000000 1.0
C      1  0.5212980000000  0.4664420000000  0.5472140000000 1.0
C      1  0.5505820000000  0.4615350000000  0.5154650000000 1.0
C      1  0.5434020000000  0.4626880000000  0.4669080000000 1.0
C      1  0.5013890000000  0.4627340000000  0.4447180000000 1.0
C      1  0.5714440000000  0.4448660000000  0.4392170000000 1.0
C      1  0.4982280000000  0.4395400000000  0.4041210000000 1.0
C      1  0.4280120000000  0.4372300000000  0.4460120000000 1.0
C      1  0.4076700000000  0.4409780000000  0.5229370000000 1.0
C      1  0.4571610000000  0.4411910000000  0.5843660000000 1.0
C      1  0.5299740000000  0.4443530000000  0.5809950000000 1.0
C      1  0.5884650000000  0.4364840000000  0.5179730000000 1.0
C      1  0.4797370000000  0.5900250000000  0.5269950000000 1.0
C      1  0.5083310000000  0.5878860000000  0.5330350000000 1.0
C      1  0.5337380000000  0.5817330000000  0.5135520000000 1.0
C      1  0.5319130000000  0.5891140000000  0.4827510000000 1.0
C      1  0.5089650000000  0.5867100000000  0.4647240000000 1.0
C      1  0.4753080000000  0.5851100000000  0.4735490000000 1.0
C      1  0.4652540000000  0.5904880000000  0.5013810000000 1.0
C      1  0.5861220000000  0.5472110000000  0.5097090000000 1.0
C      1  0.5635280000000  0.5490880000000  0.4354890000000 1.0
C      1  0.4924600000000  0.5497700000000  0.4153000000000 1.0
C      1  0.4157500000000  0.5550900000000  0.4497050000000 1.0
C      1  0.4097450000000  0.5550390000000  0.5352460000000 1.0
C      1  0.4705830000000  0.5481110000000  0.5802000000000 1.0
C      1  0.5502110000000  0.5514230000000  0.5766990000000 1.0
C      1  0.4534620000000  0.4675810000000  0.4186400000000 1.0
C      1  0.4021630000000  0.4657940000000  0.4823310000000 1.0
C      1  0.4254030000000  0.4696500000000  0.5594400000000 1.0
C      1  0.4949490000000  0.4666890000000  0.5909100000000 1.0
C      1  0.5877040000000  0.4681390000000  0.5571440000000 1.0
C      1  0.5910640000000  0.4689970000000  0.4815700000000 1.0
C      1  0.5386880000000  0.4689070000000  0.4145890000000 1.0
C      1  0.4997460000000  0.5482360000000  0.5882930000000 1.0
C      1  0.5716530000000  0.5492490000000  0.5569010000000 1.0
C      1  0.5883430000000  0.5463500000000  0.4786080000000 1.0
C      1  0.5394080000000  0.5492500000000  0.4186220000000 1.0
C      1  0.4627580000000  0.5488980000000  0.4211750000000 1.0
C      1  0.4044880000000  0.5543490000000  0.4745410000000 1.0
C      1  0.4267870000000  0.5513620000000  0.5576190000000 1.0
C      1  0.5668340000000  0.4251930000000  0.4582280000000 1.0
C      1  0.5098800000000  0.4236280000000  0.4251020000000 1.0
C      1  0.4507710000000  0.4167420000000  0.4479500000000 1.0
C      1  0.4266970000000  0.4226250000000  0.5110920000000 1.0
C      1  0.4600780000000  0.4225430000000  0.5627960000000 1.0
C      1  0.5280470000000  0.4191880000000  0.5685030000000 1.0
C      1  0.5699480000000  0.4220050000000  0.5258230000000 1.0
C      1  0.5172990000000  0.5532860000000  0.4627610000000 1.0
C      1  0.4697230000000  0.5524490000000  0.4739000000000 1.0
C      1  0.4513010000000  0.5439210000000  0.4987160000000 1.0
C      1  0.4629840000000  0.5469760000000  0.5260220000000 1.0
C      1  0.5120850000000  0.5478340000000  0.5416250000000 1.0
C      1  0.5349630000000  0.5523250000000  0.5248520000000 1.0
C      1  0.5389470000000  0.5443050000000  0.4810380000000 1.0
C      1  0.4866880000000  0.4827320000000  0.3980180000000 1.0
C      1  0.4118600000000  0.4808650000000  0.4579280000000 1.0
C      1  0.4067730000000  0.4838930000000  0.5391550000000 1.0
C      1  0.4700790000000  0.4818100000000  0.5967270000000 1.0
C      1  0.5709740000000  0.4810530000000  0.5791940000000 1.0
C      1  0.6030690000000  0.4827430000000  0.5045010000000 1.0
C      1  0.5668910000000  0.4836540000000  0.4215780000000 1.0
C      1  0.4635330000000  0.5755040000000  0.5756700000000 1.0
C      1  0.5366710000000  0.5760140000000  0.5773730000000 1.0
C      1  0.5848030000000  0.5744440000000  0.5185860000000 1.0
C      1  0.5684840000000  0.5744420000000  0.4465200000000 1.0
C      1  0.5012850000000  0.5766590000000  0.4144060000000 1.0
C      1  0.4311390000000  0.5783450000000  0.4437450000000 1.0
C      1  0.4154720000000  0.5772170000000  0.5191730000000 1.0
C      1  0.4757150000000  0.5077270000000  0.3909970000000 1.0
C      1  0.4021210000000  0.5090870000000  0.4554430000000 1.0
C      1  0.4005470000000  0.5100150000000  0.5497800000000 1.0
C      1  0.4762580000000  0.5084820000000  0.6086200000000 1.0
C      1  0.5726470000000  0.5101550000000  0.5833620000000 1.0
C      1  0.6113070000000  0.5092860000000  0.4950620000000 1.0
C      1  0.5654810000000  0.5103880000000  0.4093160000000 1.0
C      1  0.4820890000000  0.4381850000000  0.5301060000000 1.0
C      1  0.5115180000000  0.4341010000000  0.5331960000000 1.0
C      1  0.5330610000000  0.4318000000000  0.5124090000000 1.0
C      1  0.5308770000000  0.4318230000000  0.4786840000000 1.0
C      1  0.5040470000000  0.4297180000000  0.4647320000000 1.0
C      1  0.4751430000000  0.4341890000000  0.4761180000000 1.0
C      1  0.4700820000000  0.4265170000000  0.5053120000000 1.0
C      1  0.5520600000000  0.5280170000000  0.5954300000000 1.0
C      1  0.6057770000000  0.5269200000000  0.5177070000000 1.0
C      1  0.5801090000000  0.5259500000000  0.4283520000000 1.0
C      1  0.4936620000000  0.5313070000000  0.3902260000000 1.0
C      1  0.4121510000000  0.5284950000000  0.4359540000000 1.0
C      1  0.3949160000000  0.5308650000000  0.5300420000000 1.0
C      1  0.4569190000000  0.5286010000000  0.6005270000000 1.0
C      1  0.5488220000000  0.4772270000000  0.5412980000000 1.0
C      1  0.5627930000000  0.4759570000000  0.4868470000000 1.0
C      1  0.5272220000000  0.4776430000000  0.4402580000000 1.0
C      1  0.4739760000000  0.4770700000000  0.4393620000000 1.0
C      1  0.4400120000000  0.4769820000000  0.4787580000000 1.0
C      1  0.4469270000000  0.4799210000000  0.5387930000000 1.0
C      1  0.5038620000000  0.4810190000000  0.5667570000000 1.0
C      1  0.5952240000000  0.4412090000000  0.4911910000000 1.0
C      1  0.5512660000000  0.4429510000000  0.4193210000000 1.0
C      1  0.4687910000000  0.4429240000000  0.4097590000000 1.0
C      1  0.4119090000000  0.4399130000000  0.4713730000000 1.0
C      1  0.4192730000000  0.4405290000000  0.5497960000000 1.0
C      1  0.4873460000000  0.4374960000000  0.5893860000000 1.0
C      1  0.5746600000000  0.4431540000000  0.5603350000000 1.0
C      1  0.5152200000000  0.5343780000000  0.5677250000000 1.0
C      1  0.5574950000000  0.5341040000000  0.5296200000000 1.0
C      1  0.5625240000000  0.5303990000000  0.4715820000000 1.0
C      1  0.5159650000000  0.5349460000000  0.4355800000000 1.0
C      1  0.4647690000000  0.5346880000000  0.4480300000000 1.0
C      1  0.4278400000000  0.5221870000000  0.4983110000000 1.0
C      1  0.4535100000000  0.5356530000000  0.5513420000000 1.0
C      1  0.4518390000000  0.5242050000000  0.4017540000000 1.0
C      1  0.3927270000000  0.5269840000000  0.4766920000000 1.0
C      1  0.4129340000000  0.5257800000000  0.5724920000000 1.0
C      1  0.5013720000000  0.5235410000000  0.6110390000000 1.0
C      1  0.5873620000000  0.5242000000000  0.5637400000000 1.0
C      1  0.6045330000000  0.5212240000000  0.4697230000000 1.0
C      1  0.5417730000000  0.5245700000000  0.3979220000000 1.0
C      1  0.4671550000000  0.5185940000000  0.4936900000000 1.0
C      1  0.4731740000000  0.5199890000000  0.5216950000000 1.0
C      1  0.5001870000000  0.5218080000000  0.5339400000000 1.0
C      1  0.5222380000000  0.5092830000000  0.5214190000000 1.0
C      1  0.5324860000000  0.5180270000000  0.4940290000000 1.0
C      1  0.5161060000000  0.5067820000000  0.4725610000000 1.0
C      1  0.4858790000000  0.5079250000000  0.4741990000000 1.0
C      1  0.4691780000000  0.4764890000000  0.5052260000000 1.0
C      1  0.4845220000000  0.4803250000000  0.5257680000000 1.0
C      1  0.5116100000000  0.4829510000000  0.5245620000000 1.0
C      1  0.5234570000000  0.4699590000000  0.5052110000000 1.0
C      1  0.5238550000000  0.4801120000000  0.4800110000000 1.0
C      1  0.5020900000000  0.4674710000000  0.4743330000000 1.0
C      1  0.4794310000000  0.4797670000000  0.4802500000000 1.0
C      1  0.5613810000000  0.5884570000000  0.5240690000000 1.0
C      1  0.5572710000000  0.5889580000000  0.4691220000000 1.0
C      1  0.5126730000000  0.5911020000000  0.4354440000000 1.0
C      1  0.4561630000000  0.5898990000000  0.4513720000000 1.0
C      1  0.4365610000000  0.5880680000000  0.5030730000000 1.0
C      1  0.4630140000000  0.5900090000000  0.5516030000000 1.0
C      1  0.5168610000000  0.5890170000000  0.5608940000000 1.0
C      1  0.6005260000000  0.5110280000000  0.5414550000000 1.0
C      1  0.5942250000000  0.5069600000000  0.4466660000000 1.0
C      1  0.5166730000000  0.5181220000000  0.3899590000000 1.0
C      1  0.4307840000000  0.5220160000000  0.4162160000000 1.0
C      1  0.3990960000000  0.5185720000000  0.5039180000000 1.0
C      1  0.4324300000000  0.5222090000000  0.5899550000000 1.0
C      1  0.5278560000000  0.5208100000000  0.6074020000000 1.0
C      1  0.5111450000000  0.5751740000000  0.5858160000000 1.0
C      1  0.5770890000000  0.5755430000000  0.5441050000000 1.0
C      1  0.5823070000000  0.5738680000000  0.4689310000000 1.0
C      1  0.5280110000000  0.5765150000000  0.4159620000000 1.0
C      1  0.4520360000000  0.5755330000000  0.4273670000000 1.0
C      1  0.4129850000000  0.5759240000000  0.4920380000000 1.0
C      1  0.4397500000000  0.5776520000000  0.5634700000000 1.0
C      1  0.5030970000000  0.4525350000000  0.4977280000000 1.0
C      1  0.4977370000000  0.5474130000000  0.4853910000000 1.0
END
