TITL C-2441169-1362-505 0.047363465466891 125000 -16847.308624003 0 0 119 (C1) n - 1
REM
REM in /home/bkarasulu/work/CARBON/AIRSS/Generating-Clusters/ReaxFF-fromJPCA2015/Units_Real/with-SteepDescent/Higher-Symm
REM
REM
REM
REM
REM
REM ./C.cell (1df0a924f5614ab8850e4351716899ee)
REM
REM compiler GCC version 9.2.1 20190827 (Red Hat 9.2.1-1)
REM options -cpp -mtune=generic -march=x86-64 -g -O0 -fpre-include=/usr/include/finclude/math-vector-fortran.h
REM seed 1570103981 485161358 -72924545 1375932751 -156406213 -114329012 1979486701 -1805960857 217329909 -1840869584 -1371017686 -1174582309 1899438694 790215142 -125389070 -584869783 522049903 1979556396 -836149554 1021426260 69426324 -1534828201 -1693918237 1480733354 -1391177037 -1277874151 1107995964 950818435 116427521 2094748285 1689228957 786686015 -710184582
REM
CELL 1.54180   50.00000   50.00000   50.00000   90.00000   90.00000   90.00000
LATT -1
SFAC C  
C      1  0.4603050000000  0.5719690000000  0.4928120000000 1.0
C      1  0.4959960000000  0.5720750000000  0.4626860000000 1.0
C      1  0.5343710000000  0.5707060000000  0.4850490000000 1.0
C      1  0.5251270000000  0.5731800000000  0.5245740000000 1.0
C      1  0.4852810000000  0.5719030000000  0.5299650000000 1.0
C      1  0.4631160000000  0.4250190000000  0.4919730000000 1.0
C      1  0.4973640000000  0.4248740000000  0.4603200000000 1.0
C      1  0.5421130000000  0.4186440000000  0.4817420000000 1.0
C      1  0.5222650000000  0.4270310000000  0.5234550000000 1.0
C      1  0.4828720000000  0.4242770000000  0.5278890000000 1.0
C      1  0.5130300000000  0.4446320000000  0.4213090000000 1.0
C      1  0.5730510000000  0.4449060000000  0.4979680000000 1.0
C      1  0.5236190000000  0.4454060000000  0.5685120000000 1.0
C      1  0.4433080000000  0.4421200000000  0.5491970000000 1.0
C      1  0.4349060000000  0.4453480000000  0.4623260000000 1.0
C      1  0.5160820000000  0.5523480000000  0.4239570000000 1.0
C      1  0.5756550000000  0.5537410000000  0.4938110000000 1.0
C      1  0.5245920000000  0.5525850000000  0.5704700000000 1.0
C      1  0.4445970000000  0.5504890000000  0.5498820000000 1.0
C      1  0.4386610000000  0.5522250000000  0.4593860000000 1.0
C      1  0.4438200000000  0.4842700000000  0.4333080000000 1.0
C      1  0.5456850000000  0.4846610000000  0.4262060000000 1.0
C      1  0.5846420000000  0.4828110000000  0.5219940000000 1.0
C      1  0.5094260000000  0.4865230000000  0.5895080000000 1.0
C      1  0.4203770000000  0.4836030000000  0.5314470000000 1.0
C      1  0.4441370000000  0.5126640000000  0.4342650000000 1.0
C      1  0.5462990000000  0.5130190000000  0.4263940000000 1.0
C      1  0.5782410000000  0.5118560000000  0.5196990000000 1.0
C      1  0.5097480000000  0.5146360000000  0.5911930000000 1.0
C      1  0.4180880000000  0.5117830000000  0.5335560000000 1.0
C      1  0.4834610000000  0.5385830000000  0.5358980000000 1.0
C      1  0.4541560000000  0.5433110000000  0.4947920000000 1.0
C      1  0.4921670000000  0.5443750000000  0.4552090000000 1.0
C      1  0.5389740000000  0.5432600000000  0.4790060000000 1.0
C      1  0.5360260000000  0.5477340000000  0.5316160000000 1.0
C      1  0.4811330000000  0.4586130000000  0.5377340000000 1.0
C      1  0.4561820000000  0.4543930000000  0.4948920000000 1.0
C      1  0.4926010000000  0.4529110000000  0.4550130000000 1.0
C      1  0.5496620000000  0.4453730000000  0.4780480000000 1.0
C      1  0.5312870000000  0.4583830000000  0.5287820000000 1.0
C      1  0.5725260000000  0.5255960000000  0.5478090000000 1.0
C      1  0.4777790000000  0.5207570000000  0.5807820000000 1.0
C      1  0.4131880000000  0.5233940000000  0.5065820000000 1.0
C      1  0.4701470000000  0.5222780000000  0.4241300000000 1.0
C      1  0.5653870000000  0.5254430000000  0.4453810000000 1.0
C      1  0.5712960000000  0.4719530000000  0.5460910000000 1.0
C      1  0.4843870000000  0.4899710000000  0.5714090000000 1.0
C      1  0.4182880000000  0.4731240000000  0.5043070000000 1.0
C      1  0.4690500000000  0.4738660000000  0.4223260000000 1.0
C      1  0.5642170000000  0.4729060000000  0.4457560000000 1.0
C      1  0.4348010000000  0.5628850000000  0.5258610000000 1.0
C      1  0.4583830000000  0.5650550000000  0.4439300000000 1.0
C      1  0.5358990000000  0.5647870000000  0.4410910000000 1.0
C      1  0.5706870000000  0.5671550000000  0.5181440000000 1.0
C      1  0.4997530000000  0.5637110000000  0.5692600000000 1.0
C      1  0.4354920000000  0.4318600000000  0.5229780000000 1.0
C      1  0.4556740000000  0.4327770000000  0.4477650000000 1.0
C      1  0.5328100000000  0.4316440000000  0.4379290000000 1.0
C      1  0.5661360000000  0.4321510000000  0.5228960000000 1.0
C      1  0.4973340000000  0.4336690000000  0.5680940000000 1.0
C      1  0.4252360000000  0.5486770000000  0.4993610000000 1.0
C      1  0.4812170000000  0.5490920000000  0.4286880000000 1.0
C      1  0.5573630000000  0.5505680000000  0.4572970000000 1.0
C      1  0.5617740000000  0.5517030000000  0.5432080000000 1.0
C      1  0.4746970000000  0.5446960000000  0.5632070000000 1.0
C      1  0.4284300000000  0.4474490000000  0.4967100000000 1.0
C      1  0.4786310000000  0.4472460000000  0.4299230000000 1.0
C      1  0.5542200000000  0.4466420000000  0.4502100000000 1.0
C      1  0.5541610000000  0.4484440000000  0.5443890000000 1.0
C      1  0.4696990000000  0.4465800000000  0.5627080000000 1.0
C      1  0.5041000000000  0.5182110000000  0.5326750000000 1.0
C      1  0.4636100000000  0.5252800000000  0.5170760000000 1.0
C      1  0.4839080000000  0.5239750000000  0.4736670000000 1.0
C      1  0.5257170000000  0.5203210000000  0.4723160000000 1.0
C      1  0.5286560000000  0.5232870000000  0.5189980000000 1.0
C      1  0.5077120000000  0.4700800000000  0.5396510000000 1.0
C      1  0.4630650000000  0.4730010000000  0.5178220000000 1.0
C      1  0.4766340000000  0.4679950000000  0.4758430000000 1.0
C      1  0.5239170000000  0.4699040000000  0.4841150000000 1.0
C      1  0.5385550000000  0.4772680000000  0.5079590000000 1.0
C      1  0.5577990000000  0.5127590000000  0.5685360000000 1.0
C      1  0.4498340000000  0.5112160000000  0.5759850000000 1.0
C      1  0.4136040000000  0.5133810000000  0.4787440000000 1.0
C      1  0.4945020000000  0.5124120000000  0.4118420000000 1.0
C      1  0.5814180000000  0.5125790000000  0.4666330000000 1.0
C      1  0.5566680000000  0.4842400000000  0.5676650000000 1.0
C      1  0.4530030000000  0.4830830000000  0.5729210000000 1.0
C      1  0.4150610000000  0.4848060000000  0.4783700000000 1.0
C      1  0.4941120000000  0.4841820000000  0.4109000000000 1.0
C      1  0.5796100000000  0.4840510000000  0.4685500000000 1.0
C      1  0.4569310000000  0.5805970000000  0.5203850000000 1.0
C      1  0.4681380000000  0.5817120000000  0.4657490000000 1.0
C      1  0.5231280000000  0.5814240000000  0.4611600000000 1.0
C      1  0.5487710000000  0.5816840000000  0.5065020000000 1.0
C      1  0.5076230000000  0.5807830000000  0.5476460000000 1.0
C      1  0.4572270000000  0.4141960000000  0.5180040000000 1.0
C      1  0.4701860000000  0.4149880000000  0.4653280000000 1.0
C      1  0.5241350000000  0.4144790000000  0.4598310000000 1.0
C      1  0.5462580000000  0.4153180000000  0.5102760000000 1.0
C      1  0.5048000000000  0.4167700000000  0.5459590000000 1.0
C      1  0.4325880000000  0.5255230000000  0.5561060000000 1.0
C      1  0.4274010000000  0.5266380000000  0.4551730000000 1.0
C      1  0.5214320000000  0.5258270000000  0.4156170000000 1.0
C      1  0.5846740000000  0.5276950000000  0.4917640000000 1.0
C      1  0.5335170000000  0.5284690000000  0.5809400000000 1.0
C      1  0.4349270000000  0.4695440000000  0.5539970000000 1.0
C      1  0.4267940000000  0.4708740000000  0.4543830000000 1.0
C      1  0.5210030000000  0.4711270000000  0.4147770000000 1.0
C      1  0.5845090000000  0.4710910000000  0.4950390000000 1.0
C      1  0.5323720000000  0.4699090000000  0.5795550000000 1.0
C      1  0.5487070000000  0.5037630000000  0.5122470000000 1.0
C      1  0.5165230000000  0.4949620000000  0.4637560000000 1.0
C      1  0.5024700000000  0.4954720000000  0.5483210000000 1.0
C      1  0.4632030000000  0.4988100000000  0.5172780000000 1.0
C      1  0.4762700000000  0.4971460000000  0.4725270000000 1.0
C      1  0.4998890000000  0.4325510000000  0.5062560000000 1.0
C      1  0.5011050000000  0.5672290000000  0.5053670000000 1.0
C      1  0.4991790000000  0.4589780000000  0.4948270000000 1.0
C      1  0.4974100000000  0.5397550000000  0.4961870000000 1.0
END
