TITL C-2441161-5029-237 0.0373787508899194 125000 -15390.7786094276 0 0 107 (C1) n - 1
REM
REM in /home/bkarasulu/work/CARBON/AIRSS/Generating-Clusters/ReaxFF-fromJPCA2015/Units_Real/with-SteepDescent/Higher-Symm
REM
REM
REM
REM
REM
REM ./C.cell (1df0a924f5614ab8850e4351716899ee)
REM
REM compiler GCC version 9.2.1 20190827 (Red Hat 9.2.1-1)
REM options -cpp -mtune=generic -march=x86-64 -g -O0 -fpre-include=/usr/include/finclude/math-vector-fortran.h
REM seed -735206604 -894551939 428292637 456803526 -1799196718 1702254176 -1270183213 -506014052 576161637 -2133191450 1446651971 -2024832644 1991815108 -2129062191 1475196355 -52102618 -310259918 -1783862898 -1918933977 280521660 -548175882 1551306078 1944775317 -498954756 -2087416701 -1537926563 1545954563 -961486067 -763312176 -1055893777 -1284912601 -359950798 381063794
REM
CELL 1.54180   50.00000   50.00000   50.00000   90.00000   90.00000   90.00000
LATT -1
SFAC C  
C      1  0.4390960000000  0.4501440000000  0.5321540000000 1.0
C      1  0.4388340000000  0.5483580000000  0.5323850000000 1.0
C      1  0.5558650000000  0.5298780000000  0.5615350000000 1.0
C      1  0.5537030000000  0.4688260000000  0.5587690000000 1.0
C      1  0.5162440000000  0.5734330000000  0.4893200000000 1.0
C      1  0.5122060000000  0.4468340000000  0.4891480000000 1.0
C      1  0.5630030000000  0.5641210000000  0.5156150000000 1.0
C      1  0.5595160000000  0.4364240000000  0.5112810000000 1.0
C      1  0.5154910000000  0.4848380000000  0.4193770000000 1.0
C      1  0.5154080000000  0.5132050000000  0.4184750000000 1.0
C      1  0.5140850000000  0.4201700000000  0.5542920000000 1.0
C      1  0.5159430000000  0.5786320000000  0.5571670000000 1.0
C      1  0.4557060000000  0.4518160000000  0.5091810000000 1.0
C      1  0.4551240000000  0.5477040000000  0.5086130000000 1.0
C      1  0.4155270000000  0.5301580000000  0.4775610000000 1.0
C      1  0.4136030000000  0.4681530000000  0.4785540000000 1.0
C      1  0.4772330000000  0.4750330000000  0.5681210000000 1.0
C      1  0.4825480000000  0.5231270000000  0.5747180000000 1.0
C      1  0.5419370000000  0.4201310000000  0.5457610000000 1.0
C      1  0.5436510000000  0.5792040000000  0.5493660000000 1.0
C      1  0.4745500000000  0.4474010000000  0.5650880000000 1.0
C      1  0.4819310000000  0.5451270000000  0.5545890000000 1.0
C      1  0.5194880000000  0.5919050000000  0.5128830000000 1.0
C      1  0.5148400000000  0.4074910000000  0.5065580000000 1.0
C      1  0.5421180000000  0.5148550000000  0.5226850000000 1.0
C      1  0.5501230000000  0.4862030000000  0.5211460000000 1.0
C      1  0.4676880000000  0.4633410000000  0.4320550000000 1.0
C      1  0.4668150000000  0.5333880000000  0.4319770000000 1.0
C      1  0.5011810000000  0.5902540000000  0.5353190000000 1.0
C      1  0.4995190000000  0.4082390000000  0.5316670000000 1.0
C      1  0.4490780000000  0.4861470000000  0.5694350000000 1.0
C      1  0.4579820000000  0.5100880000000  0.5769650000000 1.0
C      1  0.5409760000000  0.5712790000000  0.4615560000000 1.0
C      1  0.5441260000000  0.4313410000000  0.4537220000000 1.0
C      1  0.4997930000000  0.5583340000000  0.4286240000000 1.0
C      1  0.5022020000000  0.4398090000000  0.4345200000000 1.0
C      1  0.4963010000000  0.4696580000000  0.4362950000000 1.0
C      1  0.4959880000000  0.5300590000000  0.4281640000000 1.0
C      1  0.5107650000000  0.5311350000000  0.5798890000000 1.0
C      1  0.5062800000000  0.4708000000000  0.5746220000000 1.0
C      1  0.4721170000000  0.5625630000000  0.4358730000000 1.0
C      1  0.4741680000000  0.4342970000000  0.4393950000000 1.0
C      1  0.4271710000000  0.4847920000000  0.5015630000000 1.0
C      1  0.4275850000000  0.5140520000000  0.5023310000000 1.0
C      1  0.5010890000000  0.4540240000000  0.5136140000000 1.0
C      1  0.5013510000000  0.5494920000000  0.4972300000000 1.0
C      1  0.5059170000000  0.4173960000000  0.4775820000000 1.0
C      1  0.5026350000000  0.5841550000000  0.4655400000000 1.0
C      1  0.4714270000000  0.4159480000000  0.5325640000000 1.0
C      1  0.4744500000000  0.5805910000000  0.5311790000000 1.0
C      1  0.5019250000000  0.4811610000000  0.5250150000000 1.0
C      1  0.5102220000000  0.5098790000000  0.5232560000000 1.0
C      1  0.5437420000000  0.5145250000000  0.4247710000000 1.0
C      1  0.5445980000000  0.4853650000000  0.4245860000000 1.0
C      1  0.5469040000000  0.5884600000000  0.5214630000000 1.0
C      1  0.5417500000000  0.4131820000000  0.5162720000000 1.0
C      1  0.5815920000000  0.4860110000000  0.4598830000000 1.0
C      1  0.5802150000000  0.5147470000000  0.4610110000000 1.0
C      1  0.4286380000000  0.4709990000000  0.4558420000000 1.0
C      1  0.4316670000000  0.5284770000000  0.4547240000000 1.0
C      1  0.4255570000000  0.4756900000000  0.5298470000000 1.0
C      1  0.4271190000000  0.5217670000000  0.5312820000000 1.0
C      1  0.5315070000000  0.4848200000000  0.5708740000000 1.0
C      1  0.5334430000000  0.5142540000000  0.5734220000000 1.0
C      1  0.5809820000000  0.4715230000000  0.4858880000000 1.0
C      1  0.5790710000000  0.5256300000000  0.4887400000000 1.0
C      1  0.5042130000000  0.5273440000000  0.4803640000000 1.0
C      1  0.5078720000000  0.4730830000000  0.4770310000000 1.0
C      1  0.5050080000000  0.5559040000000  0.5667530000000 1.0
C      1  0.5023580000000  0.4420270000000  0.5695320000000 1.0
C      1  0.5326430000000  0.5160810000000  0.4741310000000 1.0
C      1  0.5347880000000  0.4854350000000  0.4733110000000 1.0
C      1  0.5637360000000  0.5550250000000  0.4625290000000 1.0
C      1  0.5665570000000  0.4430510000000  0.4584650000000 1.0
C      1  0.4450140000000  0.4817160000000  0.4371700000000 1.0
C      1  0.4451820000000  0.5138180000000  0.4369680000000 1.0
C      1  0.4607350000000  0.5220100000000  0.4986100000000 1.0
C      1  0.4609910000000  0.4779660000000  0.4972430000000 1.0
C      1  0.5716250000000  0.4849170000000  0.5422770000000 1.0
C      1  0.5704060000000  0.5140330000000  0.5431040000000 1.0
C      1  0.4757490000000  0.5799580000000  0.4594210000000 1.0
C      1  0.4783430000000  0.4189030000000  0.4645140000000 1.0
C      1  0.4170990000000  0.5582760000000  0.4777890000000 1.0
C      1  0.4167770000000  0.4396970000000  0.4782030000000 1.0
C      1  0.4797640000000  0.5123740000000  0.4769410000000 1.0
C      1  0.4813690000000  0.4838620000000  0.4733360000000 1.0
C      1  0.4593000000000  0.5627880000000  0.5477180000000 1.0
C      1  0.4562200000000  0.4336940000000  0.5492970000000 1.0
C      1  0.4754940000000  0.5661390000000  0.5053940000000 1.0
C      1  0.4747430000000  0.4325730000000  0.5095390000000 1.0
C      1  0.4821530000000  0.5185860000000  0.5241400000000 1.0
C      1  0.4739650000000  0.4904560000000  0.5223470000000 1.0
C      1  0.5546400000000  0.5264240000000  0.4502810000000 1.0
C      1  0.5569600000000  0.4736050000000  0.4490720000000 1.0
C      1  0.5535680000000  0.4780510000000  0.4949020000000 1.0
C      1  0.5509550000000  0.5208690000000  0.4962010000000 1.0
C      1  0.5203760000000  0.4213320000000  0.4497270000000 1.0
C      1  0.5185840000000  0.5747880000000  0.4445730000000 1.0
C      1  0.5578230000000  0.5543570000000  0.5439220000000 1.0
C      1  0.5562330000000  0.4452840000000  0.5410980000000 1.0
C      1  0.4340590000000  0.4245350000000  0.4818070000000 1.0
C      1  0.4342110000000  0.5740430000000  0.4807630000000 1.0
C      1  0.4597450000000  0.5831570000000  0.4827890000000 1.0
C      1  0.4601690000000  0.4160850000000  0.4856330000000 1.0
C      1  0.5748420000000  0.4429930000000  0.4874160000000 1.0
C      1  0.5748540000000  0.5544690000000  0.4905790000000 1.0
C      1  0.4305250000000  0.4977290000000  0.5475720000000 1.0
END
