TITL C-2441160-1326-1023 -0.00183636506270306 125000 -3243.44832605347 0 0 23 (Ci) n - 1
REM
REM in /home/bkarasulu/work/CARBON/AIRSS/Generating-Clusters/ReaxFF-fromJPCA2015/Units_Real/with-SteepDescent/Higher-Symm
REM
REM
REM
REM
REM
REM ./C.cell (1df0a924f5614ab8850e4351716899ee)
REM
REM compiler GCC version 9.2.1 20190827 (Red Hat 9.2.1-1)
REM options -cpp -mtune=generic -march=x86-64 -g -O0 -fpre-include=/usr/include/finclude/math-vector-fortran.h
REM seed -1240368924 396196317 1238903603 776496566 -789552090 -1248852708 66030064 -442504360 1690333008 -2069406450 -640325449 -281229133 786773865 83385921 1129277292 1903569450 1936500735 862588153 -1271350924 -9927069 -1225659709 967930090 1932667988 -1933684865 2032649242 204073496 1485279938 679070573 -633950499 2022147512 1173526531 -550594896 1518578345
REM
CELL 1.54180   50.00000   50.00000   50.00000   90.00000   90.00000   90.00000
LATT -1
SFAC C  
C      1  0.5135220000000  0.5173410000000  0.5463480000000 1.0
C      1  0.5296520000000  0.4747250000000  0.5245680000000 1.0
C      1  0.5484970000000  0.5157170000000  0.5020850000000 1.0
C      1  0.5393430000000  0.4847270000000  0.4734170000000 1.0
C      1  0.5119960000000  0.5260150000000  0.4647950000000 1.0
C      1  0.4867190000000  0.4835400000000  0.4531550000000 1.0
C      1  0.4711470000000  0.5260450000000  0.4756110000000 1.0
C      1  0.4524990000000  0.4845940000000  0.4978390000000 1.0
C      1  0.4610810000000  0.5163720000000  0.5258630000000 1.0
C      1  0.4885980000000  0.4745270000000  0.5347450000000 1.0
C      1  0.4858590000000  0.5203820000000  0.5388140000000 1.0
C      1  0.5132880000000  0.4864230000000  0.5466840000000 1.0
C      1  0.5338230000000  0.5199460000000  0.5259140000000 1.0
C      1  0.5470750000000  0.4864090000000  0.5041120000000 1.0
C      1  0.5376370000000  0.5140190000000  0.4725200000000 1.0
C      1  0.5145680000000  0.4808130000000  0.4603250000000 1.0
C      1  0.4869830000000  0.5144690000000  0.4530880000000 1.0
C      1  0.4671490000000  0.4804970000000  0.4740860000000 1.0
C      1  0.4532920000000  0.5140390000000  0.4954470000000 1.0
C      1  0.4630530000000  0.4869490000000  0.5273330000000 1.0
C      1  0.5038730000000  0.4731730000000  0.5083440000000 1.0
C      1  0.4973320000000  0.5270860000000  0.4913220000000 1.0
C      1  0.5006350000000  0.5000830000000  0.4997900000000 1.0
END
