TITL C-2441162-9305-793 0.00543209503798816 125000 -6973.01190093083 0 0 48 (Cs) n - 1
REM
REM in /home/bkarasulu/work/CARBON/AIRSS/Generating-Clusters/ReaxFF-fromJPCA2015/Units_Real/with-SteepDescent/Higher-Symm
REM
REM
REM
REM
REM
REM ./C.cell (1df0a924f5614ab8850e4351716899ee)
REM
REM compiler GCC version 9.2.1 20190827 (Red Hat 9.2.1-1)
REM options -cpp -mtune=generic -march=x86-64 -g -O0 -fpre-include=/usr/include/finclude/math-vector-fortran.h
REM seed -404005925 372884319 1004533589 1035569725 913790211 -784789031 1331149802 1494710540 2006500650 -1270713857 474593979 1881916818 -1197071732 -713100310 36021180 -947594146 1572551703 701472556 518277067 1782814088 104942250 891977707 23194014 1985699882 -554330968 -6082459 -1832457018 -681141309 -1725232163 -1522965872 936240922 -259603008 -897732971
REM
CELL 1.54180   50.00000   50.00000   50.00000   90.00000   90.00000   90.00000
LATT -1
SFAC C  
C      1  0.5142260000000  0.5184220000000  0.4258720000000 1.0
C      1  0.4848390000000  0.5182480000000  0.5734320000000 1.0
C      1  0.5141860000000  0.5184560000000  0.5741330000000 1.0
C      1  0.4848550000000  0.5182110000000  0.4265580000000 1.0
C      1  0.4641420000000  0.5016490000000  0.4685950000000 1.0
C      1  0.5388290000000  0.5018680000000  0.5338760000000 1.0
C      1  0.4640760000000  0.5016560000000  0.5314570000000 1.0
C      1  0.5388060000000  0.5018850000000  0.4661910000000 1.0
C      1  0.5193480000000  0.4929410000000  0.4410270000000 1.0
C      1  0.4819280000000  0.4928690000000  0.5574940000000 1.0
C      1  0.5193860000000  0.4929470000000  0.5590420000000 1.0
C      1  0.4820070000000  0.4928560000000  0.4425570000000 1.0
C      1  0.5405550000000  0.5250900000000  0.5264030000000 1.0
C      1  0.4598840000000  0.5253800000000  0.4743260000000 1.0
C      1  0.5406010000000  0.5251020000000  0.4736250000000 1.0
C      1  0.4598600000000  0.5253720000000  0.5256430000000 1.0
C      1  0.4849290000000  0.5444770000000  0.4403810000000 1.0
C      1  0.5143200000000  0.5443780000000  0.5597560000000 1.0
C      1  0.4849160000000  0.5444740000000  0.5595940000000 1.0
C      1  0.5143680000000  0.5443740000000  0.4402150000000 1.0
C      1  0.5573410000000  0.4890610000000  0.4850450000000 1.0
C      1  0.4432030000000  0.4891020000000  0.5149340000000 1.0
C      1  0.5573730000000  0.4890450000000  0.5150110000000 1.0
C      1  0.4431990000000  0.4891300000000  0.4850490000000 1.0
C      1  0.4848820000000  0.5677110000000  0.5146340000000 1.0
C      1  0.5146170000000  0.5671680000000  0.4853470000000 1.0
C      1  0.4848810000000  0.5677230000000  0.4853120000000 1.0
C      1  0.5146120000000  0.5671490000000  0.5146120000000 1.0
C      1  0.5345830000000  0.4449900000000  0.5308830000000 1.0
C      1  0.4649270000000  0.4435690000000  0.4699980000000 1.0
C      1  0.5344710000000  0.4450700000000  0.4691850000000 1.0
C      1  0.4650950000000  0.4435830000000  0.5298690000000 1.0
C      1  0.4734810000000  0.4656640000000  0.5678040000000 1.0
C      1  0.5255400000000  0.4651950000000  0.4306360000000 1.0
C      1  0.4734430000000  0.4656950000000  0.4321590000000 1.0
C      1  0.5255140000000  0.4652300000000  0.5694280000000 1.0
C      1  0.4838020000000  0.4424660000000  0.5521590000000 1.0
C      1  0.5155490000000  0.4425500000000  0.4473290000000 1.0
C      1  0.4837170000000  0.4424490000000  0.4477710000000 1.0
C      1  0.5156210000000  0.4425690000000  0.5527210000000 1.0
C      1  0.5295150000000  0.5491490000000  0.5337800000000 1.0
C      1  0.4697640000000  0.5498410000000  0.4662400000000 1.0
C      1  0.5295380000000  0.5491370000000  0.4662070000000 1.0
C      1  0.4697770000000  0.5498190000000  0.5337130000000 1.0
C      1  0.5552580000000  0.4590950000000  0.5148420000000 1.0
C      1  0.4444750000000  0.4590530000000  0.4851990000000 1.0
C      1  0.5552080000000  0.4591050000000  0.4852090000000 1.0
C      1  0.4445520000000  0.4590300000000  0.5147460000000 1.0
END
