TITL C-2441158-471-732 0.0575978360759542 125000 -24771.2224321442 0 0 172 (C1) n - 1
REM
REM in /home/bkarasulu/work/CARBON/AIRSS/Generating-Clusters/ReaxFF-fromJPCA2015/Units_Real/with-SteepDescent/Higher-Symm
REM
REM
REM
REM
REM
REM ./C.cell (1df0a924f5614ab8850e4351716899ee)
REM
REM compiler GCC version 9.2.1 20190827 (Red Hat 9.2.1-1)
REM options -cpp -mtune=generic -march=x86-64 -g -O0 -fpre-include=/usr/include/finclude/math-vector-fortran.h
REM seed 1356246643 -2094483315 1193447195 -1601674757 1216716593 -828413967 -2063710756 1940467639 548797585 -4561784 -442315963 -1094410502 -312004128 68865335 1053585728 -82735415 -757047299 -236956600 -479498617 -430112284 2124455933 -258628870 -71159414 146272213 160747444 511085982 1789477291 -1383147603 -1202692167 1383893817 -858878389 1187211916 -1444547001
REM
CELL 1.54180   50.00000   50.00000   50.00000   90.00000   90.00000   90.00000
LATT -1
SFAC C  
C      1  0.5118810000000  0.5688490000000  0.5934060000000 1.0
C      1  0.5902520000000  0.5105830000000  0.5732740000000 1.0
C      1  0.5734310000000  0.5947210000000  0.5074940000000 1.0
C      1  0.5089260000000  0.4265110000000  0.4060010000000 1.0
C      1  0.4861460000000  0.4294650000000  0.5901420000000 1.0
C      1  0.4926580000000  0.5729540000000  0.4072420000000 1.0
C      1  0.5939630000000  0.4923600000000  0.4278070000000 1.0
C      1  0.4088320000000  0.4901230000000  0.5744080000000 1.0
C      1  0.4071030000000  0.5079520000000  0.4288820000000 1.0
C      1  0.5731690000000  0.4069560000000  0.4913270000000 1.0
C      1  0.4330250000000  0.4060430000000  0.5126510000000 1.0
C      1  0.4288250000000  0.5925100000000  0.4911150000000 1.0
C      1  0.5111510000000  0.5897310000000  0.5723320000000 1.0
C      1  0.5942650000000  0.5734620000000  0.5085340000000 1.0
C      1  0.5687510000000  0.5118470000000  0.5940080000000 1.0
C      1  0.5090370000000  0.4064060000000  0.4275750000000 1.0
C      1  0.4923160000000  0.5947860000000  0.4276740000000 1.0
C      1  0.4853110000000  0.4097330000000  0.5677630000000 1.0
C      1  0.5938770000000  0.4281940000000  0.4915920000000 1.0
C      1  0.4082570000000  0.5709960000000  0.4920080000000 1.0
C      1  0.4106340000000  0.4256930000000  0.5112370000000 1.0
C      1  0.5732220000000  0.4929250000000  0.4064770000000 1.0
C      1  0.4282970000000  0.5070860000000  0.4072480000000 1.0
C      1  0.4302090000000  0.4883210000000  0.5950680000000 1.0
C      1  0.5352700000000  0.4160710000000  0.4367680000000 1.0
C      1  0.4385100000000  0.5330010000000  0.4172960000000 1.0
C      1  0.4170910000000  0.4341830000000  0.5387710000000 1.0
C      1  0.5383870000000  0.5822440000000  0.5640400000000 1.0
C      1  0.4665880000000  0.5848670000000  0.4375240000000 1.0
C      1  0.4568620000000  0.4151490000000  0.5626690000000 1.0
C      1  0.4331750000000  0.4601550000000  0.5895090000000 1.0
C      1  0.5644250000000  0.4658610000000  0.4143800000000 1.0
C      1  0.5648950000000  0.5403290000000  0.5884180000000 1.0
C      1  0.4176540000000  0.5612410000000  0.4659690000000 1.0
C      1  0.5859360000000  0.5668570000000  0.5363440000000 1.0
C      1  0.5857340000000  0.4359940000000  0.4643230000000 1.0
C      1  0.5354060000000  0.4363910000000  0.4143380000000 1.0
C      1  0.4365890000000  0.4116770000000  0.5420050000000 1.0
C      1  0.4181430000000  0.5330600000000  0.4387660000000 1.0
C      1  0.5388470000000  0.5564440000000  0.5835810000000 1.0
C      1  0.4583980000000  0.4401410000000  0.5818080000000 1.0
C      1  0.4657120000000  0.5642100000000  0.4158490000000 1.0
C      1  0.4376270000000  0.5839200000000  0.4640980000000 1.0
C      1  0.5628950000000  0.4163380000000  0.4652200000000 1.0
C      1  0.5637220000000  0.5868460000000  0.5337360000000 1.0
C      1  0.4145600000000  0.4621260000000  0.5671510000000 1.0
C      1  0.5833680000000  0.5383140000000  0.5655780000000 1.0
C      1  0.5865230000000  0.4646730000000  0.4347110000000 1.0
C      1  0.5126040000000  0.5541350000000  0.4689950000000 1.0
C      1  0.4725960000000  0.5002480000000  0.5411970000000 1.0
C      1  0.5400770000000  0.4765460000000  0.4980760000000 1.0
C      1  0.5093640000000  0.4522620000000  0.5293580000000 1.0
C      1  0.4969820000000  0.4546970000000  0.4818090000000 1.0
C      1  0.5008320000000  0.5466530000000  0.5119710000000 1.0
C      1  0.4710920000000  0.4882770000000  0.4500530000000 1.0
C      1  0.5334270000000  0.4905960000000  0.5455330000000 1.0
C      1  0.5287060000000  0.5084770000000  0.4524760000000 1.0
C      1  0.5403990000000  0.5189170000000  0.4996650000000 1.0
C      1  0.4499440000000  0.5300390000000  0.5081810000000 1.0
C      1  0.4562160000000  0.4840190000000  0.4951070000000 1.0
C      1  0.5066850000000  0.4809350000000  0.5370850000000 1.0
C      1  0.4765990000000  0.5402370000000  0.4977420000000 1.0
C      1  0.5401860000000  0.5004670000000  0.4780490000000 1.0
C      1  0.5073250000000  0.5271820000000  0.4592580000000 1.0
C      1  0.4937280000000  0.4788000000000  0.4658680000000 1.0
C      1  0.4875150000000  0.5218460000000  0.5528130000000 1.0
C      1  0.4687040000000  0.4564280000000  0.4925630000000 1.0
C      1  0.5257970000000  0.5467810000000  0.4969910000000 1.0
C      1  0.5187640000000  0.4558130000000  0.5014320000000 1.0
C      1  0.5446720000000  0.4969770000000  0.5185870000000 1.0
C      1  0.4576110000000  0.5024560000000  0.5157730000000 1.0
C      1  0.4483990000000  0.4928670000000  0.4682970000000 1.0
C      1  0.5916090000000  0.5091870000000  0.4522290000000 1.0
C      1  0.4524030000000  0.5922160000000  0.5092710000000 1.0
C      1  0.5067500000000  0.4508640000000  0.5899190000000 1.0
C      1  0.5903820000000  0.4920320000000  0.5499210000000 1.0
C      1  0.4053070000000  0.4902590000000  0.4525160000000 1.0
C      1  0.4101680000000  0.5075550000000  0.5505840000000 1.0
C      1  0.4538480000000  0.4087480000000  0.4927560000000 1.0
C      1  0.5497610000000  0.4090210000000  0.5096030000000 1.0
C      1  0.5496520000000  0.5921500000000  0.4899120000000 1.0
C      1  0.5099390000000  0.5489730000000  0.4095370000000 1.0
C      1  0.4925250000000  0.5474270000000  0.5934660000000 1.0
C      1  0.4915840000000  0.4505950000000  0.4079820000000 1.0
C      1  0.5922840000000  0.4511790000000  0.5091840000000 1.0
C      1  0.4515740000000  0.5088310000000  0.5933150000000 1.0
C      1  0.5100970000000  0.5957110000000  0.4508640000000 1.0
C      1  0.5924050000000  0.5491420000000  0.4922210000000 1.0
C      1  0.4095180000000  0.4498780000000  0.4938010000000 1.0
C      1  0.4080420000000  0.5480110000000  0.5098540000000 1.0
C      1  0.4520940000000  0.4903290000000  0.4069950000000 1.0
C      1  0.5489910000000  0.5089810000000  0.4080620000000 1.0
C      1  0.5476510000000  0.4917690000000  0.5921950000000 1.0
C      1  0.5070140000000  0.4076820000000  0.5484290000000 1.0
C      1  0.4934030000000  0.5903000000000  0.5489490000000 1.0
C      1  0.4919390000000  0.4087780000000  0.4518170000000 1.0
C      1  0.4987230000000  0.5212290000000  0.6040780000000 1.0
C      1  0.5980350000000  0.4992570000000  0.5219040000000 1.0
C      1  0.5221580000000  0.6015740000000  0.4981050000000 1.0
C      1  0.4987620000000  0.4785500000000  0.4015250000000 1.0
C      1  0.4996410000000  0.4796250000000  0.5955800000000 1.0
C      1  0.5018670000000  0.5207860000000  0.4032740000000 1.0
C      1  0.6007350000000  0.5015020000000  0.4797790000000 1.0
C      1  0.4016630000000  0.5005450000000  0.5222570000000 1.0
C      1  0.3982250000000  0.4975290000000  0.4799780000000 1.0
C      1  0.5226840000000  0.3992750000000  0.5011940000000 1.0
C      1  0.4804060000000  0.3994170000000  0.4990020000000 1.0
C      1  0.4799180000000  0.5996670000000  0.5019120000000 1.0
C      1  0.5003800000000  0.5988210000000  0.5201650000000 1.0
C      1  0.6006280000000  0.5217770000000  0.4997430000000 1.0
C      1  0.5205290000000  0.4986200000000  0.5978320000000 1.0
C      1  0.5009070000000  0.4011940000000  0.4793860000000 1.0
C      1  0.5028600000000  0.6032710000000  0.4774580000000 1.0
C      1  0.5026530000000  0.3976440000000  0.5217870000000 1.0
C      1  0.5985010000000  0.4793860000000  0.5018610000000 1.0
C      1  0.3996130000000  0.5210530000000  0.5029300000000 1.0
C      1  0.4007230000000  0.4784300000000  0.5005690000000 1.0
C      1  0.5218670000000  0.5010950000000  0.4016830000000 1.0
C      1  0.4791970000000  0.4990110000000  0.3998370000000 1.0
C      1  0.4784840000000  0.5006000000000  0.6026240000000 1.0
C      1  0.5739350000000  0.4476390000000  0.5322760000000 1.0
C      1  0.5304900000000  0.5711870000000  0.4499700000000 1.0
C      1  0.4479300000000  0.5304040000000  0.5744280000000 1.0
C      1  0.5736420000000  0.5522110000000  0.4694700000000 1.0
C      1  0.4322610000000  0.5479660000000  0.5289030000000 1.0
C      1  0.4259120000000  0.4471500000000  0.4705060000000 1.0
C      1  0.5283350000000  0.4301720000000  0.5494450000000 1.0
C      1  0.4699880000000  0.4270870000000  0.4484060000000 1.0
C      1  0.4710060000000  0.5723240000000  0.5505710000000 1.0
C      1  0.4542540000000  0.4715410000000  0.4307520000000 1.0
C      1  0.5495830000000  0.4700550000000  0.5707820000000 1.0
C      1  0.5476850000000  0.5274290000000  0.4327390000000 1.0
C      1  0.5735190000000  0.5312720000000  0.4499380000000 1.0
C      1  0.5305400000000  0.4471780000000  0.5742060000000 1.0
C      1  0.4503120000000  0.5736530000000  0.5318160000000 1.0
C      1  0.5743960000000  0.4680440000000  0.5528510000000 1.0
C      1  0.4279610000000  0.5299270000000  0.5538890000000 1.0
C      1  0.4274960000000  0.4704240000000  0.4527330000000 1.0
C      1  0.5318890000000  0.5521890000000  0.4268760000000 1.0
C      1  0.4698930000000  0.4459050000000  0.4267180000000 1.0
C      1  0.4742930000000  0.5450580000000  0.5679180000000 1.0
C      1  0.4524660000000  0.4323870000000  0.4733500000000 1.0
C      1  0.5541910000000  0.5739830000000  0.4686860000000 1.0
C      1  0.5529520000000  0.4270780000000  0.5316640000000 1.0
C      1  0.5431140000000  0.5639100000000  0.5220430000000 1.0
C      1  0.5228470000000  0.5400400000000  0.5619700000000 1.0
C      1  0.5649000000000  0.5269970000000  0.5451870000000 1.0
C      1  0.5436960000000  0.4363320000000  0.4759400000000 1.0
C      1  0.4628230000000  0.4474640000000  0.5188540000000 1.0
C      1  0.4578270000000  0.5647070000000  0.4745300000000 1.0
C      1  0.5252490000000  0.4564310000000  0.4342280000000 1.0
C      1  0.4739300000000  0.4577980000000  0.5626130000000 1.0
C      1  0.4756190000000  0.5442470000000  0.4356620000000 1.0
C      1  0.5658600000000  0.4738350000000  0.4542590000000 1.0
C      1  0.4346840000000  0.4729790000000  0.5482200000000 1.0
C      1  0.4406810000000  0.5210020000000  0.4597140000000 1.0
C      1  0.5388610000000  0.5183370000000  0.5530970000000 1.0
C      1  0.5263810000000  0.5632040000000  0.5451930000000 1.0
C      1  0.5660590000000  0.5466740000000  0.5272660000000 1.0
C      1  0.5440570000000  0.4775640000000  0.4354690000000 1.0
C      1  0.4595410000000  0.5220100000000  0.4371960000000 1.0
C      1  0.4599180000000  0.4823290000000  0.5575770000000 1.0
C      1  0.5227640000000  0.4378880000000  0.4560620000000 1.0
C      1  0.4809290000000  0.5623910000000  0.4574270000000 1.0
C      1  0.4826880000000  0.4457940000000  0.5375520000000 1.0
C      1  0.5657260000000  0.4558340000000  0.4755320000000 1.0
C      1  0.4400230000000  0.5417020000000  0.4783770000000 1.0
C      1  0.4368400000000  0.4543190000000  0.5290090000000 1.0
C      1  0.4960870000000  0.4968720000000  0.4882880000000 1.0
C      1  0.4873340000000  0.5215670000000  0.4784160000000 1.0
C      1  0.5032410000000  0.4985850000000  0.5155610000000 1.0
C      1  0.5025960000000  0.5234730000000  0.5284220000000 1.0
END
