TITL C-2441167-4473-1064 0.0331408472130446 125000 -8686.00920752051 0 0 71 (C1) n - 1
REM
REM in /home/bkarasulu/work/CARBON/AIRSS/Generating-Clusters/ReaxFF-fromJPCA2015/Units_Real/with-SteepDescent/Higher-Symm
REM
REM
REM
REM
REM
REM ./C.cell (1df0a924f5614ab8850e4351716899ee)
REM
REM compiler GCC version 9.2.1 20190827 (Red Hat 9.2.1-1)
REM options -cpp -mtune=generic -march=x86-64 -g -O0 -fpre-include=/usr/include/finclude/math-vector-fortran.h
REM seed 2045546039 2008382178 -914517565 -725312127 1441907750 -683831821 330805862 -845380320 -970269984 -1334971608 -1771518798 1419684221 -420547573 940708225 672585228 96316172 -1393622150 1670806555 1514251294 -1325994612 -1267539697 -567795713 373499900 717818339 1221571309 -2034985847 -284294198 -228870307 -425108893 -1647245587 -1462037697 -355446175 -104188895
REM
CELL 1.54180   50.00000   50.00000   50.00000   90.00000   90.00000   90.00000
LATT -1
SFAC C  
C      1  0.4704510000000  0.4912770000000  0.5734680000000 1.0
C      1  0.5212900000000  0.4795030000000  0.5720700000000 1.0
C      1  0.5082780000000  0.5284510000000  0.5728430000000 1.0
C      1  0.4706020000000  0.4925580000000  0.4296880000000 1.0
C      1  0.5210590000000  0.4787380000000  0.4301750000000 1.0
C      1  0.5074430000000  0.5289330000000  0.4304170000000 1.0
C      1  0.5289540000000  0.5515400000000  0.4700260000000 1.0
C      1  0.4392410000000  0.4983410000000  0.4691550000000 1.0
C      1  0.5320920000000  0.4501470000000  0.4709950000000 1.0
C      1  0.5270200000000  0.5527330000000  0.5328840000000 1.0
C      1  0.4396080000000  0.4980570000000  0.5340660000000 1.0
C      1  0.5307260000000  0.4503470000000  0.5329390000000 1.0
C      1  0.4988810000000  0.4130430000000  0.5133680000000 1.0
C      1  0.5737470000000  0.5402050000000  0.5153290000000 1.0
C      1  0.4268960000000  0.5437400000000  0.5152990000000 1.0
C      1  0.5002570000000  0.4148370000000  0.4880560000000 1.0
C      1  0.5741770000000  0.5423040000000  0.4888560000000 1.0
C      1  0.4257930000000  0.5431650000000  0.4888670000000 1.0
C      1  0.5613680000000  0.4857100000000  0.4683600000000 1.0
C      1  0.4812360000000  0.5599920000000  0.4697420000000 1.0
C      1  0.4575200000000  0.4548470000000  0.4712900000000 1.0
C      1  0.5619430000000  0.4905720000000  0.5386220000000 1.0
C      1  0.4779890000000  0.5581480000000  0.5395510000000 1.0
C      1  0.4565320000000  0.4540980000000  0.5313760000000 1.0
C      1  0.4788240000000  0.4818720000000  0.5127890000000 1.0
C      1  0.5278510000000  0.4886360000000  0.5145630000000 1.0
C      1  0.4912750000000  0.5276500000000  0.5153820000000 1.0
C      1  0.4886880000000  0.4755650000000  0.4875540000000 1.0
C      1  0.5267230000000  0.4913940000000  0.4868410000000 1.0
C      1  0.4928040000000  0.5249050000000  0.4871450000000 1.0
C      1  0.5618120000000  0.5207650000000  0.4744290000000 1.0
C      1  0.4499100000000  0.5420730000000  0.4733910000000 1.0
C      1  0.4874870000000  0.4346230000000  0.4729050000000 1.0
C      1  0.5662680000000  0.5207010000000  0.5337620000000 1.0
C      1  0.4505020000000  0.5430200000000  0.5312610000000 1.0
C      1  0.4884960000000  0.4348780000000  0.5304550000000 1.0
C      1  0.4854140000000  0.5120560000000  0.5402470000000 1.0
C      1  0.4922290000000  0.4837970000000  0.5387060000000 1.0
C      1  0.5236800000000  0.5081950000000  0.5345870000000 1.0
C      1  0.4830390000000  0.5119280000000  0.4624210000000 1.0
C      1  0.4923370000000  0.4851080000000  0.4629550000000 1.0
C      1  0.5222760000000  0.5046980000000  0.4624780000000 1.0
C      1  0.4624030000000  0.5180450000000  0.4401850000000 1.0
C      1  0.5017380000000  0.4622430000000  0.4425880000000 1.0
C      1  0.5336680000000  0.5207800000000  0.4404110000000 1.0
C      1  0.4641480000000  0.5170210000000  0.5626190000000 1.0
C      1  0.5008970000000  0.4623230000000  0.5620620000000 1.0
C      1  0.5339110000000  0.5212200000000  0.5625020000000 1.0
C      1  0.5306110000000  0.5297260000000  0.5159150000000 1.0
C      1  0.4541600000000  0.5131110000000  0.5144170000000 1.0
C      1  0.5082220000000  0.4513640000000  0.5146950000000 1.0
C      1  0.5362090000000  0.5311000000000  0.4898560000000 1.0
C      1  0.4535670000000  0.5149390000000  0.4892080000000 1.0
C      1  0.5049770000000  0.4552560000000  0.4893280000000 1.0
C      1  0.5097980000000  0.4370450000000  0.4559920000000 1.0
C      1  0.5518260000000  0.5408200000000  0.4547060000000 1.0
C      1  0.4367480000000  0.5239230000000  0.4544060000000 1.0
C      1  0.5105260000000  0.4374330000000  0.5510610000000 1.0
C      1  0.5505410000000  0.5412080000000  0.5478370000000 1.0
C      1  0.4382130000000  0.5238930000000  0.5489240000000 1.0
C      1  0.5432720000000  0.4709580000000  0.4521650000000 1.0
C      1  0.5036340000000  0.5499240000000  0.4523690000000 1.0
C      1  0.4540640000000  0.4778790000000  0.4525180000000 1.0
C      1  0.5427300000000  0.4729420000000  0.5500360000000 1.0
C      1  0.5019330000000  0.5510330000000  0.5507530000000 1.0
C      1  0.4531780000000  0.4779400000000  0.5523400000000 1.0
C      1  0.4545010000000  0.4678610000000  0.5036860000000 1.0
C      1  0.4984610000000  0.5506830000000  0.4985020000000 1.0
C      1  0.5425030000000  0.4698350000000  0.4986290000000 1.0
C      1  0.5006970000000  0.5004250000000  0.5787150000000 1.0
C      1  0.5006090000000  0.5001490000000  0.4248430000000 1.0
END
