TITL C-2441158-471-1270 0.000107156370192429 125000 -2136.11864255262 0 0 17 (C2) n - 1
REM
REM in /home/bkarasulu/work/CARBON/AIRSS/Generating-Clusters/ReaxFF-fromJPCA2015/Units_Real/with-SteepDescent/Higher-Symm
REM
REM
REM
REM
REM
REM ./C.cell (1df0a924f5614ab8850e4351716899ee)
REM
REM compiler GCC version 9.2.1 20190827 (Red Hat 9.2.1-1)
REM options -cpp -mtune=generic -march=x86-64 -g -O0 -fpre-include=/usr/include/finclude/math-vector-fortran.h
REM seed 207310374 -1397962077 820325327 -220330194 911793778 -530073687 -179851508 -971606816 -892348860 -1816936859 455332812 -638250510 1149447566 -1618210738 -1231982622 -1792042407 694487713 -278153779 6540311 -445413899 486229906 49608786 1658497078 405982540 956051330 -463526067 950198842 1916871353 -1840919349 1408191873 -181167877 -235493279 -1269951479
REM
CELL 1.54180   50.00000   50.00000   50.00000   90.00000   90.00000   90.00000
LATT -1
SFAC C  
C      1  0.4829460000000  0.5092000000000  0.5387110000000 1.0
C      1  0.4829390000000  0.4946830000000  0.4568480000000 1.0
C      1  0.4591250000000  0.4918490000000  0.4704530000000 1.0
C      1  0.4591150000000  0.5120330000000  0.5250970000000 1.0
C      1  0.5243080000000  0.4775240000000  0.5165120000000 1.0
C      1  0.5243110000000  0.5263500000000  0.4790440000000 1.0
C      1  0.4795600000000  0.5482170000000  0.4831560000000 1.0
C      1  0.4795560000000  0.4556600000000  0.5123950000000 1.0
C      1  0.4919900000000  0.4768050000000  0.5075290000000 1.0
C      1  0.4919920000000  0.5270700000000  0.4880230000000 1.0
C      1  0.5419650000000  0.4628300000000  0.5046970000000 1.0
C      1  0.5419700000000  0.5410330000000  0.4908670000000 1.0
C      1  0.5072670000000  0.5009410000000  0.4503270000000 1.0
C      1  0.5072670000000  0.5029400000000  0.5452220000000 1.0
C      1  0.5298610000000  0.5109950000000  0.4522710000000 1.0
C      1  0.5298590000000  0.4928850000000  0.5432800000000 1.0
C      1  0.4758660000000  0.5019360000000  0.4977670000000 1.0
END
