TITL C-2441157-2117-653 0.00837824084894333 125000 -16203.495386533 0 0 108 (C1) n - 1
REM
REM in /home/bkarasulu/work/CARBON/AIRSS/Generating-Clusters/ReaxFF-fromJPCA2015/Units_Real/with-SteepDescent/Higher-Symm
REM
REM
REM
REM
REM
REM ./C.cell (1df0a924f5614ab8850e4351716899ee)
REM
REM compiler GCC version 9.2.1 20190827 (Red Hat 9.2.1-1)
REM options -cpp -mtune=generic -march=x86-64 -g -O0 -fpre-include=/usr/include/finclude/math-vector-fortran.h
REM seed 1229945811 536050106 606416204 143741621 75272631 -149702361 600150131 1334276381 894195443 1619013350 -1966627791 -121302032 -1693763373 780947010 780489967 -444989642 -319132352 -1817084943 1794635641 -1974045318 1757492204 1127922034 -1921922006 1275877832 -501867873 -467722653 359943312 -715721749 786170950 141253381 35821983 1329282333 -1443732120
REM
CELL 1.54180   50.00000   50.00000   50.00000   90.00000   90.00000   90.00000
LATT -1
SFAC C  
C      1  0.4853850000000  0.4726350000000  0.5479780000000 1.0
C      1  0.5456800000000  0.4833510000000  0.4619930000000 1.0
C      1  0.4708860000000  0.5570340000000  0.4779380000000 1.0
C      1  0.5099860000000  0.5370840000000  0.5416520000000 1.0
C      1  0.5290860000000  0.4595810000000  0.4555330000000 1.0
C      1  0.4689460000000  0.5410930000000  0.4533550000000 1.0
C      1  0.4557430000000  0.5161440000000  0.4624180000000 1.0
C      1  0.4581710000000  0.4728160000000  0.5357170000000 1.0
C      1  0.5459470000000  0.5112250000000  0.5222670000000 1.0
C      1  0.5281570000000  0.4465590000000  0.4820950000000 1.0
C      1  0.5298190000000  0.5391390000000  0.5177330000000 1.0
C      1  0.4636130000000  0.4582250000000  0.5109330000000 1.0
C      1  0.5155320000000  0.4514490000000  0.4312010000000 1.0
C      1  0.4293640000000  0.5116630000000  0.4498360000000 1.0
C      1  0.4513510000000  0.4317070000000  0.5103420000000 1.0
C      1  0.4840050000000  0.5485770000000  0.4296440000000 1.0
C      1  0.4887550000000  0.4543020000000  0.5708070000000 1.0
C      1  0.5119040000000  0.5488170000000  0.5677790000000 1.0
C      1  0.5718670000000  0.4872830000000  0.4487590000000 1.0
C      1  0.5669930000000  0.5113210000000  0.5419310000000 1.0
C      1  0.4336900000000  0.4848140000000  0.5462180000000 1.0
C      1  0.5452540000000  0.5658540000000  0.5134480000000 1.0
C      1  0.5482760000000  0.4256400000000  0.4868420000000 1.0
C      1  0.4501310000000  0.5761950000000  0.4853830000000 1.0
C      1  0.4929260000000  0.6041120000000  0.4898200000000 1.0
C      1  0.4887470000000  0.4941120000000  0.6036550000000 1.0
C      1  0.6016200000000  0.4871430000000  0.4927100000000 1.0
C      1  0.5065130000000  0.3960570000000  0.4888920000000 1.0
C      1  0.5053970000000  0.6010600000000  0.5142000000000 1.0
C      1  0.4934280000000  0.3993370000000  0.5128810000000 1.0
C      1  0.5132690000000  0.5067890000000  0.6010820000000 1.0
C      1  0.5128240000000  0.4939000000000  0.3997220000000 1.0
C      1  0.4879580000000  0.5059460000000  0.3990130000000 1.0
C      1  0.3992430000000  0.5110900000000  0.4929220000000 1.0
C      1  0.4000180000000  0.4864220000000  0.5053520000000 1.0
C      1  0.6033800000000  0.5115860000000  0.5056170000000 1.0
C      1  0.4638050000000  0.6005310000000  0.4938990000000 1.0
C      1  0.4932990000000  0.4657030000000  0.5974880000000 1.0
C      1  0.5962940000000  0.4919020000000  0.4642160000000 1.0
C      1  0.5353840000000  0.4002560000000  0.4937750000000 1.0
C      1  0.5332410000000  0.5920030000000  0.5102710000000 1.0
C      1  0.4652150000000  0.4058100000000  0.5078690000000 1.0
C      1  0.5090670000000  0.5348780000000  0.5938670000000 1.0
C      1  0.5095100000000  0.4655130000000  0.4061900000000 1.0
C      1  0.4913250000000  0.5344720000000  0.4051200000000 1.0
C      1  0.4042950000000  0.5069390000000  0.4643000000000 1.0
C      1  0.4079840000000  0.4902200000000  0.5333720000000 1.0
C      1  0.5952170000000  0.5075580000000  0.5334640000000 1.0
C      1  0.4035360000000  0.5318200000000  0.5161980000000 1.0
C      1  0.5165710000000  0.4026090000000  0.5342190000000 1.0
C      1  0.5330320000000  0.5177670000000  0.4030670000000 1.0
C      1  0.5973030000000  0.4665000000000  0.5160470000000 1.0
C      1  0.5996380000000  0.5329350000000  0.4828570000000 1.0
C      1  0.4018000000000  0.4657520000000  0.4818240000000 1.0
C      1  0.4818230000000  0.5982260000000  0.5346930000000 1.0
C      1  0.4837620000000  0.4003410000000  0.4674850000000 1.0
C      1  0.5161040000000  0.5983980000000  0.4692450000000 1.0
C      1  0.4676400000000  0.4822290000000  0.4021290000000 1.0
C      1  0.4677160000000  0.5169540000000  0.5995620000000 1.0
C      1  0.5341540000000  0.4835450000000  0.5984860000000 1.0
C      1  0.4210760000000  0.5516350000000  0.5201130000000 1.0
C      1  0.5221890000000  0.4206640000000  0.5530160000000 1.0
C      1  0.5527710000000  0.5235460000000  0.4202170000000 1.0
C      1  0.5793770000000  0.4472810000000  0.5209890000000 1.0
C      1  0.5795260000000  0.5503220000000  0.4793540000000 1.0
C      1  0.4194850000000  0.4465510000000  0.4752880000000 1.0
C      1  0.4756280000000  0.5807030000000  0.5539130000000 1.0
C      1  0.4798720000000  0.4200050000000  0.4495350000000 1.0
C      1  0.5195960000000  0.5793060000000  0.4505140000000 1.0
C      1  0.4478120000000  0.4767100000000  0.4193680000000 1.0
C      1  0.4504800000000  0.5200500000000  0.5792390000000 1.0
C      1  0.5520860000000  0.4785080000000  0.5792380000000 1.0
C      1  0.5105740000000  0.5358690000000  0.4942530000000 1.0
C      1  0.4909260000000  0.5163440000000  0.5333980000000 1.0
C      1  0.5304730000000  0.4853980000000  0.5177010000000 1.0
C      1  0.4880780000000  0.4669520000000  0.4958110000000 1.0
C      1  0.4849010000000  0.5448630000000  0.4990670000000 1.0
C      1  0.5158650000000  0.4618220000000  0.5039990000000 1.0
C      1  0.5046230000000  0.4902960000000  0.5345660000000 1.0
C      1  0.5111140000000  0.5106640000000  0.4807550000000 1.0
C      1  0.4866990000000  0.4921750000000  0.4810810000000 1.0
C      1  0.4721190000000  0.5235100000000  0.5117030000000 1.0
C      1  0.4629050000000  0.5066370000000  0.4896070000000 1.0
C      1  0.5365940000000  0.4979170000000  0.4855470000000 1.0
C      1  0.5421850000000  0.5932100000000  0.4819680000000 1.0
C      1  0.4806840000000  0.5433850000000  0.5957860000000 1.0
C      1  0.5944550000000  0.4791400000000  0.5426460000000 1.0
C      1  0.4568860000000  0.4036070000000  0.4794180000000 1.0
C      1  0.4552140000000  0.5963140000000  0.5221040000000 1.0
C      1  0.5434910000000  0.4035240000000  0.5222740000000 1.0
C      1  0.5217250000000  0.4568250000000  0.5967480000000 1.0
C      1  0.5196600000000  0.5437270000000  0.4070300000000 1.0
C      1  0.4811350000000  0.4564140000000  0.4067570000000 1.0
C      1  0.4085620000000  0.5187010000000  0.5420940000000 1.0
C      1  0.4038470000000  0.4784880000000  0.4553150000000 1.0
C      1  0.5964620000000  0.5205500000000  0.4562440000000 1.0
C      1  0.5149450000000  0.4393790000000  0.5718990000000 1.0
C      1  0.5733550000000  0.5146610000000  0.4363170000000 1.0
C      1  0.4377040000000  0.5723740000000  0.5126620000000 1.0
C      1  0.4851990000000  0.5634410000000  0.5729600000000 1.0
C      1  0.4873790000000  0.4399960000000  0.4321550000000 1.0
C      1  0.5119600000000  0.5605250000000  0.4317470000000 1.0
C      1  0.4273640000000  0.4849870000000  0.4359220000000 1.0
C      1  0.4340850000000  0.5128120000000  0.5583080000000 1.0
C      1  0.5693190000000  0.4855530000000  0.5591220000000 1.0
C      1  0.5618380000000  0.4272660000000  0.5137800000000 1.0
C      1  0.5588220000000  0.5670070000000  0.4872700000000 1.0
C      1  0.4373810000000  0.4274680000000  0.4838910000000 1.0
END
