TITL C-2441158-471-934 0.0110578446366245 125000 -8031.76681480678 0 0 56 (C1) n - 1
REM
REM in /home/bkarasulu/work/CARBON/AIRSS/Generating-Clusters/ReaxFF-fromJPCA2015/Units_Real/with-SteepDescent/Higher-Symm
REM
REM
REM
REM
REM
REM ./C.cell (1df0a924f5614ab8850e4351716899ee)
REM
REM compiler GCC version 9.2.1 20190827 (Red Hat 9.2.1-1)
REM options -cpp -mtune=generic -march=x86-64 -g -O0 -fpre-include=/usr/include/finclude/math-vector-fortran.h
REM seed -983724217 -390708415 -713971487 -745389724 1430353500 -2033668245 -2112949992 -849628315 86319750 -279966808 -225109754 1452654977 191345528 -1399354159 2141266416 962977658 1253305062 -1094402295 346697841 -1863185497 -65615729 3578360 1017418840 -181454836 -1820626675 958281294 -333928486 -1127195128 -2098280760 -1218152820 16264679 -802263751 -2055640963
REM
CELL 1.54180   50.00000   50.00000   50.00000   90.00000   90.00000   90.00000
LATT -1
SFAC C  
C      1  0.5610800000000  0.5292310000000  0.5033070000000 1.0
C      1  0.5220310000000  0.5293690000000  0.4432110000000 1.0
C      1  0.4509870000000  0.5270740000000  0.4570490000000 1.0
C      1  0.4422270000000  0.5279990000000  0.5300380000000 1.0
C      1  0.5115930000000  0.5274350000000  0.5668310000000 1.0
C      1  0.4453470000000  0.5369550000000  0.5038130000000 1.0
C      1  0.4765110000000  0.5355390000000  0.4501620000000 1.0
C      1  0.5402730000000  0.5358540000000  0.4626490000000 1.0
C      1  0.5472490000000  0.5354990000000  0.5264520000000 1.0
C      1  0.4880000000000  0.5354150000000  0.5554030000000 1.0
C      1  0.4861690000000  0.4888270000000  0.5734210000000 1.0
C      1  0.5647060000000  0.4889000000000  0.5357250000000 1.0
C      1  0.5541710000000  0.4889160000000  0.4489770000000 1.0
C      1  0.4683500000000  0.4891720000000  0.4324550000000 1.0
C      1  0.4267730000000  0.4894870000000  0.5088800000000 1.0
C      1  0.5155210000000  0.4866330000000  0.5764580000000 1.0
C      1  0.4320450000000  0.4878380000000  0.5380520000000 1.0
C      1  0.4420100000000  0.4869260000000  0.4458920000000 1.0
C      1  0.5327180000000  0.4866860000000  0.4289020000000 1.0
C      1  0.5773090000000  0.4864860000000  0.5091100000000 1.0
C      1  0.5544770000000  0.4360130000000  0.5507650000000 1.0
C      1  0.5649410000000  0.4361990000000  0.4633860000000 1.0
C      1  0.4853080000000  0.4365050000000  0.4260940000000 1.0
C      1  0.4254200000000  0.4366710000000  0.4909630000000 1.0
C      1  0.4676690000000  0.4364840000000  0.5685940000000 1.0
C      1  0.4434690000000  0.4345040000000  0.5517140000000 1.0
C      1  0.4336520000000  0.4339110000000  0.4627500000000 1.0
C      1  0.5146320000000  0.4337340000000  0.4255290000000 1.0
C      1  0.5754170000000  0.4334540000000  0.4907860000000 1.0
C      1  0.5310510000000  0.4334180000000  0.5687600000000 1.0
C      1  0.4357680000000  0.4608530000000  0.5060820000000 1.0
C      1  0.4854130000000  0.4605290000000  0.5633380000000 1.0
C      1  0.5551090000000  0.4600570000000  0.5325030000000 1.0
C      1  0.5477480000000  0.4606100000000  0.4577030000000 1.0
C      1  0.4743320000000  0.4607850000000  0.4407660000000 1.0
C      1  0.5674770000000  0.4588020000000  0.5063190000000 1.0
C      1  0.5144070000000  0.4588200000000  0.5655440000000 1.0
C      1  0.4416320000000  0.4596580000000  0.5344630000000 1.0
C      1  0.4488990000000  0.4592030000000  0.4546220000000 1.0
C      1  0.5264180000000  0.4592370000000  0.4380690000000 1.0
C      1  0.4717720000000  0.5130200000000  0.5646620000000 1.0
C      1  0.5505240000000  0.5121120000000  0.5457140000000 1.0
C      1  0.5599070000000  0.5127100000000  0.4651230000000 1.0
C      1  0.4855960000000  0.5128720000000  0.4321050000000 1.0
C      1  0.4309420000000  0.5128950000000  0.4917040000000 1.0
C      1  0.5335100000000  0.5101110000000  0.5695740000000 1.0
C      1  0.4441470000000  0.5114310000000  0.5522900000000 1.0
C      1  0.4301350000000  0.5097790000000  0.4619380000000 1.0
C      1  0.5142050000000  0.5103610000000  0.4245490000000 1.0
C      1  0.5760970000000  0.5099900000000  0.4899150000000 1.0
C      1  0.4899800000000  0.5445300000000  0.4759460000000 1.0
C      1  0.4940580000000  0.5392770000000  0.5232620000000 1.0
C      1  0.5189000000000  0.5444340000000  0.4825410000000 1.0
C      1  0.4739410000000  0.5451630000000  0.4997610000000 1.0
C      1  0.5230060000000  0.5445700000000  0.5113740000000 1.0
C      1  0.4963570000000  0.5121780000000  0.5111040000000 1.0
END
