TITL C-2441163-1170-792 0.0991754393636783 125000 -23247.7709400956 0 0 175 (C1) n - 1
REM
REM in /home/bkarasulu/work/CARBON/AIRSS/Generating-Clusters/ReaxFF-fromJPCA2015/Units_Real/with-SteepDescent/Higher-Symm
REM
REM
REM
REM
REM
REM ./C.cell (1df0a924f5614ab8850e4351716899ee)
REM
REM compiler GCC version 9.2.1 20190827 (Red Hat 9.2.1-1)
REM options -cpp -mtune=generic -march=x86-64 -g -O0 -fpre-include=/usr/include/finclude/math-vector-fortran.h
REM seed -601197407 1776337701 -1043283713 1813377457 -676712767 1841190835 -432865434 -977005631 -1615421633 1515305916 2038805293 2026241425 1642004994 1708258627 -1179898386 -308836874 -933684887 664402584 977267530 456046914 886624569 -787287095 -1880107252 -534740267 1080297224 -248782994 -399578811 128678633 -393336145 369405537 -1572956374 -1477723050 2073905939
REM
CELL 1.54180   50.00000   50.00000   50.00000   90.00000   90.00000   90.00000
LATT -1
SFAC C  
C      1  0.4676880000000  0.4608330000000  0.5264050000000 1.0
C      1  0.5417230000000  0.4672700000000  0.5305090000000 1.0
C      1  0.5378370000000  0.5387070000000  0.5253100000000 1.0
C      1  0.4620850000000  0.5253130000000  0.5262940000000 1.0
C      1  0.5326230000000  0.4662240000000  0.4778530000000 1.0
C      1  0.4581880000000  0.4702840000000  0.4751310000000 1.0
C      1  0.4675930000000  0.5411820000000  0.4803100000000 1.0
C      1  0.5451400000000  0.5303740000000  0.4765370000000 1.0
C      1  0.5167160000000  0.4569710000000  0.5335420000000 1.0
C      1  0.5277830000000  0.5105160000000  0.5338310000000 1.0
C      1  0.4844200000000  0.5411850000000  0.5328690000000 1.0
C      1  0.4832750000000  0.4890790000000  0.5243980000000 1.0
C      1  0.4847780000000  0.4612530000000  0.4697350000000 1.0
C      1  0.4792810000000  0.5135960000000  0.4808990000000 1.0
C      1  0.5179890000000  0.5349990000000  0.4741510000000 1.0
C      1  0.5108590000000  0.4870520000000  0.4824350000000 1.0
C      1  0.4266900000000  0.5317160000000  0.4439960000000 1.0
C      1  0.4804220000000  0.4235970000000  0.4326930000000 1.0
C      1  0.5709230000000  0.4625940000000  0.4406470000000 1.0
C      1  0.5323890000000  0.5708000000000  0.4371440000000 1.0
C      1  0.5817670000000  0.5491800000000  0.5549380000000 1.0
C      1  0.5399110000000  0.4128840000000  0.5567040000000 1.0
C      1  0.4147850000000  0.4576230000000  0.5563400000000 1.0
C      1  0.4596330000000  0.5798850000000  0.5525750000000 1.0
C      1  0.4913080000000  0.4382730000000  0.4809520000000 1.0
C      1  0.5610170000000  0.4841980000000  0.4848370000000 1.0
C      1  0.5090720000000  0.5616160000000  0.4829270000000 1.0
C      1  0.4323670000000  0.5081550000000  0.4848010000000 1.0
C      1  0.5093700000000  0.4397510000000  0.5159390000000 1.0
C      1  0.4440020000000  0.4777220000000  0.5252540000000 1.0
C      1  0.4852990000000  0.5656210000000  0.5212540000000 1.0
C      1  0.5635590000000  0.5242060000000  0.5196600000000 1.0
C      1  0.4420130000000  0.5621600000000  0.5643090000000 1.0
C      1  0.4365050000000  0.4425110000000  0.5653710000000 1.0
C      1  0.5490690000000  0.4347490000000  0.5676390000000 1.0
C      1  0.5609460000000  0.5617500000000  0.5709010000000 1.0
C      1  0.5596040000000  0.5672960000000  0.4459680000000 1.0
C      1  0.5666770000000  0.4331150000000  0.4414080000000 1.0
C      1  0.4381050000000  0.4386350000000  0.4406860000000 1.0
C      1  0.4410290000000  0.5675390000000  0.4297290000000 1.0
C      1  0.5290490000000  0.4740110000000  0.4020570000000 1.0
C      1  0.5219370000000  0.5314180000000  0.4001450000000 1.0
C      1  0.4644800000000  0.5255480000000  0.4031180000000 1.0
C      1  0.4715680000000  0.4671860000000  0.4051260000000 1.0
C      1  0.4709080000000  0.4700320000000  0.6006650000000 1.0
C      1  0.4721860000000  0.5301300000000  0.5990310000000 1.0
C      1  0.5290170000000  0.5279580000000  0.6021920000000 1.0
C      1  0.5287150000000  0.4707720000000  0.6022440000000 1.0
C      1  0.4503480000000  0.4104460000000  0.5180440000000 1.0
C      1  0.5954010000000  0.4482010000000  0.5197480000000 1.0
C      1  0.5430970000000  0.5929250000000  0.5179360000000 1.0
C      1  0.4097230000000  0.5529840000000  0.5215440000000 1.0
C      1  0.5437060000000  0.4070390000000  0.4822250000000 1.0
C      1  0.4051650000000  0.4577780000000  0.4828860000000 1.0
C      1  0.4592260000000  0.5922830000000  0.4804360000000 1.0
C      1  0.5910400000000  0.5414970000000  0.4825760000000 1.0
C      1  0.4955490000000  0.5621790000000  0.5865690000000 1.0
C      1  0.4344500000000  0.4938140000000  0.5776980000000 1.0
C      1  0.5042210000000  0.4335420000000  0.5801560000000 1.0
C      1  0.5719230000000  0.5012640000000  0.5753770000000 1.0
C      1  0.4949920000000  0.5657150000000  0.4167320000000 1.0
C      1  0.5643260000000  0.5067120000000  0.4187010000000 1.0
C      1  0.5000630000000  0.4322130000000  0.4140450000000 1.0
C      1  0.4342230000000  0.4975500000000  0.4113990000000 1.0
C      1  0.5359320000000  0.5031050000000  0.4009680000000 1.0
C      1  0.4925020000000  0.5379170000000  0.3997060000000 1.0
C      1  0.4596760000000  0.4952170000000  0.3979530000000 1.0
C      1  0.5006080000000  0.4615290000000  0.4005880000000 1.0
C      1  0.4615340000000  0.4979340000000  0.5956610000000 1.0
C      1  0.4999060000000  0.5404170000000  0.6045050000000 1.0
C      1  0.5323190000000  0.4990230000000  0.6053520000000 1.0
C      1  0.5001880000000  0.4599340000000  0.5993860000000 1.0
C      1  0.4179350000000  0.5409040000000  0.5501280000000 1.0
C      1  0.4583650000000  0.4202770000000  0.5468160000000 1.0
C      1  0.5846220000000  0.4729500000000  0.5323830000000 1.0
C      1  0.5359760000000  0.5739110000000  0.5593660000000 1.0
C      1  0.5734460000000  0.5385790000000  0.4429670000000 1.0
C      1  0.5383590000000  0.4246270000000  0.4427550000000 1.0
C      1  0.4230050000000  0.4640510000000  0.4420690000000 1.0
C      1  0.4699410000000  0.5748930000000  0.4375420000000 1.0
C      1  0.5828440000000  0.4909720000000  0.4631320000000 1.0
C      1  0.5095290000000  0.5856470000000  0.4582510000000 1.0
C      1  0.4101600000000  0.5074820000000  0.4635730000000 1.0
C      1  0.4936120000000  0.4122700000000  0.4598120000000 1.0
C      1  0.4027690000000  0.4867560000000  0.5511450000000 1.0
C      1  0.4929650000000  0.5892120000000  0.5386500000000 1.0
C      1  0.5841260000000  0.5208900000000  0.5404820000000 1.0
C      1  0.5100520000000  0.4039420000000  0.5492450000000 1.0
C      1  0.4834690000000  0.5608230000000  0.4940090000000 1.0
C      1  0.4439310000000  0.4831600000000  0.4968260000000 1.0
C      1  0.5195180000000  0.4433400000000  0.4897220000000 1.0
C      1  0.5574510000000  0.5127040000000  0.4947080000000 1.0
C      1  0.5273750000000  0.5579750000000  0.5053650000000 1.0
C      1  0.5630730000000  0.4754730000000  0.5130580000000 1.0
C      1  0.4817470000000  0.4405050000000  0.5086400000000 1.0
C      1  0.4425260000000  0.5235350000000  0.5056800000000 1.0
C      1  0.5277400000000  0.4537980000000  0.4464200000000 1.0
C      1  0.5484020000000  0.5291140000000  0.4480880000000 1.0
C      1  0.4739080000000  0.5491810000000  0.4533090000000 1.0
C      1  0.4481650000000  0.4770430000000  0.4499750000000 1.0
C      1  0.4732130000000  0.4507330000000  0.5523380000000 1.0
C      1  0.4469160000000  0.5244730000000  0.5511300000000 1.0
C      1  0.5276870000000  0.5469880000000  0.5548180000000 1.0
C      1  0.5477960000000  0.4749320000000  0.5566990000000 1.0
C      1  0.4109180000000  0.4425410000000  0.5318710000000 1.0
C      1  0.5567540000000  0.4126510000000  0.5321560000000 1.0
C      1  0.5871800000000  0.5604430000000  0.5293580000000 1.0
C      1  0.4451970000000  0.5869750000000  0.5294240000000 1.0
C      1  0.5791150000000  0.4435160000000  0.4650220000000 1.0
C      1  0.4411890000000  0.4232880000000  0.4658180000000 1.0
C      1  0.4279510000000  0.5594660000000  0.4547080000000 1.0
C      1  0.5604280000000  0.5828980000000  0.4709590000000 1.0
C      1  0.5724590000000  0.4293420000000  0.5136540000000 1.0
C      1  0.5642100000000  0.5715360000000  0.5154480000000 1.0
C      1  0.4293490000000  0.5703060000000  0.5086130000000 1.0
C      1  0.4298770000000  0.4285070000000  0.5137630000000 1.0
C      1  0.4245550000000  0.4350520000000  0.4843580000000 1.0
C      1  0.4366740000000  0.5734470000000  0.4802470000000 1.0
C      1  0.5728760000000  0.5641990000000  0.4884430000000 1.0
C      1  0.5656080000000  0.4269790000000  0.4853480000000 1.0
C      1  0.5471010000000  0.5011220000000  0.4416300000000 1.0
C      1  0.4991700000000  0.5462410000000  0.4421570000000 1.0
C      1  0.4509120000000  0.5036030000000  0.4395060000000 1.0
C      1  0.4996130000000  0.4607690000000  0.4464680000000 1.0
C      1  0.4447450000000  0.4948440000000  0.5492560000000 1.0
C      1  0.4992240000000  0.5426720000000  0.5579280000000 1.0
C      1  0.5423320000000  0.5015440000000  0.5585360000000 1.0
C      1  0.5009100000000  0.4550840000000  0.5564760000000 1.0
C      1  0.5139630000000  0.3911860000000  0.5215680000000 1.0
C      1  0.6090830000000  0.5172760000000  0.5203410000000 1.0
C      1  0.4852300000000  0.6119130000000  0.5196600000000 1.0
C      1  0.3882620000000  0.4828930000000  0.5235300000000 1.0
C      1  0.4795200000000  0.3923980000000  0.4791380000000 1.0
C      1  0.3889230000000  0.5205190000000  0.4829020000000 1.0
C      1  0.5183380000000  0.6098960000000  0.4754490000000 1.0
C      1  0.6074370000000  0.4808760000000  0.4785770000000 1.0
C      1  0.3970490000000  0.4580760000000  0.5107560000000 1.0
C      1  0.5405940000000  0.4001650000000  0.5107330000000 1.0
C      1  0.6019330000000  0.5434260000000  0.5094340000000 1.0
C      1  0.4592150000000  0.6025300000000  0.5082810000000 1.0
C      1  0.6037870000000  0.4572360000000  0.4942770000000 1.0
C      1  0.4558600000000  0.4069800000000  0.4887730000000 1.0
C      1  0.3990450000000  0.5414340000000  0.4994770000000 1.0
C      1  0.5426970000000  0.5992600000000  0.4887070000000 1.0
C      1  0.5198960000000  0.4997500000000  0.5760370000000 1.0
C      1  0.4987590000000  0.5166550000000  0.5684790000000 1.0
C      1  0.4788000000000  0.4975410000000  0.5694780000000 1.0
C      1  0.5010610000000  0.4782390000000  0.5731070000000 1.0
C      1  0.4789250000000  0.5033630000000  0.4358970000000 1.0
C      1  0.4997080000000  0.5212680000000  0.4304370000000 1.0
C      1  0.5205910000000  0.5009020000000  0.4293840000000 1.0
C      1  0.4979060000000  0.4826420000000  0.4304030000000 1.0
C      1  0.4082430000000  0.5140190000000  0.5535400000000 1.0
C      1  0.4845400000000  0.4122050000000  0.5529860000000 1.0
C      1  0.5887350000000  0.4922830000000  0.5552300000000 1.0
C      1  0.5232340000000  0.5907870000000  0.5401580000000 1.0
C      1  0.5873640000000  0.5210110000000  0.4612880000000 1.0
C      1  0.5237180000000  0.4073900000000  0.4599320000000 1.0
C      1  0.4059410000000  0.4774840000000  0.4613470000000 1.0
C      1  0.4808990000000  0.5924180000000  0.4596970000000 1.0
C      1  0.5447550000000  0.5391750000000  0.5805880000000 1.0
C      1  0.4569350000000  0.5408800000000  0.5772440000000 1.0
C      1  0.4590850000000  0.4538740000000  0.5794420000000 1.0
C      1  0.5483080000000  0.4593680000000  0.5811770000000 1.0
C      1  0.4435370000000  0.5397410000000  0.4203200000000 1.0
C      1  0.5331590000000  0.5467830000000  0.4212820000000 1.0
C      1  0.5454240000000  0.4652920000000  0.4243890000000 1.0
C      1  0.4609450000000  0.4450330000000  0.4233240000000 1.0
C      1  0.4947510000000  0.3904760000000  0.5019600000000 1.0
C      1  0.6105680000000  0.4966930000000  0.5020820000000 1.0
C      1  0.5022650000000  0.6125810000000  0.4980840000000 1.0
C      1  0.3869090000000  0.5025160000000  0.5042810000000 1.0
C      1  0.5060340000000  0.4995830000000  0.5297010000000 1.0
C      1  0.5050900000000  0.5120350000000  0.4698770000000 1.0
C      1  0.4854490000000  0.4908480000000  0.4962200000000 1.0
END
