TITL C-2441161-5029-530 0.0759354936030228 125000 -18594.247238805 0 0 135 (C1) n - 1
REM
REM in /home/bkarasulu/work/CARBON/AIRSS/Generating-Clusters/ReaxFF-fromJPCA2015/Units_Real/with-SteepDescent/Higher-Symm
REM
REM
REM
REM
REM
REM ./C.cell (1df0a924f5614ab8850e4351716899ee)
REM
REM compiler GCC version 9.2.1 20190827 (Red Hat 9.2.1-1)
REM options -cpp -mtune=generic -march=x86-64 -g -O0 -fpre-include=/usr/include/finclude/math-vector-fortran.h
REM seed -765255962 839715299 1702301454 -1597110545 -283905158 1159537066 1464201085 -143910408 1611612590 1556794900 -1105697445 -2104355255 239236624 -2137050767 1227333075 1706976052 334868196 1023270871 -559068029 -576684946 -214192811 -1401443635 529921015 -1492953209 -1809554965 850451501 1917395239 -518462956 -1686349824 1840268139 304904023 -56102939 -1273629800
REM
CELL 1.54180   50.00000   50.00000   50.00000   90.00000   90.00000   90.00000
LATT -1
SFAC C  
C      1  0.5695910000000  0.4726540000000  0.5581370000000 1.0
C      1  0.5680530000000  0.5267660000000  0.4436110000000 1.0
C      1  0.4314180000000  0.4737670000000  0.5584610000000 1.0
C      1  0.4297830000000  0.5267490000000  0.4416130000000 1.0
C      1  0.5688260000000  0.4731910000000  0.4416920000000 1.0
C      1  0.5681720000000  0.5259820000000  0.5585780000000 1.0
C      1  0.4322280000000  0.4723710000000  0.4420520000000 1.0
C      1  0.4317750000000  0.5269000000000  0.5584190000000 1.0
C      1  0.4123180000000  0.5331150000000  0.4857520000000 1.0
C      1  0.4160290000000  0.4660950000000  0.5154000000000 1.0
C      1  0.5831310000000  0.5331460000000  0.4864000000000 1.0
C      1  0.5858520000000  0.4665530000000  0.5146020000000 1.0
C      1  0.4131320000000  0.5325440000000  0.5156520000000 1.0
C      1  0.4164540000000  0.4636970000000  0.4869210000000 1.0
C      1  0.5836360000000  0.5321510000000  0.5152720000000 1.0
C      1  0.5848810000000  0.4674490000000  0.4856700000000 1.0
C      1  0.4470170000000  0.6065910000000  0.4868420000000 1.0
C      1  0.4415170000000  0.3947760000000  0.5112270000000 1.0
C      1  0.5556820000000  0.6096400000000  0.4847190000000 1.0
C      1  0.5522130000000  0.3930170000000  0.5121310000000 1.0
C      1  0.4449310000000  0.6008580000000  0.5125060000000 1.0
C      1  0.4421200000000  0.3929620000000  0.4870590000000 1.0
C      1  0.5588730000000  0.6030660000000  0.5106460000000 1.0
C      1  0.5553450000000  0.3912300000000  0.4872040000000 1.0
C      1  0.5151370000000  0.5499400000000  0.5867730000000 1.0
C      1  0.5152160000000  0.4519770000000  0.4146570000000 1.0
C      1  0.4852280000000  0.5504160000000  0.5857600000000 1.0
C      1  0.4850960000000  0.4512400000000  0.4155260000000 1.0
C      1  0.5148440000000  0.5486910000000  0.4163830000000 1.0
C      1  0.5150640000000  0.4512660000000  0.5856980000000 1.0
C      1  0.4850840000000  0.5476420000000  0.4167390000000 1.0
C      1  0.4846890000000  0.4516800000000  0.5858970000000 1.0
C      1  0.5588230000000  0.4471480000000  0.5516470000000 1.0
C      1  0.5573720000000  0.5515400000000  0.4509970000000 1.0
C      1  0.4398900000000  0.4470560000000  0.5546290000000 1.0
C      1  0.4411310000000  0.5520910000000  0.4475070000000 1.0
C      1  0.5605490000000  0.4468900000000  0.4469720000000 1.0
C      1  0.5610130000000  0.5529220000000  0.5554590000000 1.0
C      1  0.4423510000000  0.4471910000000  0.4503430000000 1.0
C      1  0.4424130000000  0.5520150000000  0.5528520000000 1.0
C      1  0.4293520000000  0.5550330000000  0.5262050000000 1.0
C      1  0.4356110000000  0.4442530000000  0.4787640000000 1.0
C      1  0.5703410000000  0.5546410000000  0.5273220000000 1.0
C      1  0.5716230000000  0.4443630000000  0.4746930000000 1.0
C      1  0.4289280000000  0.5551620000000  0.4749080000000 1.0
C      1  0.4323360000000  0.4450610000000  0.5264070000000 1.0
C      1  0.5655360000000  0.5548090000000  0.4787080000000 1.0
C      1  0.5694090000000  0.4445530000000  0.5243920000000 1.0
C      1  0.5692840000000  0.5122660000000  0.5308790000000 1.0
C      1  0.5695450000000  0.4861670000000  0.4689600000000 1.0
C      1  0.4197020000000  0.5136250000000  0.5362250000000 1.0
C      1  0.4254070000000  0.4871710000000  0.4674200000000 1.0
C      1  0.5791110000000  0.5133380000000  0.4658490000000 1.0
C      1  0.5806220000000  0.4859860000000  0.5348790000000 1.0
C      1  0.4157880000000  0.5146290000000  0.4639930000000 1.0
C      1  0.4312930000000  0.4874760000000  0.5317270000000 1.0
C      1  0.5362410000000  0.5618180000000  0.4325580000000 1.0
C      1  0.5349370000000  0.4382270000000  0.5675730000000 1.0
C      1  0.4658980000000  0.5605720000000  0.4344920000000 1.0
C      1  0.4648650000000  0.4378350000000  0.5690170000000 1.0
C      1  0.5369220000000  0.5627450000000  0.5711250000000 1.0
C      1  0.5359570000000  0.4386090000000  0.4315440000000 1.0
C      1  0.4671580000000  0.5610850000000  0.5655720000000 1.0
C      1  0.4652610000000  0.4375640000000  0.4327390000000 1.0
C      1  0.5169560000000  0.5348030000000  0.4836710000000 1.0
C      1  0.5081960000000  0.4656250000000  0.5129850000000 1.0
C      1  0.4879920000000  0.5444550000000  0.4784990000000 1.0
C      1  0.4756820000000  0.4655950000000  0.5070210000000 1.0
C      1  0.5190040000000  0.5367480000000  0.5126090000000 1.0
C      1  0.5218870000000  0.4581720000000  0.4891100000000 1.0
C      1  0.4914220000000  0.5441580000000  0.5202310000000 1.0
C      1  0.4741190000000  0.4724990000000  0.4781740000000 1.0
C      1  0.4829390000000  0.4076060000000  0.5361430000000 1.0
C      1  0.4834950000000  0.5940080000000  0.4593040000000 1.0
C      1  0.5116490000000  0.4043550000000  0.5378130000000 1.0
C      1  0.5118370000000  0.5977120000000  0.4601700000000 1.0
C      1  0.4854890000000  0.4041930000000  0.4604170000000 1.0
C      1  0.4877990000000  0.5932970000000  0.5365550000000 1.0
C      1  0.5145590000000  0.4026990000000  0.4588450000000 1.0
C      1  0.5158960000000  0.5909370000000  0.5323360000000 1.0
C      1  0.4864550000000  0.5150180000000  0.5593110000000 1.0
C      1  0.4878160000000  0.4822020000000  0.4516150000000 1.0
C      1  0.5146170000000  0.5154100000000  0.5564000000000 1.0
C      1  0.5175800000000  0.4863660000000  0.4496810000000 1.0
C      1  0.4848070000000  0.5122460000000  0.4504080000000 1.0
C      1  0.4815040000000  0.4873000000000  0.5517140000000 1.0
C      1  0.5138520000000  0.5157040000000  0.4498310000000 1.0
C      1  0.5141910000000  0.4868650000000  0.5527830000000 1.0
C      1  0.4448880000000  0.4860810000000  0.5808770000000 1.0
C      1  0.4464790000000  0.5126530000000  0.4220430000000 1.0
C      1  0.5543670000000  0.4851170000000  0.5802720000000 1.0
C      1  0.5534600000000  0.5147310000000  0.4223300000000 1.0
C      1  0.4477190000000  0.4848510000000  0.4227840000000 1.0
C      1  0.4454030000000  0.5148740000000  0.5799970000000 1.0
C      1  0.5544020000000  0.4860330000000  0.4198930000000 1.0
C      1  0.5546000000000  0.5141580000000  0.5811550000000 1.0
C      1  0.5244380000000  0.5040060000000  0.4892820000000 1.0
C      1  0.5244170000000  0.4849370000000  0.5278320000000 1.0
C      1  0.4666520000000  0.5209910000000  0.4781800000000 1.0
C      1  0.4651290000000  0.4889410000000  0.5239870000000 1.0
C      1  0.5349520000000  0.5116000000000  0.5213920000000 1.0
C      1  0.5346800000000  0.4799770000000  0.4743860000000 1.0
C      1  0.4751340000000  0.5150640000000  0.5099150000000 1.0
C      1  0.4555990000000  0.4940800000000  0.4776110000000 1.0
C      1  0.5132380000000  0.4299430000000  0.5502690000000 1.0
C      1  0.5159250000000  0.5720890000000  0.4498090000000 1.0
C      1  0.4851350000000  0.4331480000000  0.5484420000000 1.0
C      1  0.4873830000000  0.5653030000000  0.4533450000000 1.0
C      1  0.5146590000000  0.4289740000000  0.4487640000000 1.0
C      1  0.5176880000000  0.5702630000000  0.5512600000000 1.0
C      1  0.4868600000000  0.4312930000000  0.4513880000000 1.0
C      1  0.4895440000000  0.5648390000000  0.5470010000000 1.0
C      1  0.5318650000000  0.4102250000000  0.5192500000000 1.0
C      1  0.5315990000000  0.5972470000000  0.4805170000000 1.0
C      1  0.4621780000000  0.4130980000000  0.5170360000000 1.0
C      1  0.4665840000000  0.5885040000000  0.4804130000000 1.0
C      1  0.5358380000000  0.4078930000000  0.4761470000000 1.0
C      1  0.5343570000000  0.5851040000000  0.5089200000000 1.0
C      1  0.4637320000000  0.3997050000000  0.4771320000000 1.0
C      1  0.4661820000000  0.5837710000000  0.5211190000000 1.0
C      1  0.5262560000000  0.5234790000000  0.5827460000000 1.0
C      1  0.5263440000000  0.4777120000000  0.4202530000000 1.0
C      1  0.4733730000000  0.5238140000000  0.5839140000000 1.0
C      1  0.4750030000000  0.4766960000000  0.4237750000000 1.0
C      1  0.5249340000000  0.5224480000000  0.4229100000000 1.0
C      1  0.5264340000000  0.4769710000000  0.5810300000000 1.0
C      1  0.4743140000000  0.5215380000000  0.4228490000000 1.0
C      1  0.4729510000000  0.4772970000000  0.5800480000000 1.0
C      1  0.4531030000000  0.4407720000000  0.5049660000000 1.0
C      1  0.5587540000000  0.4371070000000  0.4990860000000 1.0
C      1  0.4373980000000  0.5639780000000  0.5005260000000 1.0
C      1  0.5548470000000  0.5629030000000  0.5045660000000 1.0
C      1  0.5316870000000  0.4297040000000  0.4956730000000 1.0
C      1  0.4822120000000  0.5650730000000  0.5006390000000 1.0
C      1  0.4980680000000  0.5010140000000  0.5008450000000 1.0
END
