TITL C-2441164-471-145 0.000325407640192922 125000 -2720.06820270718 0 0 21 (C1) n - 1
REM
REM in /home/bkarasulu/work/CARBON/AIRSS/Generating-Clusters/ReaxFF-fromJPCA2015/Units_Real/with-SteepDescent/Higher-Symm
REM
REM
REM
REM
REM
REM ./C.cell (1df0a924f5614ab8850e4351716899ee)
REM
REM compiler GCC version 9.2.1 20190827 (Red Hat 9.2.1-1)
REM options -cpp -mtune=generic -march=x86-64 -g -O0 -fpre-include=/usr/include/finclude/math-vector-fortran.h
REM seed -1933635903 -1202258609 -1591766056 471716678 -1598049337 1405247494 375967747 -131858530 -45989464 2027939580 159115440 -452291401 559757393 -151098261 2034507713 1477564541 -222743860 1488595008 2006452987 -819515371 -1476072164 -1981889564 -1683893428 1314935053 641106277 720285459 -122607204 -557011548 1536412785 -1070706363 -1173177552 -725905052 1809167205
REM
CELL 1.54180   50.00000   50.00000   50.00000   90.00000   90.00000   90.00000
LATT -1
SFAC C  
C      1  0.5238770000000  0.5265820000000  0.4924910000000 1.0
C      1  0.4921710000000  0.4790040000000  0.4777090000000 1.0
C      1  0.5403160000000  0.4811320000000  0.4810750000000 1.0
C      1  0.5598410000000  0.5063500000000  0.5408780000000 1.0
C      1  0.4527800000000  0.4814400000000  0.5496020000000 1.0
C      1  0.4429440000000  0.5179440000000  0.5169870000000 1.0
C      1  0.5474470000000  0.4790800000000  0.4409040000000 1.0
C      1  0.4828200000000  0.4554330000000  0.4772040000000 1.0
C      1  0.4694650000000  0.5198010000000  0.5112180000000 1.0
C      1  0.5181940000000  0.4931070000000  0.4949860000000 1.0
C      1  0.5341660000000  0.5089150000000  0.5359640000000 1.0
C      1  0.5028380000000  0.5442910000000  0.4818630000000 1.0
C      1  0.4775350000000  0.4824750000000  0.5427030000000 1.0
C      1  0.4407290000000  0.4995130000000  0.5347980000000 1.0
C      1  0.5396820000000  0.5336690000000  0.5160100000000 1.0
C      1  0.5559220000000  0.4732240000000  0.4636030000000 1.0
C      1  0.4878950000000  0.4985610000000  0.5265360000000 1.0
C      1  0.4734160000000  0.4893130000000  0.4571970000000 1.0
C      1  0.5128590000000  0.4903870000000  0.5237430000000 1.0
C      1  0.4610410000000  0.5028280000000  0.4418530000000 1.0
C      1  0.4840610000000  0.5369510000000  0.4926770000000 1.0
END
