TITL C-2441154-10-1409 0.001511224274432 125000 -9354.09981863906 0 0 65 (C1) n - 1
REM
REM in /home/bkarasulu/work/CARBON/AIRSS/Generating-Clusters/ReaxFF-fromJPCA2015/Units_Real/with-SteepDescent/Higher-Symm
REM
REM
REM
REM
REM
REM ./C.cell (1df0a924f5614ab8850e4351716899ee)
REM
REM compiler GCC version 9.2.1 20190827 (Red Hat 9.2.1-1)
REM options -cpp -mtune=generic -march=x86-64 -g -O0 -fpre-include=/usr/include/finclude/math-vector-fortran.h
REM seed 995213680 263877211 1136836595 50207977 -771852305 1724339855 911319379 -1459831333 -1129011802 1233158794 1440833901 1267993796 1968517227 -1183585782 -875362846 -932079489 199051389 -103281422 -1430231580 -389410419 -479589026 2058389208 -1423821436 -269435211 1441153931 -942377595 1310973282 -1541637226 -2093736348 2074850124 1985394505 1759426661 -489482106
REM
CELL 1.54180   50.00000   50.00000   50.00000   90.00000   90.00000   90.00000
LATT -1
SFAC C  
C      1  0.5543270000000  0.5630460000000  0.5295910000000 1.0
C      1  0.5046170000000  0.5588600000000  0.4513990000000 1.0
C      1  0.4581600000000  0.5616760000000  0.5223940000000 1.0
C      1  0.4852080000000  0.5601280000000  0.5332340000000 1.0
C      1  0.5380920000000  0.5638900000000  0.5068020000000 1.0
C      1  0.4870800000000  0.5496620000000  0.4734690000000 1.0
C      1  0.5695500000000  0.5278780000000  0.5133510000000 1.0
C      1  0.4787180000000  0.5220090000000  0.4392360000000 1.0
C      1  0.4599300000000  0.5249560000000  0.5512540000000 1.0
C      1  0.4375920000000  0.4744110000000  0.4814820000000 1.0
C      1  0.5140290000000  0.4727340000000  0.5685020000000 1.0
C      1  0.5514370000000  0.4756280000000  0.4594690000000 1.0
C      1  0.4647440000000  0.5349100000000  0.4617310000000 1.0
C      1  0.4859600000000  0.5386460000000  0.5525920000000 1.0
C      1  0.5517760000000  0.5411460000000  0.4931230000000 1.0
C      1  0.5210100000000  0.4497350000000  0.5224480000000 1.0
C      1  0.5071510000000  0.4494640000000  0.4730460000000 1.0
C      1  0.4715570000000  0.4466760000000  0.5101880000000 1.0
C      1  0.5105970000000  0.4235000000000  0.5287620000000 1.0
C      1  0.5194030000000  0.4238500000000  0.4788970000000 1.0
C      1  0.4711370000000  0.4217950000000  0.4954720000000 1.0
C      1  0.4771370000000  0.4673910000000  0.4355340000000 1.0
C      1  0.4564560000000  0.4685130000000  0.5529760000000 1.0
C      1  0.5668890000000  0.4692140000000  0.5136530000000 1.0
C      1  0.4472660000000  0.4858990000000  0.5333460000000 1.0
C      1  0.5544820000000  0.4896320000000  0.5289330000000 1.0
C      1  0.4989680000000  0.4831130000000  0.4255770000000 1.0
C      1  0.5422000000000  0.5017540000000  0.4550250000000 1.0
C      1  0.4407740000000  0.5000900000000  0.4895250000000 1.0
C      1  0.5103760000000  0.4981750000000  0.5592440000000 1.0
C      1  0.5478160000000  0.4477270000000  0.5105890000000 1.0
C      1  0.4837030000000  0.4479560000000  0.4556140000000 1.0
C      1  0.4692550000000  0.4464890000000  0.5393860000000 1.0
C      1  0.5111340000000  0.5270730000000  0.5638500000000 1.0
C      1  0.5453240000000  0.5307000000000  0.4665110000000 1.0
C      1  0.4434650000000  0.5282540000000  0.4805610000000 1.0
C      1  0.5265320000000  0.5049750000000  0.5316480000000 1.0
C      1  0.5203270000000  0.4936250000000  0.4404360000000 1.0
C      1  0.4603550000000  0.4936790000000  0.5095480000000 1.0
C      1  0.5343520000000  0.5305680000000  0.5460860000000 1.0
C      1  0.5295470000000  0.5442430000000  0.4465740000000 1.0
C      1  0.4408960000000  0.5454100000000  0.5039730000000 1.0
C      1  0.4539250000000  0.4971240000000  0.5577830000000 1.0
C      1  0.5752900000000  0.4992060000000  0.5125600000000 1.0
C      1  0.4736860000000  0.4950450000000  0.4296810000000 1.0
C      1  0.4631740000000  0.4307310000000  0.4690610000000 1.0
C      1  0.4924880000000  0.4312730000000  0.5500690000000 1.0
C      1  0.5468340000000  0.4306020000000  0.4859220000000 1.0
C      1  0.4421540000000  0.5397210000000  0.5330360000000 1.0
C      1  0.5625520000000  0.5384230000000  0.5405250000000 1.0
C      1  0.5031730000000  0.5368320000000  0.4329490000000 1.0
C      1  0.4437680000000  0.4486790000000  0.4797970000000 1.0
C      1  0.5128840000000  0.4476610000000  0.5619300000000 1.0
C      1  0.5482940000000  0.4499690000000  0.4652550000000 1.0
C      1  0.4991060000000  0.6212360000000  0.4991500000000 1.0
C      1  0.4892500000000  0.4901750000000  0.5029600000000 1.0
C      1  0.4988940000000  0.5947420000000  0.4992280000000 1.0
C      1  0.4987350000000  0.4614620000000  0.5015240000000 1.0
C      1  0.5067120000000  0.5659240000000  0.5116650000000 1.0
C      1  0.5029010000000  0.3567170000000  0.5016730000000 1.0
C      1  0.5018680000000  0.3805770000000  0.5012830000000 1.0
C      1  0.4997380000000  0.6458020000000  0.4996960000000 1.0
C      1  0.5069220000000  0.5123330000000  0.5069320000000 1.0
C      1  0.5005890000000  0.4098030000000  0.5009710000000 1.0
C      1  0.5007060000000  0.5388690000000  0.4970710000000 1.0
END
