TITL C-2441165-58-1042 0.18311881878777 125000 -21771.716443251 0 0 176 (C1) n - 1
REM
REM in /home/bkarasulu/work/CARBON/AIRSS/Generating-Clusters/ReaxFF-fromJPCA2015/Units_Real/with-SteepDescent/Higher-Symm
REM
REM
REM
REM
REM
REM ./C.cell (1df0a924f5614ab8850e4351716899ee)
REM
REM compiler GCC version 9.2.1 20190827 (Red Hat 9.2.1-1)
REM options -cpp -mtune=generic -march=x86-64 -g -O0 -fpre-include=/usr/include/finclude/math-vector-fortran.h
REM seed 2068515045 -1978783757 -1447741618 690232099 1957898572 -591165888 1039490822 1766165518 -1477996920 1093029630 -1805476326 1732191664 -2110074214 1958438776 1323385426 1881135029 780806672 1277383572 -1042619199 1785329993 -1354117631 -516321362 1306384606 -229489670 1040254399 634060649 89893970 1024766492 -1414762769 -1290117296 2079989242 -1654285631 -534247146
REM
CELL 1.54180   50.00000   50.00000   50.00000   90.00000   90.00000   90.00000
LATT -1
SFAC C  
C      1  0.4864850000000  0.4101440000000  0.4600380000000 1.0
C      1  0.5359580000000  0.4116640000000  0.4859520000000 1.0
C      1  0.5142960000000  0.4114230000000  0.5399800000000 1.0
C      1  0.4588350000000  0.4106140000000  0.5152970000000 1.0
C      1  0.4843180000000  0.4100360000000  0.5408100000000 1.0
C      1  0.5397130000000  0.4124890000000  0.5154100000000 1.0
C      1  0.5152270000000  0.4113150000000  0.4650370000000 1.0
C      1  0.4599080000000  0.4108670000000  0.4862730000000 1.0
C      1  0.4424480000000  0.5862650000000  0.5280160000000 1.0
C      1  0.4746350000000  0.5824060000000  0.4352120000000 1.0
C      1  0.5638080000000  0.5811140000000  0.4746490000000 1.0
C      1  0.5275080000000  0.5837080000000  0.5584110000000 1.0
C      1  0.4394250000000  0.5825240000000  0.4754270000000 1.0
C      1  0.4774270000000  0.5824520000000  0.5572460000000 1.0
C      1  0.5560750000000  0.5867490000000  0.5276920000000 1.0
C      1  0.5249910000000  0.5801230000000  0.4385550000000 1.0
C      1  0.5987200000000  0.4998900000000  0.4488190000000 1.0
C      1  0.5503980000000  0.4996040000000  0.5974720000000 1.0
C      1  0.4021620000000  0.4983930000000  0.5529290000000 1.0
C      1  0.4491750000000  0.4992850000000  0.4016470000000 1.0
C      1  0.6002700000000  0.4983400000000  0.5510190000000 1.0
C      1  0.5525220000000  0.4994520000000  0.4018010000000 1.0
C      1  0.4023540000000  0.5002290000000  0.4494900000000 1.0
C      1  0.4484530000000  0.4985050000000  0.5984090000000 1.0
C      1  0.5204070000000  0.5304950000000  0.5523560000000 1.0
C      1  0.4474660000000  0.5313320000000  0.5202370000000 1.0
C      1  0.4841700000000  0.5305990000000  0.4469810000000 1.0
C      1  0.5524710000000  0.5334380000000  0.4820750000000 1.0
C      1  0.5147200000000  0.5318390000000  0.4485390000000 1.0
C      1  0.4494730000000  0.5335860000000  0.4779610000000 1.0
C      1  0.4800730000000  0.5309930000000  0.5516660000000 1.0
C      1  0.5518340000000  0.5345100000000  0.5150950000000 1.0
C      1  0.4037150000000  0.4548770000000  0.5334110000000 1.0
C      1  0.4659200000000  0.4534260000000  0.4035300000000 1.0
C      1  0.5961750000000  0.4554030000000  0.4675640000000 1.0
C      1  0.5344950000000  0.4528920000000  0.5965920000000 1.0
C      1  0.4021190000000  0.4540380000000  0.4649100000000 1.0
C      1  0.4671390000000  0.4544310000000  0.5961770000000 1.0
C      1  0.5967000000000  0.4533740000000  0.5339960000000 1.0
C      1  0.5328180000000  0.4552630000000  0.4036630000000 1.0
C      1  0.4851470000000  0.4323220000000  0.5904870000000 1.0
C      1  0.4109950000000  0.4343870000000  0.4848910000000 1.0
C      1  0.5144740000000  0.4325720000000  0.4075290000000 1.0
C      1  0.5905660000000  0.4317460000000  0.5153760000000 1.0
C      1  0.4851110000000  0.4324190000000  0.4093950000000 1.0
C      1  0.4096850000000  0.4333710000000  0.5145020000000 1.0
C      1  0.5146870000000  0.4324150000000  0.5901560000000 1.0
C      1  0.5916390000000  0.4325130000000  0.4857390000000 1.0
C      1  0.5113390000000  0.5024870000000  0.4109320000000 1.0
C      1  0.5771740000000  0.4921560000000  0.5156110000000 1.0
C      1  0.4886020000000  0.5022480000000  0.5887400000000 1.0
C      1  0.4175730000000  0.4909420000000  0.4874620000000 1.0
C      1  0.5131810000000  0.4892980000000  0.5808550000000 1.0
C      1  0.5872480000000  0.5025900000000  0.4894820000000 1.0
C      1  0.4871630000000  0.4891460000000  0.4192610000000 1.0
C      1  0.4106990000000  0.5030500000000  0.5129020000000 1.0
C      1  0.5619150000000  0.5224940000000  0.4571120000000 1.0
C      1  0.5461610000000  0.5216810000000  0.5610150000000 1.0
C      1  0.4365580000000  0.5213420000000  0.5437110000000 1.0
C      1  0.4595340000000  0.5227090000000  0.4344790000000 1.0
C      1  0.5649360000000  0.5174410000000  0.5389210000000 1.0
C      1  0.5414710000000  0.5219530000000  0.4384240000000 1.0
C      1  0.4383070000000  0.5236490000000  0.4535930000000 1.0
C      1  0.4562810000000  0.5206630000000  0.5627540000000 1.0
C      1  0.4309570000000  0.5693220000000  0.5462170000000 1.0
C      1  0.4532140000000  0.5721530000000  0.4305690000000 1.0
C      1  0.5702060000000  0.5693100000000  0.4536380000000 1.0
C      1  0.5484900000000  0.5720510000000  0.5671410000000 1.0
C      1  0.4315950000000  0.5724690000000  0.4547380000000 1.0
C      1  0.4541720000000  0.5689520000000  0.5678150000000 1.0
C      1  0.5704790000000  0.5719100000000  0.5451070000000 1.0
C      1  0.5453530000000  0.5687720000000  0.4307470000000 1.0
C      1  0.4852440000000  0.5580230000000  0.5377970000000 1.0
C      1  0.4666420000000  0.5550730000000  0.4863720000000 1.0
C      1  0.5131200000000  0.5535580000000  0.4688570000000 1.0
C      1  0.5318420000000  0.5561080000000  0.5158410000000 1.0
C      1  0.4876160000000  0.5637500000000  0.4695690000000 1.0
C      1  0.4650970000000  0.5528830000000  0.5144390000000 1.0
C      1  0.5143000000000  0.5527020000000  0.5354300000000 1.0
C      1  0.5283100000000  0.5653950000000  0.4892320000000 1.0
C      1  0.4714970000000  0.4815140000000  0.3958800000000 1.0
C      1  0.6024660000000  0.4841220000000  0.4733450000000 1.0
C      1  0.5287270000000  0.4812240000000  0.6036620000000 1.0
C      1  0.3965600000000  0.4837140000000  0.5288430000000 1.0
C      1  0.4723070000000  0.4831240000000  0.6030940000000 1.0
C      1  0.6028390000000  0.4815900000000  0.5275650000000 1.0
C      1  0.5285000000000  0.4841640000000  0.3966920000000 1.0
C      1  0.3949070000000  0.4819650000000  0.4708130000000 1.0
C      1  0.4845280000000  0.4622630000000  0.5550710000000 1.0
C      1  0.4358160000000  0.4691230000000  0.4907170000000 1.0
C      1  0.5158080000000  0.4621060000000  0.4458280000000 1.0
C      1  0.5596260000000  0.4665400000000  0.5105730000000 1.0
C      1  0.4880400000000  0.4686080000000  0.4412160000000 1.0
C      1  0.4443750000000  0.4641160000000  0.5174660000000 1.0
C      1  0.5128300000000  0.4687860000000  0.5589820000000 1.0
C      1  0.5534050000000  0.4621360000000  0.4829430000000 1.0
C      1  0.5536670000000  0.4530620000000  0.5746470000000 1.0
C      1  0.4255920000000  0.4511420000000  0.5527820000000 1.0
C      1  0.4458390000000  0.4505840000000  0.4241930000000 1.0
C      1  0.5758820000000  0.4523530000000  0.4472710000000 1.0
C      1  0.5553580000000  0.4500380000000  0.4216360000000 1.0
C      1  0.4256650000000  0.4526640000000  0.4472450000000 1.0
C      1  0.4445070000000  0.4499900000000  0.5779810000000 1.0
C      1  0.5777800000000  0.4498070000000  0.5560980000000 1.0
C      1  0.5115410000000  0.5437790000000  0.5923500000000 1.0
C      1  0.4053600000000  0.5326070000000  0.5135830000000 1.0
C      1  0.4877030000000  0.5440560000000  0.4051350000000 1.0
C      1  0.5951650000000  0.5324240000000  0.4890740000000 1.0
C      1  0.5113680000000  0.5333500000000  0.4039120000000 1.0
C      1  0.4068760000000  0.5436140000000  0.4890590000000 1.0
C      1  0.4870400000000  0.5330450000000  0.5942590000000 1.0
C      1  0.5946570000000  0.5428750000000  0.5136510000000 1.0
C      1  0.5669440000000  0.4205760000000  0.5279910000000 1.0
C      1  0.4718580000000  0.4189850000000  0.5681610000000 1.0
C      1  0.4349600000000  0.4222970000000  0.4738320000000 1.0
C      1  0.5306110000000  0.4227960000000  0.4290140000000 1.0
C      1  0.5698790000000  0.4211500000000  0.4716010000000 1.0
C      1  0.4727710000000  0.4199960000000  0.4326040000000 1.0
C      1  0.4323570000000  0.4199430000000  0.5271280000000 1.0
C      1  0.5253950000000  0.4199750000000  0.5660110000000 1.0
C      1  0.5129080000000  0.4830940000000  0.5329790000000 1.0
C      1  0.4677150000000  0.4784170000000  0.5130780000000 1.0
C      1  0.4832210000000  0.4808030000000  0.4664900000000 1.0
C      1  0.5277800000000  0.4716830000000  0.4870790000000 1.0
C      1  0.5130570000000  0.4800660000000  0.4675090000000 1.0
C      1  0.4693500000000  0.4670180000000  0.4862940000000 1.0
C      1  0.4860220000000  0.4760540000000  0.5314170000000 1.0
C      1  0.5284160000000  0.4727510000000  0.5121390000000 1.0
C      1  0.5810920000000  0.4789410000000  0.5611710000000 1.0
C      1  0.4416910000000  0.4791650000000  0.5775270000000 1.0
C      1  0.4232050000000  0.4813840000000  0.4423270000000 1.0
C      1  0.5589070000000  0.4794080000000  0.4230280000000 1.0
C      1  0.5775970000000  0.4802300000000  0.4419540000000 1.0
C      1  0.4415560000000  0.4799750000000  0.4225500000000 1.0
C      1  0.4240620000000  0.4799220000000  0.5575090000000 1.0
C      1  0.5589330000000  0.4807710000000  0.5773690000000 1.0
C      1  0.4486910000000  0.5277160000000  0.4077340000000 1.0
C      1  0.5896860000000  0.5280850000000  0.4470450000000 1.0
C      1  0.5513300000000  0.5276610000000  0.5891640000000 1.0
C      1  0.4099260000000  0.5262730000000  0.5548240000000 1.0
C      1  0.4460310000000  0.5261940000000  0.5893200000000 1.0
C      1  0.5901180000000  0.5258900000000  0.5520880000000 1.0
C      1  0.5526770000000  0.5273910000000  0.4123050000000 1.0
C      1  0.4100640000000  0.5281500000000  0.4489950000000 1.0
C      1  0.5262370000000  0.4355620000000  0.4520160000000 1.0
C      1  0.5465520000000  0.4399870000000  0.5260250000000 1.0
C      1  0.4736040000000  0.4370560000000  0.5466120000000 1.0
C      1  0.4601360000000  0.4381150000000  0.4757890000000 1.0
C      1  0.5261940000000  0.4417290000000  0.5465620000000 1.0
C      1  0.5480930000000  0.4356730000000  0.4726960000000 1.0
C      1  0.4761750000000  0.4368050000000  0.4530460000000 1.0
C      1  0.4550710000000  0.4383780000000  0.5241720000000 1.0
C      1  0.5369570000000  0.5543390000000  0.5903000000000 1.0
C      1  0.4089600000000  0.5498990000000  0.5389900000000 1.0
C      1  0.4626070000000  0.5549790000000  0.4064860000000 1.0
C      1  0.5909840000000  0.5515150000000  0.4642370000000 1.0
C      1  0.5358900000000  0.5517550000000  0.4099040000000 1.0
C      1  0.4087170000000  0.5554980000000  0.4640180000000 1.0
C      1  0.4616990000000  0.5502590000000  0.5894840000000 1.0
C      1  0.5935140000000  0.5525380000000  0.5391730000000 1.0
C      1  0.4681150000000  0.5158260000000  0.4869670000000 1.0
C      1  0.5133620000000  0.5075290000000  0.4681260000000 1.0
C      1  0.5307850000000  0.5158480000000  0.5125460000000 1.0
C      1  0.4869700000000  0.5147370000000  0.5301320000000 1.0
C      1  0.4658100000000  0.5094100000000  0.5121130000000 1.0
C      1  0.5138260000000  0.5104970000000  0.5312370000000 1.0
C      1  0.5301940000000  0.5158120000000  0.4876910000000 1.0
C      1  0.4852260000000  0.5088270000000  0.4685750000000 1.0
C      1  0.4605910000000  0.5960630000000  0.4853970000000 1.0
C      1  0.5157700000000  0.5949210000000  0.4591490000000 1.0
C      1  0.5358980000000  0.5997400000000  0.5157370000000 1.0
C      1  0.4841590000000  0.6004930000000  0.5359580000000 1.0
C      1  0.4624680000000  0.6004510000000  0.5144850000000 1.0
C      1  0.5146760000000  0.5977850000000  0.5376740000000 1.0
C      1  0.5389520000000  0.5945010000000  0.4833640000000 1.0
C      1  0.4848760000000  0.5941130000000  0.4603530000000 1.0
END
