TITL C-2441166-8118-607 0.163248231604863 125000 -19118.0596699265 0 0 154 (C1) n - 1
REM
REM in /home/bkarasulu/work/CARBON/AIRSS/Generating-Clusters/ReaxFF-fromJPCA2015/Units_Real/with-SteepDescent/Higher-Symm
REM
REM
REM
REM
REM
REM ./C.cell (1df0a924f5614ab8850e4351716899ee)
REM
REM compiler GCC version 9.2.1 20190827 (Red Hat 9.2.1-1)
REM options -cpp -mtune=generic -march=x86-64 -g -O0 -fpre-include=/usr/include/finclude/math-vector-fortran.h
REM seed 631038558 197269026 -1922844760 1843193508 -179617162 -941827786 1345609512 -1337025509 1446131036 -120134496 314983729 222138956 -214868158 481707747 -1187826326 807892516 -60235780 2007798623 1066319791 -1861213596 -1641392373 -304529272 145368215 -1447046954 -1629583269 -1641085635 -1995689087 869352525 -697306882 -778097757 -2030764489 -790721144 -215574308
REM
CELL 1.54180   50.00000   50.00000   50.00000   90.00000   90.00000   90.00000
LATT -1
SFAC C  
C      1  0.4854470000000  0.4555110000000  0.5795850000000 1.0
C      1  0.5627640000000  0.5052150000000  0.4996360000000 1.0
C      1  0.5547750000000  0.4938730000000  0.5253730000000 1.0
C      1  0.5328480000000  0.4221390000000  0.4554110000000 1.0
C      1  0.4842630000000  0.5226260000000  0.4013450000000 1.0
C      1  0.5001070000000  0.4083100000000  0.5396020000000 1.0
C      1  0.4057890000000  0.5366390000000  0.5025820000000 1.0
C      1  0.5099160000000  0.5350080000000  0.4053210000000 1.0
C      1  0.4962460000000  0.4702450000000  0.4739780000000 1.0
C      1  0.5419760000000  0.5732330000000  0.4450650000000 1.0
C      1  0.4832280000000  0.4919260000000  0.4029800000000 1.0
C      1  0.4562890000000  0.5428710000000  0.5039590000000 1.0
C      1  0.5569660000000  0.4916200000000  0.5896690000000 1.0
C      1  0.4600680000000  0.4684210000000  0.4065890000000 1.0
C      1  0.4688650000000  0.4392370000000  0.4440860000000 1.0
C      1  0.5223090000000  0.4322350000000  0.5768460000000 1.0
C      1  0.5348900000000  0.4927130000000  0.4005800000000 1.0
C      1  0.4684130000000  0.5082050000000  0.4777660000000 1.0
C      1  0.4197470000000  0.4549990000000  0.5228240000000 1.0
C      1  0.4907870000000  0.4301800000000  0.5005510000000 1.0
C      1  0.5774740000000  0.5381580000000  0.5197140000000 1.0
C      1  0.5915020000000  0.5102340000000  0.5001570000000 1.0
C      1  0.4577140000000  0.5332400000000  0.5777680000000 1.0
C      1  0.4252700000000  0.4586740000000  0.4431340000000 1.0
C      1  0.5081750000000  0.5644220000000  0.5750440000000 1.0
C      1  0.4597950000000  0.5290820000000  0.4157240000000 1.0
C      1  0.4316930000000  0.5217150000000  0.5702250000000 1.0
C      1  0.4893480000000  0.5409390000000  0.4696700000000 1.0
C      1  0.4348780000000  0.4746070000000  0.4201640000000 1.0
C      1  0.5186400000000  0.5114500000000  0.4970210000000 1.0
C      1  0.5639990000000  0.4668470000000  0.5764240000000 1.0
C      1  0.5183250000000  0.4369360000000  0.5004890000000 1.0
C      1  0.5826070000000  0.4673510000000  0.5541410000000 1.0
C      1  0.4343030000000  0.4307280000000  0.5246540000000 1.0
C      1  0.4897890000000  0.4621120000000  0.5507250000000 1.0
C      1  0.5372510000000  0.4443210000000  0.5411170000000 1.0
C      1  0.4154600000000  0.5634070000000  0.5011180000000 1.0
C      1  0.5047240000000  0.4201410000000  0.4464720000000 1.0
C      1  0.4711570000000  0.4476450000000  0.5352390000000 1.0
C      1  0.5281320000000  0.4181650000000  0.5522000000000 1.0
C      1  0.4131060000000  0.4710680000000  0.4977580000000 1.0
C      1  0.5175390000000  0.4829070000000  0.4907400000000 1.0
C      1  0.4672550000000  0.5842830000000  0.4541980000000 1.0
C      1  0.4458070000000  0.4271120000000  0.4984720000000 1.0
C      1  0.4941500000000  0.5351790000000  0.4438520000000 1.0
C      1  0.4512220000000  0.4328520000000  0.5501800000000 1.0
C      1  0.4211180000000  0.4680130000000  0.5501870000000 1.0
C      1  0.4206840000000  0.5419120000000  0.5530260000000 1.0
C      1  0.4381990000000  0.4400590000000  0.4764150000000 1.0
C      1  0.5805660000000  0.4426090000000  0.5380330000000 1.0
C      1  0.4186720000000  0.4963100000000  0.4614730000000 1.0
C      1  0.4167310000000  0.5224200000000  0.4756770000000 1.0
C      1  0.4932440000000  0.5779520000000  0.4879960000000 1.0
C      1  0.5340010000000  0.4531580000000  0.4268170000000 1.0
C      1  0.5365640000000  0.5346730000000  0.5796410000000 1.0
C      1  0.4676970000000  0.4794200000000  0.4736780000000 1.0
C      1  0.4855770000000  0.5140270000000  0.5174190000000 1.0
C      1  0.4933280000000  0.4276360000000  0.5798100000000 1.0
C      1  0.5817120000000  0.4926870000000  0.5393950000000 1.0
C      1  0.5529980000000  0.4752780000000  0.4158910000000 1.0
C      1  0.5195750000000  0.5748740000000  0.5365590000000 1.0
C      1  0.5096250000000  0.4776150000000  0.3981000000000 1.0
C      1  0.4784360000000  0.4489650000000  0.4174620000000 1.0
C      1  0.4932250000000  0.5932060000000  0.4619130000000 1.0
C      1  0.5490350000000  0.5450530000000  0.5181610000000 1.0
C      1  0.4949720000000  0.5918090000000  0.5405640000000 1.0
C      1  0.4610150000000  0.5247650000000  0.5301610000000 1.0
C      1  0.5341310000000  0.5885700000000  0.4944880000000 1.0
C      1  0.5031610000000  0.6000990000000  0.5005690000000 1.0
C      1  0.5844130000000  0.4599270000000  0.5140210000000 1.0
C      1  0.5341970000000  0.5208120000000  0.4081110000000 1.0
C      1  0.5041920000000  0.5004630000000  0.5608630000000 1.0
C      1  0.5830770000000  0.4934000000000  0.4561610000000 1.0
C      1  0.4116480000000  0.4697120000000  0.4668230000000 1.0
C      1  0.5683920000000  0.4685820000000  0.4633450000000 1.0
C      1  0.4904010000000  0.4039360000000  0.5122430000000 1.0
C      1  0.5508700000000  0.5112170000000  0.5697320000000 1.0
C      1  0.5827630000000  0.4470000000000  0.4733370000000 1.0
C      1  0.5321500000000  0.5582330000000  0.4913050000000 1.0
C      1  0.5395330000000  0.4672620000000  0.4694700000000 1.0
C      1  0.5585730000000  0.4550960000000  0.5042800000000 1.0
C      1  0.5240650000000  0.5279290000000  0.5263850000000 1.0
C      1  0.5075500000000  0.5380090000000  0.5855050000000 1.0
C      1  0.4879530000000  0.4767610000000  0.5994000000000 1.0
C      1  0.5647560000000  0.4296540000000  0.4912180000000 1.0
C      1  0.5692610000000  0.4964920000000  0.4271840000000 1.0
C      1  0.4637990000000  0.5508920000000  0.5547840000000 1.0
C      1  0.4413140000000  0.4591600000000  0.5671390000000 1.0
C      1  0.5535520000000  0.5520760000000  0.5649180000000 1.0
C      1  0.4788480000000  0.4147160000000  0.5577380000000 1.0
C      1  0.5084270000000  0.4943270000000  0.5882340000000 1.0
C      1  0.5811860000000  0.5399640000000  0.4803200000000 1.0
C      1  0.4819340000000  0.5554380000000  0.5099500000000 1.0
C      1  0.4534110000000  0.4838960000000  0.5774500000000 1.0
C      1  0.4782850000000  0.4878640000000  0.5166810000000 1.0
C      1  0.5362840000000  0.4572880000000  0.5807320000000 1.0
C      1  0.5095310000000  0.5593690000000  0.4746950000000 1.0
C      1  0.4487530000000  0.4544510000000  0.4573580000000 1.0
C      1  0.5515150000000  0.5852610000000  0.4693880000000 1.0
C      1  0.5429070000000  0.5176350000000  0.4842420000000 1.0
C      1  0.5317230000000  0.4810640000000  0.5971180000000 1.0
C      1  0.4797810000000  0.5999980000000  0.5178670000000 1.0
C      1  0.5411410000000  0.4134610000000  0.4986350000000 1.0
C      1  0.4975550000000  0.3942560000000  0.4838620000000 1.0
C      1  0.6017540000000  0.4909740000000  0.4814510000000 1.0
C      1  0.4689050000000  0.4988850000000  0.5980520000000 1.0
C      1  0.4922530000000  0.5202240000000  0.4910360000000 1.0
C      1  0.5798460000000  0.5153400000000  0.5568510000000 1.0
C      1  0.5159990000000  0.4573470000000  0.5268650000000 1.0
C      1  0.4259570000000  0.5661420000000  0.4737270000000 1.0
C      1  0.4548970000000  0.5887590000000  0.5064170000000 1.0
C      1  0.6012010000000  0.4631590000000  0.4897180000000 1.0
C      1  0.5250360000000  0.4998460000000  0.4447080000000 1.0
C      1  0.4567420000000  0.4942450000000  0.5344150000000 1.0
C      1  0.4191690000000  0.4961590000000  0.5606380000000 1.0
C      1  0.4841880000000  0.4081010000000  0.4624770000000 1.0
C      1  0.4972950000000  0.5580500000000  0.4250830000000 1.0
C      1  0.4338990000000  0.5751700000000  0.5209110000000 1.0
C      1  0.5779770000000  0.5426910000000  0.5482990000000 1.0
C      1  0.5593790000000  0.5592460000000  0.4800630000000 1.0
C      1  0.4268090000000  0.5449910000000  0.4548880000000 1.0
C      1  0.5284070000000  0.4729550000000  0.4464770000000 1.0
C      1  0.4455970000000  0.5210390000000  0.4881970000000 1.0
C      1  0.4310200000000  0.4986490000000  0.4362140000000 1.0
C      1  0.4680630000000  0.5669380000000  0.4310060000000 1.0
C      1  0.4996760000000  0.5077090000000  0.4430250000000 1.0
C      1  0.4572820000000  0.5092940000000  0.4367330000000 1.0
C      1  0.4463260000000  0.5483240000000  0.4337350000000 1.0
C      1  0.4624460000000  0.4726440000000  0.5014390000000 1.0
C      1  0.5365450000000  0.4726610000000  0.5118460000000 1.0
C      1  0.5263550000000  0.4012100000000  0.4767920000000 1.0
C      1  0.5129270000000  0.5781560000000  0.4446750000000 1.0
C      1  0.4767130000000  0.4888340000000  0.5563770000000 1.0
C      1  0.4096030000000  0.4962190000000  0.5063660000000 1.0
C      1  0.5806270000000  0.5251530000000  0.4563310000000 1.0
C      1  0.5444290000000  0.5438160000000  0.4383040000000 1.0
C      1  0.5300070000000  0.4430990000000  0.4746880000000 1.0
C      1  0.4529240000000  0.5766390000000  0.4795520000000 1.0
C      1  0.5287210000000  0.5051080000000  0.5460910000000 1.0
C      1  0.4810280000000  0.5253070000000  0.5921120000000 1.0
C      1  0.4790840000000  0.4923370000000  0.4332580000000 1.0
C      1  0.4934820000000  0.4472190000000  0.4567630000000 1.0
C      1  0.4096420000000  0.5047070000000  0.5326020000000 1.0
C      1  0.4389440000000  0.5621660000000  0.5460970000000 1.0
C      1  0.4849690000000  0.5719480000000  0.5592180000000 1.0
C      1  0.5333000000000  0.5718300000000  0.5624780000000 1.0
C      1  0.4065290000000  0.5317940000000  0.5305620000000 1.0
C      1  0.4690210000000  0.4450880000000  0.5073500000000 1.0
C      1  0.5672510000000  0.5262370000000  0.4291210000000 1.0
C      1  0.5575510000000  0.4257060000000  0.5337210000000 1.0
C      1  0.5028060000000  0.5494160000000  0.5290740000000 1.0
C      1  0.5374950000000  0.5220170000000  0.4573140000000 1.0
C      1  0.5489560000000  0.5782290000000  0.5210920000000 1.0
C      1  0.5079570000000  0.4527340000000  0.4117200000000 1.0
END
