TITL C-2441158-471-1234 0.0845915922490234 125000 -26290.8223315907 0 0 191 (C1) n - 1
REM
REM in /home/bkarasulu/work/CARBON/AIRSS/Generating-Clusters/ReaxFF-fromJPCA2015/Units_Real/with-SteepDescent/Higher-Symm
REM
REM
REM
REM
REM
REM ./C.cell (1df0a924f5614ab8850e4351716899ee)
REM
REM compiler GCC version 9.2.1 20190827 (Red Hat 9.2.1-1)
REM options -cpp -mtune=generic -march=x86-64 -g -O0 -fpre-include=/usr/include/finclude/math-vector-fortran.h
REM seed -2042456412 -1679686209 1295016603 567208972 526418301 145355543 -625185504 439998145 918861052 -1440070462 -449453816 -633637033 1456458103 -1912710739 -208326235 -1182804957 1661460119 1286825533 -1502332449 -1280936776 -2109995897 1140391547 1777708640 763643091 2015307825 1887024323 -1717095465 571649103 2045616485 -1342782307 -628384870 2013286097 1954241153
REM
CELL 1.54180   50.00000   50.00000   50.00000   90.00000   90.00000   90.00000
LATT -1
SFAC C  
C      1  0.5166620000000  0.5667630000000  0.5242400000000 1.0
C      1  0.5108730000000  0.5274430000000  0.4216830000000 1.0
C      1  0.5201930000000  0.4091790000000  0.4702750000000 1.0
C      1  0.5185920000000  0.4768760000000  0.5877190000000 1.0
C      1  0.4895100000000  0.5779740000000  0.4626970000000 1.0
C      1  0.4835690000000  0.5249310000000  0.5697200000000 1.0
C      1  0.4802550000000  0.4127140000000  0.5271220000000 1.0
C      1  0.4833420000000  0.4717770000000  0.4167530000000 1.0
C      1  0.5343060000000  0.4477240000000  0.5031720000000 1.0
C      1  0.5328940000000  0.5039200000000  0.5478400000000 1.0
C      1  0.5401960000000  0.5737660000000  0.4844860000000 1.0
C      1  0.5333410000000  0.4943060000000  0.4497780000000 1.0
C      1  0.4675040000000  0.4502750000000  0.4940680000000 1.0
C      1  0.4675400000000  0.5045710000000  0.4519020000000 1.0
C      1  0.4686780000000  0.5499810000000  0.5018790000000 1.0
C      1  0.4638930000000  0.4921450000000  0.5505220000000 1.0
C      1  0.5541100000000  0.5760880000000  0.5588690000000 1.0
C      1  0.5537020000000  0.5653390000000  0.4277990000000 1.0
C      1  0.5570290000000  0.4253910000000  0.4395760000000 1.0
C      1  0.5556350000000  0.4430750000000  0.5762260000000 1.0
C      1  0.4421650000000  0.5818990000000  0.4444240000000 1.0
C      1  0.4414040000000  0.5591850000000  0.5786770000000 1.0
C      1  0.4432550000000  0.4264520000000  0.5613560000000 1.0
C      1  0.4431020000000  0.4404130000000  0.4229340000000 1.0
C      1  0.5428840000000  0.5219550000000  0.3945850000000 1.0
C      1  0.5407890000000  0.3973690000000  0.4880240000000 1.0
C      1  0.5369970000000  0.4997700000000  0.5985610000000 1.0
C      1  0.5206780000000  0.6062660000000  0.5376960000000 1.0
C      1  0.4617420000000  0.5258380000000  0.6041180000000 1.0
C      1  0.4593670000000  0.3966040000000  0.5117970000000 1.0
C      1  0.4596270000000  0.4850520000000  0.4056920000000 1.0
C      1  0.4587190000000  0.6039430000000  0.4818200000000 1.0
C      1  0.4726320000000  0.4019970000000  0.4682100000000 1.0
C      1  0.4706010000000  0.4662850000000  0.6001400000000 1.0
C      1  0.4748240000000  0.5950920000000  0.5258360000000 1.0
C      1  0.4697790000000  0.5245120000000  0.4036050000000 1.0
C      1  0.5261130000000  0.4007610000000  0.5328370000000 1.0
C      1  0.5295440000000  0.4682860000000  0.3996680000000 1.0
C      1  0.5293210000000  0.5923390000000  0.4646960000000 1.0
C      1  0.5317240000000  0.5290100000000  0.5996450000000 1.0
C      1  0.4898750000000  0.5065500000000  0.5484270000000 1.0
C      1  0.4869110000000  0.5513440000000  0.4792620000000 1.0
C      1  0.4902770000000  0.4859140000000  0.4494870000000 1.0
C      1  0.4900960000000  0.4437740000000  0.5111980000000 1.0
C      1  0.5102080000000  0.5119750000000  0.4480710000000 1.0
C      1  0.5125180000000  0.5391120000000  0.5163120000000 1.0
C      1  0.5118910000000  0.4853000000000  0.5546000000000 1.0
C      1  0.5089130000000  0.4511130000000  0.4893080000000 1.0
C      1  0.5638920000000  0.4053560000000  0.5048550000000 1.0
C      1  0.5653190000000  0.5049100000000  0.5936810000000 1.0
C      1  0.5675980000000  0.5817360000000  0.4888450000000 1.0
C      1  0.5615680000000  0.5008560000000  0.4051280000000 1.0
C      1  0.4355540000000  0.4038900000000  0.4962180000000 1.0
C      1  0.4437910000000  0.5095540000000  0.4068410000000 1.0
C      1  0.4516250000000  0.5958670000000  0.5089560000000 1.0
C      1  0.4421420000000  0.5037520000000  0.5951350000000 1.0
C      1  0.4733240000000  0.5755640000000  0.5471960000000 1.0
C      1  0.4727010000000  0.5462850000000  0.4233990000000 1.0
C      1  0.4786970000000  0.4250290000000  0.4515340000000 1.0
C      1  0.4764480000000  0.4492750000000  0.5773720000000 1.0
C      1  0.5317430000000  0.5832820000000  0.4356740000000 1.0
C      1  0.5210200000000  0.5445440000000  0.5768610000000 1.0
C      1  0.5214490000000  0.4236890000000  0.5497110000000 1.0
C      1  0.5223750000000  0.4518800000000  0.4228440000000 1.0
C      1  0.5798000000000  0.4765270000000  0.5017600000000 1.0
C      1  0.5773050000000  0.4996210000000  0.5195720000000 1.0
C      1  0.5849130000000  0.5189690000000  0.5000000000000 1.0
C      1  0.5802170000000  0.4999370000000  0.4768010000000 1.0
C      1  0.4202160000000  0.4768150000000  0.5001980000000 1.0
C      1  0.4200310000000  0.4989730000000  0.4779300000000 1.0
C      1  0.4210570000000  0.5218040000000  0.4997140000000 1.0
C      1  0.4208050000000  0.5000150000000  0.5223460000000 1.0
C      1  0.6234840000000  0.5055340000000  0.4804290000000 1.0
C      1  0.6248820000000  0.4822760000000  0.4977920000000 1.0
C      1  0.6233920000000  0.4994340000000  0.5219930000000 1.0
C      1  0.6140850000000  0.5253030000000  0.5025330000000 1.0
C      1  0.3754570000000  0.5027700000000  0.5207700000000 1.0
C      1  0.3752060000000  0.4790210000000  0.5026740000000 1.0
C      1  0.3753710000000  0.4969870000000  0.4789360000000 1.0
C      1  0.3751450000000  0.5207220000000  0.4971590000000 1.0
C      1  0.4500190000000  0.5344550000000  0.5376210000000 1.0
C      1  0.4465120000000  0.5407050000000  0.4660930000000 1.0
C      1  0.4468160000000  0.4664470000000  0.4582860000000 1.0
C      1  0.4470670000000  0.4577530000000  0.5330100000000 1.0
C      1  0.5527000000000  0.5338920000000  0.4624470000000 1.0
C      1  0.5522670000000  0.5409410000000  0.5346640000000 1.0
C      1  0.5532380000000  0.4655980000000  0.5396420000000 1.0
C      1  0.5527420000000  0.4604870000000  0.4646360000000 1.0
C      1  0.4484310000000  0.4683580000000  0.5059320000000 1.0
C      1  0.4497480000000  0.5059180000000  0.5295330000000 1.0
C      1  0.4494450000000  0.5293990000000  0.4932380000000 1.0
C      1  0.4476810000000  0.4929350000000  0.4695190000000 1.0
C      1  0.5504410000000  0.4707080000000  0.4933440000000 1.0
C      1  0.5512460000000  0.5057520000000  0.4699120000000 1.0
C      1  0.5379940000000  0.5283280000000  0.5056540000000 1.0
C      1  0.5502580000000  0.4935890000000  0.5277770000000 1.0
C      1  0.5563840000000  0.4710990000000  0.5675300000000 1.0
C      1  0.5450950000000  0.5681550000000  0.5317200000000 1.0
C      1  0.5478320000000  0.5367720000000  0.4343120000000 1.0
C      1  0.5531370000000  0.4327990000000  0.4674730000000 1.0
C      1  0.4430080000000  0.4721030000000  0.4249780000000 1.0
C      1  0.4432810000000  0.5685720000000  0.4709260000000 1.0
C      1  0.4552330000000  0.5329160000000  0.5643580000000 1.0
C      1  0.4441250000000  0.4298640000000  0.5323220000000 1.0
C      1  0.4967520000000  0.5118340000000  0.4005290000000 1.0
C      1  0.4972910000000  0.3990900000000  0.4853480000000 1.0
C      1  0.4931050000000  0.4850560000000  0.6006120000000 1.0
C      1  0.5039830000000  0.5934110000000  0.5143390000000 1.0
C      1  0.4869400000000  0.5135930000000  0.5962620000000 1.0
C      1  0.5025150000000  0.3973400000000  0.5148220000000 1.0
C      1  0.5043510000000  0.4834710000000  0.3992470000000 1.0
C      1  0.5062680000000  0.5956900000000  0.4809440000000 1.0
C      1  0.5672620000000  0.4264200000000  0.5524420000000 1.0
C      1  0.5684010000000  0.5546760000000  0.5735320000000 1.0
C      1  0.5798920000000  0.5703750000000  0.4396420000000 1.0
C      1  0.5690970000000  0.4504700000000  0.4269800000000 1.0
C      1  0.4319470000000  0.4281120000000  0.4475310000000 1.0
C      1  0.4332660000000  0.5620980000000  0.4263560000000 1.0
C      1  0.4273680000000  0.5733570000000  0.5570050000000 1.0
C      1  0.4321440000000  0.4530190000000  0.5737240000000 1.0
C      1  0.4195380000000  0.5486590000000  0.5388090000000 1.0
C      1  0.4169590000000  0.5381380000000  0.4537420000000 1.0
C      1  0.4194330000000  0.4533720000000  0.4547860000000 1.0
C      1  0.4190120000000  0.4582310000000  0.5487960000000 1.0
C      1  0.5844220000000  0.5472420000000  0.4595040000000 1.0
C      1  0.5791120000000  0.5443120000000  0.5484920000000 1.0
C      1  0.5802010000000  0.4498420000000  0.5426300000000 1.0
C      1  0.5828050000000  0.4563470000000  0.4515740000000 1.0
C      1  0.5963690000000  0.4704320000000  0.5583320000000 1.0
C      1  0.5938010000000  0.5611600000000  0.5307090000000 1.0
C      1  0.5947060000000  0.5250790000000  0.4418340000000 1.0
C      1  0.5935360000000  0.4433720000000  0.4755900000000 1.0
C      1  0.4064190000000  0.4760040000000  0.4399740000000 1.0
C      1  0.4053940000000  0.5569630000000  0.4747260000000 1.0
C      1  0.4099420000000  0.5252970000000  0.5567370000000 1.0
C      1  0.4040630000000  0.4427150000000  0.5282570000000 1.0
C      1  0.4274090000000  0.5764390000000  0.5283000000000 1.0
C      1  0.4246450000000  0.5358100000000  0.4260560000000 1.0
C      1  0.4437790000000  0.4081940000000  0.4678950000000 1.0
C      1  0.4433880000000  0.4742060000000  0.5925410000000 1.0
C      1  0.5848690000000  0.5778800000000  0.4662650000000 1.0
C      1  0.5603920000000  0.5344920000000  0.5936290000000 1.0
C      1  0.5556520000000  0.4062830000000  0.5333260000000 1.0
C      1  0.5570980000000  0.4718210000000  0.4091230000000 1.0
C      1  0.4690430000000  0.4128700000000  0.5580300000000 1.0
C      1  0.4642490000000  0.5554840000000  0.5951150000000 1.0
C      1  0.4667740000000  0.5964120000000  0.4542720000000 1.0
C      1  0.4700420000000  0.4432820000000  0.4130040000000 1.0
C      1  0.5303600000000  0.4129850000000  0.4420290000000 1.0
C      1  0.5241110000000  0.5436220000000  0.4011890000000 1.0
C      1  0.5285750000000  0.5916640000000  0.5618970000000 1.0
C      1  0.5294670000000  0.4470780000000  0.5882010000000 1.0
C      1  0.5130800000000  0.5705390000000  0.4181070000000 1.0
C      1  0.5143450000000  0.4236000000000  0.4206010000000 1.0
C      1  0.5154910000000  0.4238720000000  0.5785450000000 1.0
C      1  0.5105940000000  0.5719780000000  0.5768140000000 1.0
C      1  0.4814510000000  0.5719580000000  0.5763000000000 1.0
C      1  0.4857660000000  0.4218810000000  0.5799440000000 1.0
C      1  0.4852290000000  0.4211130000000  0.4226410000000 1.0
C      1  0.4870860000000  0.5709340000000  0.4292520000000 1.0
C      1  0.5306640000000  0.4671030000000  0.4459450000000 1.0
C      1  0.5264380000000  0.4495340000000  0.5324610000000 1.0
C      1  0.5329960000000  0.5305830000000  0.5539580000000 1.0
C      1  0.5342720000000  0.5446330000000  0.4809480000000 1.0
C      1  0.4733020000000  0.4642460000000  0.5496380000000 1.0
C      1  0.4706200000000  0.4502730000000  0.4656080000000 1.0
C      1  0.4672820000000  0.5319410000000  0.4479090000000 1.0
C      1  0.4699070000000  0.5527880000000  0.5297920000000 1.0
C      1  0.3970880000000  0.5400730000000  0.4972600000000 1.0
C      1  0.3965700000000  0.4959640000000  0.4585800000000 1.0
C      1  0.3964180000000  0.4587560000000  0.5052680000000 1.0
C      1  0.3972460000000  0.5053070000000  0.5406040000000 1.0
C      1  0.6057430000000  0.5538630000000  0.5068510000000 1.0
C      1  0.6099850000000  0.4893120000000  0.5438290000000 1.0
C      1  0.6047590000000  0.4611110000000  0.4955380000000 1.0
C      1  0.6040540000000  0.5038340000000  0.4588850000000 1.0
C      1  0.4335020000000  0.5119680000000  0.5685860000000 1.0
C      1  0.4238300000000  0.5721270000000  0.4917490000000 1.0
C      1  0.4235990000000  0.4953720000000  0.4260400000000 1.0
C      1  0.4227830000000  0.4261540000000  0.5127900000000 1.0
C      1  0.5706820000000  0.5198860000000  0.4259950000000 1.0
C      1  0.5780370000000  0.5650850000000  0.5088610000000 1.0
C      1  0.5780450000000  0.4904300000000  0.5704640000000 1.0
C      1  0.5702850000000  0.4309600000000  0.4907420000000 1.0
C      1  0.5044850000000  0.5289220000000  0.4753640000000 1.0
C      1  0.4990470000000  0.4759590000000  0.4764780000000 1.0
C      1  0.5002630000000  0.4658640000000  0.5342300000000 1.0
C      1  0.4966410000000  0.5162100000000  0.5205440000000 1.0
C      1  0.5367590000000  0.4989200000000  0.4985990000000 1.0
C      1  0.4637890000000  0.4996660000000  0.4990220000000 1.0
C      1  0.4945600000000  0.5034900000000  0.4948020000000 1.0
END
