TITL C-2441160-1326-642 -6.00445244452083e-05 125000 -14887.9549705825 0 0 100 (Cs) n - 1
REM
REM in /home/bkarasulu/work/CARBON/AIRSS/Generating-Clusters/ReaxFF-fromJPCA2015/Units_Real/with-SteepDescent/Higher-Symm
REM
REM
REM
REM
REM
REM ./C.cell (1df0a924f5614ab8850e4351716899ee)
REM
REM compiler GCC version 9.2.1 20190827 (Red Hat 9.2.1-1)
REM options -cpp -mtune=generic -march=x86-64 -g -O0 -fpre-include=/usr/include/finclude/math-vector-fortran.h
REM seed -1859083747 -618947371 -1092290112 925698954 734249410 -555714822 -415007983 1240364051 1748775690 2060218999 -710679788 -1906081276 965151465 -1698212296 -752413883 -324369785 -2049652453 1106364569 240169311 1132503019 849651240 1335664674 826441258 988019135 23244598 271801706 816910867 1625851194 -699438425 1760201882 581102662 844449914 445565264
REM
CELL 1.54180   50.00000   50.00000   50.00000   90.00000   90.00000   90.00000
LATT -1
SFAC C  
C      1  0.4516110000000  0.4842690000000  0.5157020000000 1.0
C      1  0.5485090000000  0.5155570000000  0.5153380000000 1.0
C      1  0.4514970000000  0.4844460000000  0.4835340000000 1.0
C      1  0.5485500000000  0.5155110000000  0.4838890000000 1.0
C      1  0.5483610000000  0.4842230000000  0.5158110000000 1.0
C      1  0.4514420000000  0.5158130000000  0.5151520000000 1.0
C      1  0.5485720000000  0.4845360000000  0.4833250000000 1.0
C      1  0.4514520000000  0.5156440000000  0.4839070000000 1.0
C      1  0.5334690000000  0.5487530000000  0.5629380000000 1.0
C      1  0.4670570000000  0.4521130000000  0.5628120000000 1.0
C      1  0.5331540000000  0.5489370000000  0.4365530000000 1.0
C      1  0.4673570000000  0.4518360000000  0.4366890000000 1.0
C      1  0.4666130000000  0.5486150000000  0.5629500000000 1.0
C      1  0.5329140000000  0.4519850000000  0.5628360000000 1.0
C      1  0.4668320000000  0.5489230000000  0.4365500000000 1.0
C      1  0.5326490000000  0.4518250000000  0.4366150000000 1.0
C      1  0.5662270000000  0.4848610000000  0.4330620000000 1.0
C      1  0.4434860000000  0.5105540000000  0.4267450000000 1.0
C      1  0.5667470000000  0.4848210000000  0.5660550000000 1.0
C      1  0.4431160000000  0.5105130000000  0.5725140000000 1.0
C      1  0.4337430000000  0.4848470000000  0.4331700000000 1.0
C      1  0.5564840000000  0.5105880000000  0.4267010000000 1.0
C      1  0.4333560000000  0.4848230000000  0.5661210000000 1.0
C      1  0.5570140000000  0.5105180000000  0.5726270000000 1.0
C      1  0.4770550000000  0.4797740000000  0.5274950000000 1.0
C      1  0.5227380000000  0.5208400000000  0.5269940000000 1.0
C      1  0.4770480000000  0.4800000000000  0.4717470000000 1.0
C      1  0.5228910000000  0.5208730000000  0.4723170000000 1.0
C      1  0.5230040000000  0.4795800000000  0.5272030000000 1.0
C      1  0.4772320000000  0.5210380000000  0.5267990000000 1.0
C      1  0.5230100000000  0.4799940000000  0.4716410000000 1.0
C      1  0.4771150000000  0.5208780000000  0.4723370000000 1.0
C      1  0.4708010000000  0.4098340000000  0.4912650000000 1.0
C      1  0.5299350000000  0.5908160000000  0.4911900000000 1.0
C      1  0.4699570000000  0.4032960000000  0.5148540000000 1.0
C      1  0.5309850000000  0.5973270000000  0.5147660000000 1.0
C      1  0.5291730000000  0.4098190000000  0.4912170000000 1.0
C      1  0.4699140000000  0.5907840000000  0.4911930000000 1.0
C      1  0.5299500000000  0.4033280000000  0.5148080000000 1.0
C      1  0.4688340000000  0.5972680000000  0.5147890000000 1.0
C      1  0.4089440000000  0.5156270000000  0.4844600000000 1.0
C      1  0.5917510000000  0.4859090000000  0.4847190000000 1.0
C      1  0.4088420000000  0.5156330000000  0.5147650000000 1.0
C      1  0.5917400000000  0.4858780000000  0.5144510000000 1.0
C      1  0.5910610000000  0.5156290000000  0.4844510000000 1.0
C      1  0.4082710000000  0.4859050000000  0.4847500000000 1.0
C      1  0.5911500000000  0.5155970000000  0.5147630000000 1.0
C      1  0.4082480000000  0.4859050000000  0.5144840000000 1.0
C      1  0.4296450000000  0.5302140000000  0.4691970000000 1.0
C      1  0.5706830000000  0.4702020000000  0.4711120000000 1.0
C      1  0.4295500000000  0.5302070000000  0.5299990000000 1.0
C      1  0.5706670000000  0.4701380000000  0.5280300000000 1.0
C      1  0.5703260000000  0.5301870000000  0.4692110000000 1.0
C      1  0.4293440000000  0.4701610000000  0.4712110000000 1.0
C      1  0.5704120000000  0.5301140000000  0.5300340000000 1.0
C      1  0.4293710000000  0.4702210000000  0.5280070000000 1.0
C      1  0.5153090000000  0.5455620000000  0.4850520000000 1.0
C      1  0.4848310000000  0.4550990000000  0.4850030000000 1.0
C      1  0.5151070000000  0.5462380000000  0.5143890000000 1.0
C      1  0.4851680000000  0.4544860000000  0.5146430000000 1.0
C      1  0.4847490000000  0.5455860000000  0.4850410000000 1.0
C      1  0.5153350000000  0.4550900000000  0.4849770000000 1.0
C      1  0.4850530000000  0.5463080000000  0.5143100000000 1.0
C      1  0.5149930000000  0.4545740000000  0.5145330000000 1.0
C      1  0.5167860000000  0.5232950000000  0.5562370000000 1.0
C      1  0.4820200000000  0.4779290000000  0.5572170000000 1.0
C      1  0.5166560000000  0.5232000000000  0.4432370000000 1.0
C      1  0.4824310000000  0.4777220000000  0.4417840000000 1.0
C      1  0.4831290000000  0.5230800000000  0.5562040000000 1.0
C      1  0.5175780000000  0.4776870000000  0.5573870000000 1.0
C      1  0.4833240000000  0.5231920000000  0.4432560000000 1.0
C      1  0.5175410000000  0.4777040000000  0.4416660000000 1.0
C      1  0.5611250000000  0.4597020000000  0.4445750000000 1.0
C      1  0.4406270000000  0.5364790000000  0.4428480000000 1.0
C      1  0.5613820000000  0.4596680000000  0.5546980000000 1.0
C      1  0.4403660000000  0.5364480000000  0.5564170000000 1.0
C      1  0.4388810000000  0.4596890000000  0.4446730000000 1.0
C      1  0.5593520000000  0.5364800000000  0.4428600000000 1.0
C      1  0.4386680000000  0.4596640000000  0.5546390000000 1.0
C      1  0.5596510000000  0.5364590000000  0.5564390000000 1.0
C      1  0.5264150000000  0.4266490000000  0.5290040000000 1.0
C      1  0.4733280000000  0.5740150000000  0.5289250000000 1.0
C      1  0.5268640000000  0.4284630000000  0.4712910000000 1.0
C      1  0.4729870000000  0.5720900000000  0.4713790000000 1.0
C      1  0.4735390000000  0.4266110000000  0.5290760000000 1.0
C      1  0.5267430000000  0.5740460000000  0.5289400000000 1.0
C      1  0.4732180000000  0.4284810000000  0.4713570000000 1.0
C      1  0.5269950000000  0.5720870000000  0.4713850000000 1.0
C      1  0.4847840000000  0.5700480000000  0.5558590000000 1.0
C      1  0.5151280000000  0.4303400000000  0.5561570000000 1.0
C      1  0.4847730000000  0.5703850000000  0.4445440000000 1.0
C      1  0.5151740000000  0.4301460000000  0.4443240000000 1.0
C      1  0.5152340000000  0.5701160000000  0.5558530000000 1.0
C      1  0.4847950000000  0.4304410000000  0.5562130000000 1.0
C      1  0.5151980000000  0.5703850000000  0.4445530000000 1.0
C      1  0.4848400000000  0.4301490000000  0.4443600000000 1.0
C      1  0.5287310000000  0.5017120000000  0.4286910000000 1.0
C      1  0.4708820000000  0.5014630000000  0.5703810000000 1.0
C      1  0.4712420000000  0.5016640000000  0.4287700000000 1.0
C      1  0.5292110000000  0.5018820000000  0.5709990000000 1.0
END
