TITL C-2441167-4473-1069 0.183758864482426 125000 -23716.9735839192 0 0 188 (C1) n - 1
REM
REM in /home/bkarasulu/work/CARBON/AIRSS/Generating-Clusters/ReaxFF-fromJPCA2015/Units_Real/with-SteepDescent/Higher-Symm
REM
REM
REM
REM
REM
REM ./C.cell (1df0a924f5614ab8850e4351716899ee)
REM
REM compiler GCC version 9.2.1 20190827 (Red Hat 9.2.1-1)
REM options -cpp -mtune=generic -march=x86-64 -g -O0 -fpre-include=/usr/include/finclude/math-vector-fortran.h
REM seed 654887814 -1218626998 1882203790 637399836 -319161287 -889214932 -1556345464 1810711960 -41502099 17421848 632448605 1004179691 -2117204915 179881322 -1255075535 -1398176696 589809633 -29892540 -346384610 575736822 130819917 -1207827497 1472103977 -1761649722 -1133791212 657202172 1721713637 -943516455 140739696 2033049441 -2080012807 884726240 -793267729
REM
CELL 1.54180   50.00000   50.00000   50.00000   90.00000   90.00000   90.00000
LATT -1
SFAC C  
C      1  0.4275880000000  0.5333600000000  0.4359440000000 1.0
C      1  0.4284690000000  0.4553970000000  0.4379160000000 1.0
C      1  0.4275960000000  0.4253020000000  0.4856670000000 1.0
C      1  0.4282070000000  0.4443680000000  0.5549910000000 1.0
C      1  0.4326580000000  0.5081350000000  0.5759170000000 1.0
C      1  0.4296120000000  0.5696220000000  0.5439320000000 1.0
C      1  0.4355770000000  0.5746450000000  0.4687480000000 1.0
C      1  0.4939920000000  0.4784110000000  0.4383630000000 1.0
C      1  0.4970270000000  0.4406840000000  0.4758150000000 1.0
C      1  0.4942260000000  0.4470550000000  0.5343440000000 1.0
C      1  0.4972240000000  0.4938410000000  0.5650180000000 1.0
C      1  0.4956140000000  0.5440950000000  0.5481390000000 1.0
C      1  0.4968990000000  0.5640510000000  0.4946190000000 1.0
C      1  0.4958070000000  0.5384630000000  0.4427330000000 1.0
C      1  0.5269680000000  0.4938730000000  0.5620850000000 1.0
C      1  0.5276410000000  0.5417900000000  0.5473410000000 1.0
C      1  0.5256750000000  0.5622820000000  0.4985640000000 1.0
C      1  0.5243230000000  0.5375510000000  0.4481120000000 1.0
C      1  0.5287900000000  0.4778570000000  0.4402210000000 1.0
C      1  0.5257570000000  0.4441720000000  0.4746880000000 1.0
C      1  0.5228500000000  0.4451800000000  0.5288040000000 1.0
C      1  0.4198430000000  0.5362900000000  0.4830190000000 1.0
C      1  0.4217940000000  0.5052890000000  0.4454120000000 1.0
C      1  0.4117080000000  0.4691960000000  0.4790440000000 1.0
C      1  0.4306330000000  0.4598310000000  0.5163190000000 1.0
C      1  0.4177150000000  0.4788690000000  0.5358010000000 1.0
C      1  0.4200730000000  0.5288440000000  0.5339400000000 1.0
C      1  0.4307910000000  0.5470180000000  0.5072500000000 1.0
C      1  0.5792940000000  0.5102310000000  0.5290080000000 1.0
C      1  0.5668400000000  0.5369840000000  0.4968120000000 1.0
C      1  0.5694040000000  0.5371040000000  0.4676400000000 1.0
C      1  0.5667560000000  0.5082750000000  0.4590080000000 1.0
C      1  0.5637220000000  0.4703650000000  0.4874650000000 1.0
C      1  0.5731290000000  0.4674590000000  0.5129470000000 1.0
C      1  0.5678140000000  0.4861050000000  0.5335470000000 1.0
C      1  0.4615970000000  0.5900780000000  0.4400580000000 1.0
C      1  0.4559820000000  0.5143340000000  0.3989960000000 1.0
C      1  0.4596720000000  0.4219120000000  0.4256060000000 1.0
C      1  0.4589540000000  0.3976140000000  0.5095130000000 1.0
C      1  0.4600060000000  0.4440790000000  0.5847680000000 1.0
C      1  0.4611770000000  0.5397610000000  0.5962760000000 1.0
C      1  0.4617590000000  0.6038410000000  0.5294970000000 1.0
C      1  0.5901030000000  0.5535280000000  0.5403440000000 1.0
C      1  0.5917110000000  0.5680070000000  0.4808570000000 1.0
C      1  0.5936080000000  0.5305080000000  0.4374500000000 1.0
C      1  0.5924910000000  0.4726350000000  0.4403720000000 1.0
C      1  0.5903320000000  0.4330780000000  0.4866730000000 1.0
C      1  0.5945510000000  0.4470340000000  0.5431570000000 1.0
C      1  0.5945690000000  0.4995150000000  0.5697650000000 1.0
C      1  0.4699680000000  0.4430180000000  0.4587140000000 1.0
C      1  0.4711940000000  0.4380700000000  0.5137160000000 1.0
C      1  0.4678490000000  0.4767260000000  0.5602580000000 1.0
C      1  0.4678010000000  0.5349350000000  0.5561620000000 1.0
C      1  0.4728590000000  0.5694680000000  0.5134420000000 1.0
C      1  0.4726830000000  0.5526850000000  0.4543410000000 1.0
C      1  0.4705570000000  0.4966850000000  0.4327030000000 1.0
C      1  0.5082540000000  0.5756230000000  0.4129840000000 1.0
C      1  0.4998130000000  0.4808860000000  0.3930630000000 1.0
C      1  0.5084040000000  0.4016650000000  0.4453440000000 1.0
C      1  0.5003500000000  0.3997910000000  0.5424780000000 1.0
C      1  0.4999700000000  0.4734640000000  0.6044080000000 1.0
C      1  0.5091390000000  0.5665050000000  0.5888210000000 1.0
C      1  0.5090730000000  0.6146150000000  0.5031160000000 1.0
C      1  0.5934720000000  0.5012790000000  0.4472900000000 1.0
C      1  0.5834700000000  0.4542310000000  0.4663190000000 1.0
C      1  0.5927460000000  0.4469980000000  0.5136520000000 1.0
C      1  0.5869560000000  0.4754300000000  0.5552750000000 1.0
C      1  0.5881330000000  0.5255400000000  0.5507350000000 1.0
C      1  0.5824150000000  0.5589900000000  0.5111960000000 1.0
C      1  0.5981850000000  0.5455240000000  0.4628300000000 1.0
C      1  0.5671480000000  0.5289200000000  0.5721810000000 1.0
C      1  0.5636150000000  0.5782220000000  0.5224250000000 1.0
C      1  0.5590600000000  0.5633900000000  0.4574390000000 1.0
C      1  0.5635210000000  0.5075840000000  0.4206960000000 1.0
C      1  0.5646420000000  0.4436540000000  0.4466060000000 1.0
C      1  0.5589980000000  0.4229840000000  0.5088760000000 1.0
C      1  0.5653620000000  0.4610660000000  0.5685110000000 1.0
C      1  0.5454530000000  0.5730970000000  0.5684070000000 1.0
C      1  0.5458190000000  0.6037490000000  0.4831380000000 1.0
C      1  0.5444350000000  0.5523060000000  0.4107370000000 1.0
C      1  0.5504280000000  0.4596820000000  0.4016990000000 1.0
C      1  0.5446570000000  0.4015780000000  0.4671860000000 1.0
C      1  0.5502270000000  0.4149870000000  0.5597990000000 1.0
C      1  0.5494460000000  0.4961700000000  0.6049340000000 1.0
C      1  0.4861820000000  0.4981120000000  0.5924100000000 1.0
C      1  0.4881180000000  0.5695180000000  0.5370780000000 1.0
C      1  0.4869660000000  0.5705640000000  0.4699960000000 1.0
C      1  0.4863530000000  0.5196260000000  0.4260380000000 1.0
C      1  0.4904560000000  0.4638510000000  0.4141090000000 1.0
C      1  0.4887980000000  0.4248340000000  0.4953970000000 1.0
C      1  0.4891400000000  0.4243690000000  0.5536360000000 1.0
C      1  0.5384200000000  0.4943520000000  0.5346780000000 1.0
C      1  0.5295000000000  0.5230070000000  0.5242770000000 1.0
C      1  0.5372460000000  0.5357940000000  0.4975110000000 1.0
C      1  0.5242510000000  0.5210280000000  0.4721930000000 1.0
C      1  0.5257540000000  0.4888900000000  0.4681060000000 1.0
C      1  0.5346860000000  0.4680460000000  0.4884170000000 1.0
C      1  0.5267770000000  0.4720720000000  0.5177820000000 1.0
C      1  0.4464960000000  0.5386240000000  0.4152580000000 1.0
C      1  0.4480160000000  0.4479870000000  0.4202560000000 1.0
C      1  0.4479830000000  0.4050580000000  0.4824500000000 1.0
C      1  0.4493090000000  0.4272960000000  0.5623570000000 1.0
C      1  0.4551760000000  0.5110480000000  0.5927320000000 1.0
C      1  0.4503970000000  0.5851600000000  0.5487640000000 1.0
C      1  0.4512850000000  0.5943540000000  0.4684260000000 1.0
C      1  0.5390380000000  0.5300270000000  0.5709650000000 1.0
C      1  0.5357650000000  0.5799360000000  0.5185450000000 1.0
C      1  0.5328890000000  0.5646130000000  0.4498230000000 1.0
C      1  0.5369770000000  0.4964900000000  0.4186520000000 1.0
C      1  0.5367520000000  0.4433010000000  0.4486810000000 1.0
C      1  0.5338920000000  0.4205970000000  0.5194670000000 1.0
C      1  0.5370970000000  0.4687350000000  0.5739600000000 1.0
C      1  0.5060730000000  0.5875110000000  0.4563910000000 1.0
C      1  0.5016160000000  0.5228160000000  0.4033420000000 1.0
C      1  0.5039000000000  0.4377300000000  0.4163310000000 1.0
C      1  0.5068480000000  0.4030480000000  0.5001960000000 1.0
C      1  0.5041980000000  0.4357440000000  0.5767960000000 1.0
C      1  0.5028020000000  0.5212850000000  0.6020190000000 1.0
C      1  0.5078360000000  0.5902010000000  0.5405720000000 1.0
C      1  0.5690020000000  0.5348770000000  0.4195520000000 1.0
C      1  0.5726850000000  0.4594140000000  0.4241920000000 1.0
C      1  0.5666680000000  0.4155190000000  0.4865530000000 1.0
C      1  0.5718510000000  0.4366530000000  0.5565040000000 1.0
C      1  0.5734290000000  0.5060210000000  0.5872180000000 1.0
C      1  0.5686290000000  0.5706350000000  0.5490520000000 1.0
C      1  0.5684900000000  0.5846310000000  0.4733810000000 1.0
C      1  0.5283690000000  0.5132060000000  0.6063840000000 1.0
C      1  0.5187300000000  0.5858790000000  0.5687710000000 1.0
C      1  0.5181560000000  0.6090990000000  0.4747140000000 1.0
C      1  0.5164880000000  0.5486620000000  0.4010070000000 1.0
C      1  0.5299040000000  0.4429510000000  0.4080430000000 1.0
C      1  0.5176590000000  0.3927840000000  0.4730600000000 1.0
C      1  0.5311460000000  0.4282960000000  0.5745130000000 1.0
C      1  0.4583350000000  0.4659920000000  0.4736090000000 1.0
C      1  0.4547370000000  0.4587150000000  0.5017930000000 1.0
C      1  0.4612240000000  0.4944730000000  0.5396410000000 1.0
C      1  0.4523670000000  0.5217230000000  0.5354290000000 1.0
C      1  0.4603230000000  0.5428210000000  0.5104230000000 1.0
C      1  0.4674940000000  0.5171710000000  0.4715680000000 1.0
C      1  0.4523570000000  0.4961620000000  0.4573080000000 1.0
C      1  0.4895840000000  0.5006300000000  0.5378060000000 1.0
C      1  0.4997030000000  0.5245770000000  0.5245590000000 1.0
C      1  0.4890520000000  0.5367580000000  0.5012620000000 1.0
C      1  0.4948330000000  0.5240670000000  0.4773000000000 1.0
C      1  0.4989100000000  0.4822910000000  0.4641320000000 1.0
C      1  0.4873770000000  0.4689490000000  0.4809070000000 1.0
C      1  0.4985730000000  0.4785710000000  0.5230000000000 1.0
C      1  0.4234520000000  0.5514420000000  0.4590660000000 1.0
C      1  0.4265560000000  0.4823680000000  0.4254520000000 1.0
C      1  0.4217000000000  0.4451860000000  0.4658550000000 1.0
C      1  0.4251300000000  0.4309170000000  0.5151510000000 1.0
C      1  0.4223930000000  0.4712610000000  0.5646600000000 1.0
C      1  0.4247780000000  0.5330170000000  0.5633260000000 1.0
C      1  0.4270700000000  0.5760320000000  0.5161120000000 1.0
C      1  0.3945800000000  0.5258520000000  0.5177230000000 1.0
C      1  0.3944790000000  0.5269120000000  0.4869490000000 1.0
C      1  0.3959990000000  0.5075410000000  0.4643910000000 1.0
C      1  0.3868980000000  0.4812520000000  0.4710930000000 1.0
C      1  0.3884760000000  0.4662300000000  0.4950460000000 1.0
C      1  0.3900610000000  0.4743060000000  0.5231670000000 1.0
C      1  0.3857320000000  0.5014040000000  0.5268760000000 1.0
C      1  0.4500240000000  0.5917560000000  0.5044110000000 1.0
C      1  0.4595160000000  0.5618840000000  0.4294060000000 1.0
C      1  0.4502880000000  0.4875720000000  0.4091850000000 1.0
C      1  0.4590070000000  0.4165220000000  0.4570780000000 1.0
C      1  0.4476470000000  0.4173160000000  0.5291380000000 1.0
C      1  0.4481630000000  0.4714530000000  0.5816070000000 1.0
C      1  0.4487360000000  0.5513020000000  0.5715660000000 1.0
C      1  0.5370120000000  0.6080200000000  0.5106490000000 1.0
C      1  0.5360950000000  0.5776140000000  0.4223260000000 1.0
C      1  0.5296260000000  0.4813070000000  0.3943620000000 1.0
C      1  0.5353020000000  0.4133610000000  0.4423240000000 1.0
C      1  0.5298510000000  0.4024570000000  0.5418400000000 1.0
C      1  0.5293640000000  0.4727050000000  0.6022150000000 1.0
C      1  0.5354850000000  0.5536830000000  0.5878160000000 1.0
C      1  0.4898350000000  0.5910650000000  0.4306480000000 1.0
C      1  0.4825230000000  0.5053960000000  0.3885210000000 1.0
C      1  0.4889140000000  0.4141960000000  0.4271600000000 1.0
C      1  0.4859720000000  0.3909930000000  0.5182930000000 1.0
C      1  0.4866570000000  0.4492290000000  0.5967860000000 1.0
C      1  0.4896750000000  0.5468200000000  0.5977380000000 1.0
C      1  0.4902570000000  0.6097990000000  0.5252060000000 1.0
C      1  0.5674700000000  0.4966850000000  0.4839100000000 1.0
C      1  0.4879590000000  0.4853600000000  0.5007980000000 1.0
C      1  0.5823670000000  0.5123630000000  0.5018640000000 1.0
C      1  0.4683920000000  0.5027700000000  0.4980200000000 1.0
C      1  0.4427280000000  0.4989550000000  0.4988240000000 1.0
C      1  0.4197030000000  0.4985050000000  0.4954290000000 1.0
END
