TITL C-2441167-4473-855 0.00274620759170317 125000 -5838.84908184233 0 0 41 (C1) n - 1
REM
REM in /home/bkarasulu/work/CARBON/AIRSS/Generating-Clusters/ReaxFF-fromJPCA2015/Units_Real/with-SteepDescent/Higher-Symm
REM
REM
REM
REM
REM
REM ./C.cell (1df0a924f5614ab8850e4351716899ee)
REM
REM compiler GCC version 9.2.1 20190827 (Red Hat 9.2.1-1)
REM options -cpp -mtune=generic -march=x86-64 -g -O0 -fpre-include=/usr/include/finclude/math-vector-fortran.h
REM seed 6688905 -1025681609 -1053720816 1243986804 2135429624 2042882847 -901604964 93728617 1641640277 287599545 -360798892 1125463529 -964938796 -1659398965 -25551547 -1258296388 -430165978 749253243 2086216343 -76584950 -1711628131 105039866 837301936 2005223670 -1548140592 1504676903 1268976690 -774641016 1209861216 2056365114 -1209779728 -2062093920 1090750664
REM
CELL 1.54180   50.00000   50.00000   50.00000   90.00000   90.00000   90.00000
LATT -1
SFAC C  
C      1  0.4543180000000  0.5180330000000  0.4878600000000 1.0
C      1  0.5450840000000  0.5180650000000  0.4878200000000 1.0
C      1  0.5336120000000  0.4978850000000  0.4531950000000 1.0
C      1  0.4658620000000  0.4978720000000  0.4532410000000 1.0
C      1  0.5285050000000  0.4417160000000  0.5084410000000 1.0
C      1  0.4708310000000  0.4417550000000  0.5084560000000 1.0
C      1  0.5272900000000  0.4721320000000  0.4684350000000 1.0
C      1  0.4721120000000  0.4720840000000  0.4684570000000 1.0
C      1  0.4740710000000  0.5271360000000  0.5515620000000 1.0
C      1  0.5251600000000  0.5270180000000  0.5515920000000 1.0
C      1  0.4585930000000  0.5012270000000  0.5488210000000 1.0
C      1  0.5407410000000  0.5011680000000  0.5487820000000 1.0
C      1  0.5126460000000  0.4939370000000  0.5108460000000 1.0
C      1  0.4868270000000  0.4939040000000  0.5109020000000 1.0
C      1  0.5437370000000  0.4807200000000  0.5142960000000 1.0
C      1  0.4557050000000  0.4807820000000  0.5143070000000 1.0
C      1  0.4849100000000  0.5639080000000  0.5142220000000 1.0
C      1  0.5143710000000  0.5638880000000  0.5142920000000 1.0
C      1  0.5143300000000  0.4531750000000  0.5328970000000 1.0
C      1  0.4850130000000  0.4532060000000  0.5329070000000 1.0
C      1  0.5140350000000  0.5441600000000  0.4659560000000 1.0
C      1  0.4854810000000  0.5441390000000  0.4659140000000 1.0
C      1  0.4678600000000  0.5444110000000  0.5282220000000 1.0
C      1  0.5313420000000  0.5442970000000  0.5282460000000 1.0
C      1  0.5422380000000  0.4607220000000  0.4915500000000 1.0
C      1  0.4570950000000  0.4607730000000  0.4915890000000 1.0
C      1  0.4661370000000  0.5231010000000  0.4664570000000 1.0
C      1  0.5334010000000  0.5231470000000  0.4663690000000 1.0
C      1  0.5146090000000  0.4983180000000  0.4304360000000 1.0
C      1  0.4848630000000  0.4983300000000  0.4304870000000 1.0
C      1  0.5135470000000  0.4322880000000  0.4863610000000 1.0
C      1  0.4857460000000  0.4323280000000  0.4863340000000 1.0
C      1  0.5327990000000  0.4732730000000  0.5424310000000 1.0
C      1  0.4665900000000  0.4733380000000  0.5424650000000 1.0
C      1  0.4421020000000  0.5040680000000  0.5238940000000 1.0
C      1  0.5572450000000  0.5040540000000  0.5238530000000 1.0
C      1  0.4848880000000  0.5671090000000  0.4844910000000 1.0
C      1  0.5145420000000  0.5671130000000  0.4845610000000 1.0
C      1  0.4483470000000  0.5277560000000  0.5116010000000 1.0
C      1  0.5509160000000  0.5277120000000  0.5116170000000 1.0
C      1  0.4997090000000  0.4657400000000  0.4696110000000 1.0
END
