TITL C-2441168-9922-144 0.0696861858645838 125000 -26192.9832654081 0 0 188 (C1) n - 1
REM
REM in /home/bkarasulu/work/CARBON/AIRSS/Generating-Clusters/ReaxFF-fromJPCA2015/Units_Real/with-SteepDescent/Higher-Symm
REM
REM
REM
REM
REM
REM ./C.cell (1df0a924f5614ab8850e4351716899ee)
REM
REM compiler GCC version 9.2.1 20190827 (Red Hat 9.2.1-1)
REM options -cpp -mtune=generic -march=x86-64 -g -O0 -fpre-include=/usr/include/finclude/math-vector-fortran.h
REM seed 948075632 235091240 1960655784 -1488583170 1473877151 -1959789918 -273217999 1473676201 682023028 -1172414566 447827565 -753556710 -713447426 738755948 -1031354209 686322287 -776428095 -1095595642 1780724010 -907125470 -190222237 824448611 -284466038 -1985881736 473191542 -1348593928 -1939445883 1990996856 601567738 1211478990 460351288 -525107938 735142293
REM
CELL 1.54180   50.00000   50.00000   50.00000   90.00000   90.00000   90.00000
LATT -1
SFAC C  
C      1  0.4234780000000  0.5205040000000  0.4240550000000 1.0
C      1  0.5736650000000  0.4798070000000  0.5853190000000 1.0
C      1  0.4930960000000  0.5115910000000  0.4008770000000 1.0
C      1  0.5026260000000  0.4918590000000  0.5924740000000 1.0
C      1  0.5531660000000  0.5935740000000  0.4631360000000 1.0
C      1  0.4460240000000  0.4063340000000  0.5326280000000 1.0
C      1  0.4303200000000  0.4677300000000  0.4243140000000 1.0
C      1  0.5695550000000  0.5317960000000  0.5755060000000 1.0
C      1  0.5051070000000  0.5705820000000  0.4799540000000 1.0
C      1  0.4841670000000  0.4300980000000  0.5215770000000 1.0
C      1  0.5562750000000  0.4185380000000  0.5093000000000 1.0
C      1  0.4508640000000  0.5903080000000  0.4993260000000 1.0
C      1  0.5586010000000  0.5770340000000  0.4854040000000 1.0
C      1  0.4320730000000  0.4215510000000  0.5130670000000 1.0
C      1  0.4352920000000  0.4776100000000  0.4758230000000 1.0
C      1  0.5591980000000  0.5205560000000  0.5243290000000 1.0
C      1  0.5124450000000  0.4094890000000  0.4294740000000 1.0
C      1  0.4945460000000  0.5948630000000  0.5628330000000 1.0
C      1  0.5368510000000  0.5002220000000  0.4017140000000 1.0
C      1  0.4600280000000  0.5013350000000  0.6102080000000 1.0
C      1  0.5977490000000  0.4943970000000  0.4385920000000 1.0
C      1  0.4053000000000  0.5070360000000  0.5598880000000 1.0
C      1  0.4899080000000  0.4888190000000  0.4633680000000 1.0
C      1  0.5088540000000  0.5162200000000  0.5337370000000 1.0
C      1  0.5503310000000  0.4554200000000  0.4162310000000 1.0
C      1  0.4527550000000  0.5416270000000  0.5786590000000 1.0
C      1  0.4648720000000  0.4614440000000  0.5054060000000 1.0
C      1  0.5317320000000  0.5373730000000  0.4939930000000 1.0
C      1  0.4919120000000  0.4995900000000  0.5168850000000 1.0
C      1  0.5030350000000  0.4872740000000  0.4903770000000 1.0
C      1  0.5585580000000  0.4349250000000  0.4358360000000 1.0
C      1  0.4370130000000  0.5649750000000  0.5613790000000 1.0
C      1  0.4554840000000  0.5200490000000  0.4562390000000 1.0
C      1  0.5406450000000  0.4865800000000  0.5521310000000 1.0
C      1  0.5137340000000  0.5619420000000  0.5329320000000 1.0
C      1  0.4865580000000  0.4415790000000  0.4662430000000 1.0
C      1  0.4315580000000  0.5538310000000  0.4809080000000 1.0
C      1  0.5694160000000  0.4474590000000  0.5375750000000 1.0
C      1  0.5719320000000  0.4424930000000  0.4744800000000 1.0
C      1  0.4301170000000  0.5783540000000  0.5229280000000 1.0
C      1  0.5169480000000  0.5546660000000  0.5631460000000 1.0
C      1  0.4823940000000  0.4494190000000  0.4371060000000 1.0
C      1  0.4117770000000  0.5421620000000  0.4409450000000 1.0
C      1  0.5858670000000  0.4552540000000  0.5750160000000 1.0
C      1  0.5857350000000  0.4810480000000  0.5159100000000 1.0
C      1  0.4368830000000  0.5248170000000  0.4775440000000 1.0
C      1  0.4028000000000  0.5583870000000  0.4981540000000 1.0
C      1  0.5807190000000  0.4355780000000  0.5016670000000 1.0
C      1  0.3960980000000  0.5150880000000  0.5151460000000 1.0
C      1  0.6051780000000  0.4780170000000  0.4798250000000 1.0
C      1  0.5923150000000  0.4669900000000  0.5487560000000 1.0
C      1  0.3959820000000  0.5265290000000  0.4594820000000 1.0
C      1  0.5641450000000  0.5606810000000  0.5709270000000 1.0
C      1  0.4367410000000  0.4390400000000  0.4261050000000 1.0
C      1  0.4878300000000  0.5097490000000  0.6104910000000 1.0
C      1  0.5109800000000  0.4929850000000  0.3885100000000 1.0
C      1  0.4684830000000  0.5417900000000  0.5296590000000 1.0
C      1  0.5311440000000  0.4610310000000  0.4759940000000 1.0
C      1  0.5411030000000  0.5274770000000  0.5693940000000 1.0
C      1  0.4586110000000  0.4745700000000  0.4304340000000 1.0
C      1  0.4738070000000  0.4356940000000  0.5641710000000 1.0
C      1  0.5448160000000  0.5836620000000  0.4369040000000 1.0
C      1  0.5806300000000  0.5560000000000  0.4738470000000 1.0
C      1  0.4144160000000  0.4433110000000  0.5247360000000 1.0
C      1  0.5968340000000  0.4980970000000  0.5497830000000 1.0
C      1  0.3967880000000  0.4990650000000  0.4495070000000 1.0
C      1  0.5676830000000  0.5294040000000  0.4251300000000 1.0
C      1  0.4417280000000  0.4758430000000  0.5793670000000 1.0
C      1  0.5169100000000  0.3952020000000  0.5330000000000 1.0
C      1  0.4909740000000  0.5945250000000  0.4679940000000 1.0
C      1  0.4366610000000  0.4831810000000  0.5318840000000 1.0
C      1  0.5609580000000  0.4947540000000  0.4635540000000 1.0
C      1  0.4480470000000  0.4067040000000  0.4786160000000 1.0
C      1  0.5567390000000  0.5909330000000  0.5151030000000 1.0
C      1  0.5846210000000  0.4419510000000  0.4484280000000 1.0
C      1  0.4192640000000  0.5553640000000  0.5411630000000 1.0
C      1  0.5276600000000  0.4438610000000  0.5715250000000 1.0
C      1  0.4676570000000  0.5504140000000  0.4172910000000 1.0
C      1  0.4566340000000  0.4716560000000  0.6045370000000 1.0
C      1  0.5458200000000  0.5330950000000  0.4067030000000 1.0
C      1  0.5001210000000  0.5104800000000  0.4298800000000 1.0
C      1  0.4935540000000  0.4931400000000  0.5647190000000 1.0
C      1  0.5587540000000  0.4820440000000  0.4085110000000 1.0
C      1  0.4414600000000  0.5177040000000  0.5955720000000 1.0
C      1  0.4595700000000  0.4326710000000  0.5041410000000 1.0
C      1  0.5318000000000  0.5642150000000  0.4840050000000 1.0
C      1  0.3937010000000  0.5324620000000  0.4895850000000 1.0
C      1  0.5992560000000  0.4599140000000  0.5017260000000 1.0
C      1  0.5006610000000  0.5272290000000  0.4541520000000 1.0
C      1  0.4986210000000  0.4756070000000  0.5415670000000 1.0
C      1  0.5233690000000  0.5969000000000  0.5608950000000 1.0
C      1  0.4820980000000  0.4068980000000  0.4354270000000 1.0
C      1  0.5242360000000  0.5248370000000  0.4685440000000 1.0
C      1  0.4789990000000  0.4524150000000  0.5403100000000 1.0
C      1  0.4464370000000  0.5838460000000  0.4494400000000 1.0
C      1  0.5542040000000  0.4092070000000  0.5592570000000 1.0
C      1  0.5258230000000  0.5514060000000  0.4038230000000 1.0
C      1  0.4793770000000  0.4563080000000  0.5984940000000 1.0
C      1  0.5239740000000  0.6045170000000  0.4366010000000 1.0
C      1  0.4774780000000  0.4061220000000  0.5593430000000 1.0
C      1  0.5868700000000  0.5201720000000  0.5316750000000 1.0
C      1  0.4060210000000  0.4838210000000  0.4728250000000 1.0
C      1  0.4009790000000  0.4561320000000  0.4800790000000 1.0
C      1  0.5907540000000  0.5477820000000  0.5204540000000 1.0
C      1  0.3983650000000  0.4817670000000  0.5475520000000 1.0
C      1  0.6006340000000  0.5193300000000  0.4536600000000 1.0
C      1  0.5158020000000  0.4382990000000  0.4679370000000 1.0
C      1  0.4850650000000  0.5660490000000  0.5304940000000 1.0
C      1  0.5241990000000  0.5634070000000  0.4289980000000 1.0
C      1  0.4962990000000  0.4444050000000  0.5811160000000 1.0
C      1  0.4597100000000  0.5973060000000  0.4726980000000 1.0
C      1  0.5460170000000  0.4014230000000  0.5318400000000 1.0
C      1  0.5997200000000  0.4688670000000  0.4533820000000 1.0
C      1  0.4061280000000  0.5278330000000  0.5389210000000 1.0
C      1  0.4441700000000  0.4822230000000  0.5038000000000 1.0
C      1  0.5694630000000  0.5079980000000  0.4878140000000 1.0
C      1  0.5562490000000  0.4664040000000  0.4646380000000 1.0
C      1  0.4577040000000  0.5292120000000  0.5513510000000 1.0
C      1  0.4769420000000  0.4090760000000  0.4685150000000 1.0
C      1  0.5280930000000  0.5937910000000  0.5274390000000 1.0
C      1  0.4844270000000  0.5525010000000  0.4888290000000 1.0
C      1  0.5063670000000  0.4414090000000  0.5076880000000 1.0
C      1  0.4768460000000  0.5524360000000  0.5917030000000 1.0
C      1  0.5237240000000  0.4514690000000  0.4057260000000 1.0
C      1  0.4483830000000  0.5855240000000  0.5432960000000 1.0
C      1  0.5378270000000  0.4133570000000  0.4448310000000 1.0
C      1  0.5607920000000  0.5475220000000  0.5187800000000 1.0
C      1  0.4289980000000  0.4508950000000  0.4751390000000 1.0
C      1  0.4645610000000  0.5642860000000  0.4412960000000 1.0
C      1  0.5401430000000  0.4472790000000  0.5447530000000 1.0
C      1  0.4239860000000  0.4997610000000  0.5818310000000 1.0
C      1  0.5761070000000  0.5014070000000  0.4206580000000 1.0
C      1  0.4217440000000  0.4626630000000  0.5458340000000 1.0
C      1  0.5825260000000  0.5417590000000  0.4482590000000 1.0
C      1  0.4145240000000  0.4926930000000  0.4264790000000 1.0
C      1  0.5839980000000  0.5056080000000  0.5748650000000 1.0
C      1  0.5730100000000  0.5819470000000  0.5362340000000 1.0
C      1  0.4351130000000  0.4087820000000  0.4538730000000 1.0
C      1  0.4652300000000  0.4887310000000  0.5672910000000 1.0
C      1  0.5260190000000  0.5003450000000  0.4287010000000 1.0
C      1  0.5274710000000  0.4699760000000  0.5345060000000 1.0
C      1  0.4790280000000  0.5297630000000  0.4713460000000 1.0
C      1  0.5602230000000  0.4857330000000  0.5034910000000 1.0
C      1  0.4469380000000  0.5110120000000  0.4997900000000 1.0
C      1  0.4599640000000  0.4901570000000  0.4569110000000 1.0
C      1  0.5373180000000  0.5122500000000  0.5441690000000 1.0
C      1  0.5065790000000  0.4008100000000  0.5596430000000 1.0
C      1  0.5012160000000  0.5852120000000  0.4359040000000 1.0
C      1  0.5975940000000  0.5428600000000  0.4922960000000 1.0
C      1  0.3968730000000  0.4594960000000  0.5087570000000 1.0
C      1  0.4759340000000  0.4553220000000  0.3966050000000 1.0
C      1  0.5245810000000  0.5460810000000  0.6032140000000 1.0
C      1  0.4994470000000  0.3979460000000  0.4845310000000 1.0
C      1  0.5053860000000  0.6047770000000  0.5132490000000 1.0
C      1  0.5303610000000  0.4924060000000  0.5986490000000 1.0
C      1  0.4650710000000  0.5082590000000  0.3985750000000 1.0
C      1  0.4704620000000  0.3937470000000  0.5336880000000 1.0
C      1  0.5306550000000  0.6116770000000  0.4648000000000 1.0
C      1  0.4655650000000  0.4341360000000  0.4173310000000 1.0
C      1  0.5362360000000  0.5652440000000  0.5828830000000 1.0
C      1  0.3904410000000  0.4866210000000  0.5203410000000 1.0
C      1  0.5994970000000  0.5129470000000  0.4825070000000 1.0
C      1  0.4804190000000  0.5940590000000  0.5353420000000 1.0
C      1  0.5239250000000  0.4096740000000  0.4709610000000 1.0
C      1  0.4952960000000  0.3926490000000  0.5131460000000 1.0
C      1  0.5086580000000  0.6121200000000  0.4855580000000 1.0
C      1  0.4531900000000  0.5015160000000  0.5453690000000 1.0
C      1  0.5390300000000  0.5076300000000  0.4522000000000 1.0
C      1  0.4942890000000  0.5682030000000  0.5759930000000 1.0
C      1  0.5063090000000  0.4373730000000  0.4233360000000 1.0
C      1  0.4629010000000  0.4800580000000  0.4015530000000 1.0
C      1  0.5358740000000  0.5203150000000  0.5972430000000 1.0
C      1  0.5747060000000  0.4303880000000  0.5605720000000 1.0
C      1  0.4246400000000  0.5650740000000  0.4537540000000 1.0
C      1  0.5323740000000  0.4761730000000  0.5014130000000 1.0
C      1  0.4713130000000  0.5200070000000  0.5097160000000 1.0
C      1  0.5113960000000  0.5383590000000  0.5152720000000 1.0
C      1  0.4890650000000  0.4606590000000  0.4910030000000 1.0
C      1  0.4523620000000  0.5256250000000  0.4180750000000 1.0
C      1  0.5445680000000  0.4763620000000  0.5793500000000 1.0
C      1  0.4371130000000  0.4361140000000  0.4537510000000 1.0
C      1  0.5547580000000  0.5621950000000  0.5432370000000 1.0
C      1  0.4763510000000  0.5778360000000  0.4226910000000 1.0
C      1  0.5289350000000  0.4145740000000  0.5732050000000 1.0
C      1  0.5324010000000  0.4322920000000  0.5071790000000 1.0
C      1  0.4578270000000  0.5629000000000  0.4953110000000 1.0
C      1  0.5030070000000  0.4653600000000  0.3915620000000 1.0
C      1  0.4962290000000  0.5376920000000  0.6062180000000 1.0
END
