TITL C-2441167-4473-410 0.00512855040069498 125000 -9949.29447249534 0 0 69 (C1) n - 1
REM
REM in /home/bkarasulu/work/CARBON/AIRSS/Generating-Clusters/ReaxFF-fromJPCA2015/Units_Real/with-SteepDescent/Higher-Symm
REM
REM
REM
REM
REM
REM ./C.cell (1df0a924f5614ab8850e4351716899ee)
REM
REM compiler GCC version 9.2.1 20190827 (Red Hat 9.2.1-1)
REM options -cpp -mtune=generic -march=x86-64 -g -O0 -fpre-include=/usr/include/finclude/math-vector-fortran.h
REM seed -1711393563 1245381615 -323220337 568870889 -1182125863 1540587873 486233152 1665571293 1162466637 737186844 442806308 -919831278 -262567809 1154886276 -326835206 -1188566936 1330279297 1089594748 1498292394 -637426017 1911486487 4709790 -1806135074 -2053908623 518827594 1591429626 -1201902424 1352841386 -361931244 -1776299727 128462748 -694733400 456396251
REM
CELL 1.54180   50.00000   50.00000   50.00000   90.00000   90.00000   90.00000
LATT -1
SFAC C  
C      1  0.4720970000000  0.5486200000000  0.5834250000000 1.0
C      1  0.5292050000000  0.5518810000000  0.4174660000000 1.0
C      1  0.5248530000000  0.5439950000000  0.5830460000000 1.0
C      1  0.4674770000000  0.5397610000000  0.4199180000000 1.0
C      1  0.5568990000000  0.4759250000000  0.4723800000000 1.0
C      1  0.4397160000000  0.4747190000000  0.5266120000000 1.0
C      1  0.4358840000000  0.4752250000000  0.4740430000000 1.0
C      1  0.5599370000000  0.4747980000000  0.5256630000000 1.0
C      1  0.4821170000000  0.5574420000000  0.4788570000000 1.0
C      1  0.5139080000000  0.5607990000000  0.5221040000000 1.0
C      1  0.5217560000000  0.5653720000000  0.4823200000000 1.0
C      1  0.4874670000000  0.5594470000000  0.5223430000000 1.0
C      1  0.5284940000000  0.4674080000000  0.5145990000000 1.0
C      1  0.4679690000000  0.4659880000000  0.4833390000000 1.0
C      1  0.4696900000000  0.4656600000000  0.5158440000000 1.0
C      1  0.5266800000000  0.4678090000000  0.4838760000000 1.0
C      1  0.5284310000000  0.4705800000000  0.5683770000000 1.0
C      1  0.4996700000000  0.4671590000000  0.4294180000000 1.0
C      1  0.4668130000000  0.4818290000000  0.5719430000000 1.0
C      1  0.5283300000000  0.4776500000000  0.4258300000000 1.0
C      1  0.5204390000000  0.5178450000000  0.4844120000000 1.0
C      1  0.4737980000000  0.5147990000000  0.5147840000000 1.0
C      1  0.4716050000000  0.5152220000000  0.4859270000000 1.0
C      1  0.5232130000000  0.5159370000000  0.5140690000000 1.0
C      1  0.4683840000000  0.5149470000000  0.4245250000000 1.0
C      1  0.5320670000000  0.5189150000000  0.5777150000000 1.0
C      1  0.5317820000000  0.5268000000000  0.4243950000000 1.0
C      1  0.4679810000000  0.5235450000000  0.5775980000000 1.0
C      1  0.5661430000000  0.5019580000000  0.4859270000000 1.0
C      1  0.4318300000000  0.5017430000000  0.5155230000000 1.0
C      1  0.4289540000000  0.5035140000000  0.4877990000000 1.0
C      1  0.5669930000000  0.5016090000000  0.5140730000000 1.0
C      1  0.5125570000000  0.4905720000000  0.5224320000000 1.0
C      1  0.4835200000000  0.4905390000000  0.4756080000000 1.0
C      1  0.4851520000000  0.4892090000000  0.5226810000000 1.0
C      1  0.5113430000000  0.4912770000000  0.4766710000000 1.0
C      1  0.5503400000000  0.5151490000000  0.4461520000000 1.0
C      1  0.4468580000000  0.5144870000000  0.5571210000000 1.0
C      1  0.4437640000000  0.5162010000000  0.4437020000000 1.0
C      1  0.5507530000000  0.5104640000000  0.5551350000000 1.0
C      1  0.4361640000000  0.4905680000000  0.4500130000000 1.0
C      1  0.5517900000000  0.4820780000000  0.5543500000000 1.0
C      1  0.5495100000000  0.4867820000000  0.4447200000000 1.0
C      1  0.4440980000000  0.4856090000000  0.5560610000000 1.0
C      1  0.4556580000000  0.5541350000000  0.4875860000000 1.0
C      1  0.5412410000000  0.5546400000000  0.5166530000000 1.0
C      1  0.5471050000000  0.5544810000000  0.4882970000000 1.0
C      1  0.4603730000000  0.5541780000000  0.5166130000000 1.0
C      1  0.5149140000000  0.4920280000000  0.5815740000000 1.0
C      1  0.4901230000000  0.4919160000000  0.4171450000000 1.0
C      1  0.4869970000000  0.4959950000000  0.5837830000000 1.0
C      1  0.5170720000000  0.5008000000000  0.4121480000000 1.0
C      1  0.4853190000000  0.4419130000000  0.5282660000000 1.0
C      1  0.5125420000000  0.4405080000000  0.4764520000000 1.0
C      1  0.5148040000000  0.4440600000000  0.5283300000000 1.0
C      1  0.4834230000000  0.4438740000000  0.4706450000000 1.0
C      1  0.4481960000000  0.5249270000000  0.5287400000000 1.0
C      1  0.5522720000000  0.5259580000000  0.4740480000000 1.0
C      1  0.5496340000000  0.5234330000000  0.5276190000000 1.0
C      1  0.4453730000000  0.5260870000000  0.4745310000000 1.0
C      1  0.4860220000000  0.4361170000000  0.5579850000000 1.0
C      1  0.5159490000000  0.4263500000000  0.4500810000000 1.0
C      1  0.5156190000000  0.4454060000000  0.5574910000000 1.0
C      1  0.4901130000000  0.4417220000000  0.4417840000000 1.0
C      1  0.4161810000000  0.4521130000000  0.4866440000000 1.0
C      1  0.5781200000000  0.4519590000000  0.5115620000000 1.0
C      1  0.5766490000000  0.4529040000000  0.4835300000000 1.0
C      1  0.4196640000000  0.4527820000000  0.5144470000000 1.0
C      1  0.5057720000000  0.5442490000000  0.4724160000000 1.0
END
