TITL C-2441165-58-1355 0.0653558060530727 125000 -22557.3760883515 0 0 164 (C1) n - 1
REM
REM in /home/bkarasulu/work/CARBON/AIRSS/Generating-Clusters/ReaxFF-fromJPCA2015/Units_Real/with-SteepDescent/Higher-Symm
REM
REM
REM
REM
REM
REM ./C.cell (1df0a924f5614ab8850e4351716899ee)
REM
REM compiler GCC version 9.2.1 20190827 (Red Hat 9.2.1-1)
REM options -cpp -mtune=generic -march=x86-64 -g -O0 -fpre-include=/usr/include/finclude/math-vector-fortran.h
REM seed 1155069012 1102027063 1660206705 -916062389 -1034116028 1078333242 -11004098 1272791542 -1279987160 -1410099218 -242434238 -1220349937 -1529274407 -344806726 708633672 -1438523276 762048939 -2142710771 755382179 -2060277037 -951561224 650961852 -1781973722 866167878 -911042207 -1064504711 -1311490980 2018344620 227300353 1899907183 -693809796 -789563080 -1812122927
REM
CELL 1.54180   50.00000   50.00000   50.00000   90.00000   90.00000   90.00000
LATT -1
SFAC C  
C      1  0.5148130000000  0.6180450000000  0.5144090000000 1.0
C      1  0.4863080000000  0.6137930000000  0.4845380000000 1.0
C      1  0.4860330000000  0.6153550000000  0.5139990000000 1.0
C      1  0.5155190000000  0.6174020000000  0.4847830000000 1.0
C      1  0.4330710000000  0.4246300000000  0.5138690000000 1.0
C      1  0.5686500000000  0.4247670000000  0.4863330000000 1.0
C      1  0.5633680000000  0.4334550000000  0.5123920000000 1.0
C      1  0.4320050000000  0.4240300000000  0.4845260000000 1.0
C      1  0.4903160000000  0.5385740000000  0.4871950000000 1.0
C      1  0.5137410000000  0.5497440000000  0.5238110000000 1.0
C      1  0.5138620000000  0.5485600000000  0.4767590000000 1.0
C      1  0.4869730000000  0.5470880000000  0.5141780000000 1.0
C      1  0.4743810000000  0.4908870000000  0.5187980000000 1.0
C      1  0.5279460000000  0.4931120000000  0.4880620000000 1.0
C      1  0.5306780000000  0.4852650000000  0.5162740000000 1.0
C      1  0.4746940000000  0.4914790000000  0.4899750000000 1.0
C      1  0.4475230000000  0.5230690000000  0.5144340000000 1.0
C      1  0.5512130000000  0.5205160000000  0.4851320000000 1.0
C      1  0.5522680000000  0.5199140000000  0.5147940000000 1.0
C      1  0.4472360000000  0.5257200000000  0.4859380000000 1.0
C      1  0.5781080000000  0.5002750000000  0.4108630000000 1.0
C      1  0.4208430000000  0.4994040000000  0.5873890000000 1.0
C      1  0.4192510000000  0.4934990000000  0.4128400000000 1.0
C      1  0.5773750000000  0.4987320000000  0.5830760000000 1.0
C      1  0.4448960000000  0.5372180000000  0.5878100000000 1.0
C      1  0.5557850000000  0.5355780000000  0.4133120000000 1.0
C      1  0.5537760000000  0.5349710000000  0.5867610000000 1.0
C      1  0.4437430000000  0.5365040000000  0.4168900000000 1.0
C      1  0.5714740000000  0.5622660000000  0.5592800000000 1.0
C      1  0.4232550000000  0.5627770000000  0.4576370000000 1.0
C      1  0.4242730000000  0.5619570000000  0.5576250000000 1.0
C      1  0.5719620000000  0.5626940000000  0.4410360000000 1.0
C      1  0.4829920000000  0.5216410000000  0.4442860000000 1.0
C      1  0.5128150000000  0.5140050000000  0.5488410000000 1.0
C      1  0.5167970000000  0.5208560000000  0.4437830000000 1.0
C      1  0.4838340000000  0.5192920000000  0.5507660000000 1.0
C      1  0.5190960000000  0.5932190000000  0.4680360000000 1.0
C      1  0.4822170000000  0.5904930000000  0.5307060000000 1.0
C      1  0.4773220000000  0.5894970000000  0.4708670000000 1.0
C      1  0.5180580000000  0.5942100000000  0.5332860000000 1.0
C      1  0.5764950000000  0.4429770000000  0.5536070000000 1.0
C      1  0.4356140000000  0.4381050000000  0.4458870000000 1.0
C      1  0.4332380000000  0.4409370000000  0.5519270000000 1.0
C      1  0.5645440000000  0.4407980000000  0.4436660000000 1.0
C      1  0.4676960000000  0.4895100000000  0.3954770000000 1.0
C      1  0.5321970000000  0.4902330000000  0.6044190000000 1.0
C      1  0.5301920000000  0.4848980000000  0.3995320000000 1.0
C      1  0.4702600000000  0.4864750000000  0.5964480000000 1.0
C      1  0.4766760000000  0.4062130000000  0.4730670000000 1.0
C      1  0.5218860000000  0.4112540000000  0.5270520000000 1.0
C      1  0.5238800000000  0.4073610000000  0.4748380000000 1.0
C      1  0.4761380000000  0.4051110000000  0.5257770000000 1.0
C      1  0.5167420000000  0.4509390000000  0.4189840000000 1.0
C      1  0.4814310000000  0.4504410000000  0.5809690000000 1.0
C      1  0.4879980000000  0.4487250000000  0.4207120000000 1.0
C      1  0.5103820000000  0.4475660000000  0.5834070000000 1.0
C      1  0.5169170000000  0.5628820000000  0.4272590000000 1.0
C      1  0.4851800000000  0.5613550000000  0.5706130000000 1.0
C      1  0.4887040000000  0.5632690000000  0.4249740000000 1.0
C      1  0.5149400000000  0.5613920000000  0.5713160000000 1.0
C      1  0.4753500000000  0.5718350000000  0.5116050000000 1.0
C      1  0.5241780000000  0.5726810000000  0.4871340000000 1.0
C      1  0.5251500000000  0.5729470000000  0.5139950000000 1.0
C      1  0.4583790000000  0.5759900000000  0.4888960000000 1.0
C      1  0.5993700000000  0.4600510000000  0.5108740000000 1.0
C      1  0.4046200000000  0.4638590000000  0.4826070000000 1.0
C      1  0.4037730000000  0.4623670000000  0.5115990000000 1.0
C      1  0.5965650000000  0.4608410000000  0.4813740000000 1.0
C      1  0.4852150000000  0.5133930000000  0.5979430000000 1.0
C      1  0.5143190000000  0.5115180000000  0.3987690000000 1.0
C      1  0.5138200000000  0.5152090000000  0.6003510000000 1.0
C      1  0.4860960000000  0.5134900000000  0.3983450000000 1.0
C      1  0.5552910000000  0.4694720000000  0.5113070000000 1.0
C      1  0.4506920000000  0.4756110000000  0.4878320000000 1.0
C      1  0.4473640000000  0.4756160000000  0.5177590000000 1.0
C      1  0.5516340000000  0.4766670000000  0.4825920000000 1.0
C      1  0.4720530000000  0.4532970000000  0.4659240000000 1.0
C      1  0.5376750000000  0.4526010000000  0.5519720000000 1.0
C      1  0.5279480000000  0.4537820000000  0.4664880000000 1.0
C      1  0.4711030000000  0.4509840000000  0.5340680000000 1.0
C      1  0.4402800000000  0.5150580000000  0.5668470000000 1.0
C      1  0.5585750000000  0.5139550000000  0.4324000000000 1.0
C      1  0.5549780000000  0.5119680000000  0.5677920000000 1.0
C      1  0.4395920000000  0.5109280000000  0.4310230000000 1.0
C      1  0.4161140000000  0.4414070000000  0.4673410000000 1.0
C      1  0.5890620000000  0.4384340000000  0.5291170000000 1.0
C      1  0.5812980000000  0.4395260000000  0.4668170000000 1.0
C      1  0.4151010000000  0.4407920000000  0.5296390000000 1.0
C      1  0.5830820000000  0.5132890000000  0.4503320000000 1.0
C      1  0.4136460000000  0.5141750000000  0.5489780000000 1.0
C      1  0.4164690000000  0.5094160000000  0.4506530000000 1.0
C      1  0.5887740000000  0.5127140000000  0.5459960000000 1.0
C      1  0.4740980000000  0.5388830000000  0.5874210000000 1.0
C      1  0.5260510000000  0.5357050000000  0.4145020000000 1.0
C      1  0.5252340000000  0.5401280000000  0.5894020000000 1.0
C      1  0.4745430000000  0.5374140000000  0.4161520000000 1.0
C      1  0.5137810000000  0.4352820000000  0.4844960000000 1.0
C      1  0.4820770000000  0.4334630000000  0.5145940000000 1.0
C      1  0.4832330000000  0.4343070000000  0.4838750000000 1.0
C      1  0.5119150000000  0.4368750000000  0.5143310000000 1.0
C      1  0.5576300000000  0.4808820000000  0.5953790000000 1.0
C      1  0.4428400000000  0.4785060000000  0.4058170000000 1.0
C      1  0.4416830000000  0.4792160000000  0.5901770000000 1.0
C      1  0.5589390000000  0.4788650000000  0.4065960000000 1.0
C      1  0.4704420000000  0.5307000000000  0.5290070000000 1.0
C      1  0.5312070000000  0.5303520000000  0.4663580000000 1.0
C      1  0.5292180000000  0.5278620000000  0.5305460000000 1.0
C      1  0.4712820000000  0.5298450000000  0.4706790000000 1.0
C      1  0.5185250000000  0.4763640000000  0.5813380000000 1.0
C      1  0.4812790000000  0.4775370000000  0.4191860000000 1.0
C      1  0.4834800000000  0.4779200000000  0.5756240000000 1.0
C      1  0.5172570000000  0.4788230000000  0.4212350000000 1.0
C      1  0.5496150000000  0.4041500000000  0.4877120000000 1.0
C      1  0.4505280000000  0.4006880000000  0.5134880000000 1.0
C      1  0.4505680000000  0.4012650000000  0.4842890000000 1.0
C      1  0.5484550000000  0.4076820000000  0.5167680000000 1.0
C      1  0.4845890000000  0.4794820000000  0.4640750000000 1.0
C      1  0.5167750000000  0.4636630000000  0.5314200000000 1.0
C      1  0.5166370000000  0.4800860000000  0.4644260000000 1.0
C      1  0.4885390000000  0.4734730000000  0.5363570000000 1.0
C      1  0.4197030000000  0.4902190000000  0.4865910000000 1.0
C      1  0.5824600000000  0.4837440000000  0.5123130000000 1.0
C      1  0.5799920000000  0.4858600000000  0.4826860000000 1.0
C      1  0.4193340000000  0.4865110000000  0.5167500000000 1.0
C      1  0.5272440000000  0.4305360000000  0.5679750000000 1.0
C      1  0.4702680000000  0.4359950000000  0.4409450000000 1.0
C      1  0.4665770000000  0.4356280000000  0.5582440000000 1.0
C      1  0.5328370000000  0.4372200000000  0.4410230000000 1.0
C      1  0.4870380000000  0.4103220000000  0.4466760000000 1.0
C      1  0.5118490000000  0.4091130000000  0.5542830000000 1.0
C      1  0.5161140000000  0.4110710000000  0.4477230000000 1.0
C      1  0.4826770000000  0.4099960000000  0.5530890000000 1.0
C      1  0.5868600000000  0.4877450000000  0.5581040000000 1.0
C      1  0.4122910000000  0.4821140000000  0.4400960000000 1.0
C      1  0.4089240000000  0.4883370000000  0.5627280000000 1.0
C      1  0.5903400000000  0.4882200000000  0.4349140000000 1.0
C      1  0.5800460000000  0.5260840000000  0.4766870000000 1.0
C      1  0.4197000000000  0.5270770000000  0.5233650000000 1.0
C      1  0.4204460000000  0.5189970000000  0.4768930000000 1.0
C      1  0.5787850000000  0.5288590000000  0.5241280000000 1.0
C      1  0.5714580000000  0.4641500000000  0.4302690000000 1.0
C      1  0.4290930000000  0.4647830000000  0.5658990000000 1.0
C      1  0.4356330000000  0.4641130000000  0.4356620000000 1.0
C      1  0.5616350000000  0.4638770000000  0.5658770000000 1.0
C      1  0.5328200000000  0.5769640000000  0.5531580000000 1.0
C      1  0.4728260000000  0.5817570000000  0.4425530000000 1.0
C      1  0.4687450000000  0.5761160000000  0.5519780000000 1.0
C      1  0.5332060000000  0.5775740000000  0.4476760000000 1.0
C      1  0.4232580000000  0.5549980000000  0.5826460000000 1.0
C      1  0.5766240000000  0.5543060000000  0.4166020000000 1.0
C      1  0.5759850000000  0.5523190000000  0.5828370000000 1.0
C      1  0.4232620000000  0.5480020000000  0.4328780000000 1.0
C      1  0.5289250000000  0.4947610000000  0.4426450000000 1.0
C      1  0.4647780000000  0.4987410000000  0.5568860000000 1.0
C      1  0.4708910000000  0.4946670000000  0.4416110000000 1.0
C      1  0.5300110000000  0.4970380000000  0.5626270000000 1.0
C      1  0.4253250000000  0.5578820000000  0.5167990000000 1.0
C      1  0.5737890000000  0.5549180000000  0.4851970000000 1.0
C      1  0.5730240000000  0.5566480000000  0.5144360000000 1.0
C      1  0.4320360000000  0.5646520000000  0.4892240000000 1.0
C      1  0.5588380000000  0.5711650000000  0.5379950000000 1.0
C      1  0.4451050000000  0.5776100000000  0.4478210000000 1.0
C      1  0.4416700000000  0.5705320000000  0.5401210000000 1.0
C      1  0.5600110000000  0.5705500000000  0.4625530000000 1.0
END
