TITL C-2441154-10-631 0.00057651313445313 125000 -3719.6984846889 0 0 27 (C1) n - 1
REM
REM in /home/bkarasulu/work/CARBON/AIRSS/Generating-Clusters/ReaxFF-fromJPCA2015/Units_Real/with-SteepDescent/Higher-Symm
REM
REM
REM
REM
REM
REM ./C.cell (1df0a924f5614ab8850e4351716899ee)
REM
REM compiler GCC version 9.2.1 20190827 (Red Hat 9.2.1-1)
REM options -cpp -mtune=generic -march=x86-64 -g -O0 -fpre-include=/usr/include/finclude/math-vector-fortran.h
REM seed 2096433391 2064211930 305901645 769152811 1537692118 -1390838583 1673056402 598774673 -372330696 -322319034 -149003810 140778909 1622900000 -1837797756 1514801897 -1608971166 -1683547913 -1239969249 -40379764 1237383482 -219774341 -688347213 -1394922069 -422844153 -1800165888 2002053037 -1165869832 318721703 -362296793 604868342 -775886465 -1795865207 116384613
REM
CELL 1.54180   50.00000   50.00000   50.00000   90.00000   90.00000   90.00000
LATT -1
SFAC C  
C      1  0.5267900000000  0.4737610000000  0.4798010000000 1.0
C      1  0.4743390000000  0.4724740000000  0.5204620000000 1.0
C      1  0.5270890000000  0.5275250000000  0.4796110000000 1.0
C      1  0.4752990000000  0.5262580000000  0.5188770000000 1.0
C      1  0.4606750000000  0.5136930000000  0.4713920000000 1.0
C      1  0.5413240000000  0.5141360000000  0.5270060000000 1.0
C      1  0.4605380000000  0.4855610000000  0.4718370000000 1.0
C      1  0.5409420000000  0.4858720000000  0.5274930000000 1.0
C      1  0.5055760000000  0.4543580000000  0.4718760000000 1.0
C      1  0.4954430000000  0.4538370000000  0.5277670000000 1.0
C      1  0.5059980000000  0.5460680000000  0.4714610000000 1.0
C      1  0.4961390000000  0.5458260000000  0.5271540000000 1.0
C      1  0.4780460000000  0.5364640000000  0.4696890000000 1.0
C      1  0.5241960000000  0.5369240000000  0.5287900000000 1.0
C      1  0.4775790000000  0.4632030000000  0.4705620000000 1.0
C      1  0.5235520000000  0.4632220000000  0.5290060000000 1.0
C      1  0.5035260000000  0.5690240000000  0.4883250000000 1.0
C      1  0.4976260000000  0.5702170000000  0.5121880000000 1.0
C      1  0.5036400000000  0.4305890000000  0.4876430000000 1.0
C      1  0.4975520000000  0.4302570000000  0.5114690000000 1.0
C      1  0.4634950000000  0.5308020000000  0.4929870000000 1.0
C      1  0.5388990000000  0.5313700000000  0.5053380000000 1.0
C      1  0.4623860000000  0.4683810000000  0.4944570000000 1.0
C      1  0.5382010000000  0.4689510000000  0.5057310000000 1.0
C      1  0.4845310000000  0.4991190000000  0.5218540000000 1.0
C      1  0.5165730000000  0.5007590000000  0.4784650000000 1.0
C      1  0.5005150000000  0.4987490000000  0.5001580000000 1.0
END
