TITL C-2441166-8118-986 0.027687280239812 125000 -11187.3017068034 0 0 83 (C1) n - 1
REM
REM in /home/bkarasulu/work/CARBON/AIRSS/Generating-Clusters/ReaxFF-fromJPCA2015/Units_Real/with-SteepDescent/Higher-Symm
REM
REM
REM
REM
REM
REM ./C.cell (1df0a924f5614ab8850e4351716899ee)
REM
REM compiler GCC version 9.2.1 20190827 (Red Hat 9.2.1-1)
REM options -cpp -mtune=generic -march=x86-64 -g -O0 -fpre-include=/usr/include/finclude/math-vector-fortran.h
REM seed -1727587512 -1915393005 429302156 -316756023 2089156010 -1316737677 -352996518 1315866373 -2031888093 523083697 -781023520 222869974 1448271744 998696515 952851885 -45779585 -1106392100 -569045221 526120655 -2094583282 -472181600 -195520865 -487026516 -249584417 -1313641716 -1845836177 -1821363685 -864613182 1094256048 1728856632 306040611 -58103095 -921984958
REM
CELL 1.54180   50.00000   50.00000   50.00000   90.00000   90.00000   90.00000
LATT -1
SFAC C  
C      1  0.4885070000000  0.4438180000000  0.5634870000000 1.0
C      1  0.4728080000000  0.5788340000000  0.5235840000000 1.0
C      1  0.4728850000000  0.4756230000000  0.4168570000000 1.0
C      1  0.5146140000000  0.4445210000000  0.4355780000000 1.0
C      1  0.5360650000000  0.5788660000000  0.4877130000000 1.0
C      1  0.5349770000000  0.4735900000000  0.5711530000000 1.0
C      1  0.5143290000000  0.4352790000000  0.4947240000000 1.0
C      1  0.5129730000000  0.5276660000000  0.5592460000000 1.0
C      1  0.5134610000000  0.5366050000000  0.4413280000000 1.0
C      1  0.4865630000000  0.4326830000000  0.5060680000000 1.0
C      1  0.4874200000000  0.5237990000000  0.4445900000000 1.0
C      1  0.4863720000000  0.5370880000000  0.5590530000000 1.0
C      1  0.4477750000000  0.4707850000000  0.5547380000000 1.0
C      1  0.4584120000000  0.5728710000000  0.5011040000000 1.0
C      1  0.4477480000000  0.4587410000000  0.4456440000000 1.0
C      1  0.5336900000000  0.4612800000000  0.4447080000000 1.0
C      1  0.5480120000000  0.5663790000000  0.5116610000000 1.0
C      1  0.5524380000000  0.4582120000000  0.5532620000000 1.0
C      1  0.4763100000000  0.5643510000000  0.4579630000000 1.0
C      1  0.4720970000000  0.4258430000000  0.4677230000000 1.0
C      1  0.4744880000000  0.5047810000000  0.5797720000000 1.0
C      1  0.5269240000000  0.5655570000000  0.5449210000000 1.0
C      1  0.5272360000000  0.4210770000000  0.5315670000000 1.0
C      1  0.5336590000000  0.5031790000000  0.4222650000000 1.0
C      1  0.4490220000000  0.4836800000000  0.4301970000000 1.0
C      1  0.4673230000000  0.4509310000000  0.5450040000000 1.0
C      1  0.4492250000000  0.5621350000000  0.5247120000000 1.0
C      1  0.5401440000000  0.4969800000000  0.5550940000000 1.0
C      1  0.5418430000000  0.4524920000000  0.4651000000000 1.0
C      1  0.5392370000000  0.5541340000000  0.4732510000000 1.0
C      1  0.5666960000000  0.4700490000000  0.5306940000000 1.0
C      1  0.5661000000000  0.5438920000000  0.5105910000000 1.0
C      1  0.5702220000000  0.4959780000000  0.4757270000000 1.0
C      1  0.4357430000000  0.4713560000000  0.4687690000000 1.0
C      1  0.4300530000000  0.5280080000000  0.4905380000000 1.0
C      1  0.4322880000000  0.4904750000000  0.5397510000000 1.0
C      1  0.5101980000000  0.4284690000000  0.5533340000000 1.0
C      1  0.5012530000000  0.5781430000000  0.5230460000000 1.0
C      1  0.5095160000000  0.4915160000000  0.4130550000000 1.0
C      1  0.4941080000000  0.4303390000000  0.4501630000000 1.0
C      1  0.4978770000000  0.5761010000000  0.4723390000000 1.0
C      1  0.4988080000000  0.4899510000000  0.5815650000000 1.0
C      1  0.5295820000000  0.4891030000000  0.4484050000000 1.0
C      1  0.5261010000000  0.4492350000000  0.5403260000000 1.0
C      1  0.5206000000000  0.5552400000000  0.5204560000000 1.0
C      1  0.4700100000000  0.4900180000000  0.5539770000000 1.0
C      1  0.4762360000000  0.4534970000000  0.4588590000000 1.0
C      1  0.4662100000000  0.5531610000000  0.4838090000000 1.0
C      1  0.5121380000000  0.5237480000000  0.5182670000000 1.0
C      1  0.5176150000000  0.5045420000000  0.4707570000000 1.0
C      1  0.5090730000000  0.4718590000000  0.5213330000000 1.0
C      1  0.4744520000000  0.5268470000000  0.4919250000000 1.0
C      1  0.4708320000000  0.4981960000000  0.5263170000000 1.0
C      1  0.4899990000000  0.4752290000000  0.4779570000000 1.0
C      1  0.4633050000000  0.5390720000000  0.4462630000000 1.0
C      1  0.4605570000000  0.4353930000000  0.4927130000000 1.0
C      1  0.4607570000000  0.5280060000000  0.5633400000000 1.0
C      1  0.5386310000000  0.5412100000000  0.5531700000000 1.0
C      1  0.5399720000000  0.4306560000000  0.5075970000000 1.0
C      1  0.5417360000000  0.5270950000000  0.4375450000000 1.0
C      1  0.4851810000000  0.5195350000000  0.5157370000000 1.0
C      1  0.4872560000000  0.5045740000000  0.4715000000000 1.0
C      1  0.4835210000000  0.4576680000000  0.5212670000000 1.0
C      1  0.5179630000000  0.5343610000000  0.4703270000000 1.0
C      1  0.5169970000000  0.5026990000000  0.5375760000000 1.0
C      1  0.5136680000000  0.4651940000000  0.4919770000000 1.0
C      1  0.4413270000000  0.4988000000000  0.4559480000000 1.0
C      1  0.4427400000000  0.4846030000000  0.5119010000000 1.0
C      1  0.4427210000000  0.5344540000000  0.5181710000000 1.0
C      1  0.5627220000000  0.4999680000000  0.5362270000000 1.0
C      1  0.5602120000000  0.4653290000000  0.4812960000000 1.0
C      1  0.5630200000000  0.5400140000000  0.4810070000000 1.0
C      1  0.4439210000000  0.4595130000000  0.4940190000000 1.0
C      1  0.4392700000000  0.5195900000000  0.5434330000000 1.0
C      1  0.4409400000000  0.5262980000000  0.4613610000000 1.0
C      1  0.5594480000000  0.4533250000000  0.5074010000000 1.0
C      1  0.5602820000000  0.5203120000000  0.4605280000000 1.0
C      1  0.5587620000000  0.5289280000000  0.5343450000000 1.0
C      1  0.5064980000000  0.4645640000000  0.5776000000000 1.0
C      1  0.5087500000000  0.5877040000000  0.4947890000000 1.0
C      1  0.4992770000000  0.4655050000000  0.4160650000000 1.0
C      1  0.5813560000000  0.4952100000000  0.5013840000000 1.0
C      1  0.4203530000000  0.5021300000000  0.4968880000000 1.0
END
