TITL C-2441168-9922-16 0.0177508943858569 125000 -23709.8370397363 0 0 163 (C1) n - 1
REM
REM in /home/bkarasulu/work/CARBON/AIRSS/Generating-Clusters/ReaxFF-fromJPCA2015/Units_Real/with-SteepDescent/Higher-Symm
REM
REM
REM
REM
REM
REM ./C.cell (1df0a924f5614ab8850e4351716899ee)
REM
REM compiler GCC version 9.2.1 20190827 (Red Hat 9.2.1-1)
REM options -cpp -mtune=generic -march=x86-64 -g -O0 -fpre-include=/usr/include/finclude/math-vector-fortran.h
REM seed -1508714655 -268917328 102233972 -792374883 1729384587 2001330470 -1699131403 517767882 760119988 -1682936220 -376428682 2048868176 1106374012 -1796887308 -2023268308 -560113767 -840854517 -68806183 -2144177554 1485745109 926965768 928584275 -1127900404 1414469673 2045011314 597440330 53945048 -1973615280 1182281177 1045603749 -1480057333 201427450 1774904823
REM
CELL 1.54180   50.00000   50.00000   50.00000   90.00000   90.00000   90.00000
LATT -1
SFAC C  
C      1  0.5873840000000  0.5183600000000  0.5311330000000 1.0
C      1  0.5957300000000  0.4886880000000  0.5280730000000 1.0
C      1  0.5877600000000  0.4767540000000  0.5023150000000 1.0
C      1  0.5964930000000  0.4893810000000  0.4775560000000 1.0
C      1  0.5993910000000  0.5190010000000  0.4803820000000 1.0
C      1  0.5880530000000  0.5360970000000  0.5029120000000 1.0
C      1  0.4527750000000  0.4549860000000  0.4188250000000 1.0
C      1  0.4501410000000  0.5507990000000  0.4139810000000 1.0
C      1  0.4601300000000  0.5912970000000  0.5053020000000 1.0
C      1  0.4562960000000  0.5414360000000  0.5775890000000 1.0
C      1  0.4537480000000  0.4528630000000  0.5799790000000 1.0
C      1  0.4580830000000  0.4109310000000  0.4946030000000 1.0
C      1  0.5881160000000  0.4650800000000  0.5422810000000 1.0
C      1  0.5756350000000  0.4239460000000  0.5056910000000 1.0
C      1  0.5872470000000  0.4771420000000  0.4521160000000 1.0
C      1  0.5956910000000  0.5295530000000  0.4541010000000 1.0
C      1  0.5772750000000  0.5640060000000  0.5071490000000 1.0
C      1  0.5807850000000  0.5280950000000  0.5586910000000 1.0
C      1  0.4802660000000  0.4928780000000  0.4334780000000 1.0
C      1  0.4781510000000  0.5580770000000  0.4703750000000 1.0
C      1  0.4804510000000  0.5533200000000  0.5367510000000 1.0
C      1  0.4821050000000  0.4909820000000  0.5657920000000 1.0
C      1  0.4859420000000  0.4534720000000  0.5385550000000 1.0
C      1  0.4720750000000  0.4559940000000  0.4659170000000 1.0
C      1  0.5648770000000  0.5676800000000  0.4382280000000 1.0
C      1  0.5507850000000  0.5960400000000  0.5137040000000 1.0
C      1  0.5517040000000  0.5272440000000  0.5899340000000 1.0
C      1  0.5589540000000  0.4399580000000  0.5542020000000 1.0
C      1  0.5488400000000  0.4039380000000  0.4792490000000 1.0
C      1  0.5658170000000  0.4924060000000  0.4192690000000 1.0
C      1  0.5105840000000  0.4533400000000  0.5537630000000 1.0
C      1  0.4964440000000  0.4344440000000  0.4897730000000 1.0
C      1  0.5007580000000  0.4740120000000  0.4353780000000 1.0
C      1  0.4845700000000  0.5414080000000  0.4481560000000 1.0
C      1  0.4981360000000  0.5647990000000  0.5149460000000 1.0
C      1  0.4980780000000  0.5152790000000  0.5629190000000 1.0
C      1  0.5082280000000  0.5263060000000  0.4900710000000 1.0
C      1  0.5001500000000  0.5137750000000  0.5159860000000 1.0
C      1  0.5170070000000  0.4910420000000  0.5224730000000 1.0
C      1  0.5006630000000  0.4770490000000  0.5030000000000 1.0
C      1  0.5133770000000  0.4817170000000  0.4774000000000 1.0
C      1  0.5065710000000  0.5082630000000  0.4657860000000 1.0
C      1  0.4719050000000  0.5640530000000  0.5642110000000 1.0
C      1  0.4739250000000  0.4739020000000  0.5889160000000 1.0
C      1  0.4660470000000  0.4061230000000  0.5225200000000 1.0
C      1  0.4672620000000  0.4388030000000  0.4394900000000 1.0
C      1  0.4657750000000  0.5284790000000  0.4011390000000 1.0
C      1  0.4703650000000  0.5877000000000  0.4741870000000 1.0
C      1  0.4121710000000  0.4651260000000  0.5023260000000 1.0
C      1  0.4190550000000  0.4833370000000  0.4636690000000 1.0
C      1  0.4096430000000  0.5120670000000  0.4641000000000 1.0
C      1  0.4252350000000  0.5456260000000  0.4978110000000 1.0
C      1  0.4036290000000  0.5262680000000  0.5392750000000 1.0
C      1  0.4100820000000  0.4745960000000  0.5509170000000 1.0
C      1  0.5189620000000  0.5077230000000  0.4103740000000 1.0
C      1  0.5223340000000  0.5831590000000  0.4556730000000 1.0
C      1  0.5186900000000  0.5777290000000  0.5597480000000 1.0
C      1  0.5241510000000  0.4886150000000  0.6024750000000 1.0
C      1  0.5178020000000  0.4037470000000  0.5428760000000 1.0
C      1  0.5242030000000  0.4256980000000  0.4353020000000 1.0
C      1  0.5552660000000  0.5839400000000  0.4608430000000 1.0
C      1  0.5480740000000  0.5692560000000  0.5556130000000 1.0
C      1  0.5467560000000  0.4722290000000  0.5938810000000 1.0
C      1  0.5407280000000  0.4115470000000  0.5265710000000 1.0
C      1  0.5488530000000  0.4409870000000  0.4318170000000 1.0
C      1  0.5506630000000  0.5156230000000  0.4098720000000 1.0
C      1  0.4995700000000  0.5972320000000  0.4716310000000 1.0
C      1  0.5011700000000  0.5631840000000  0.5763130000000 1.0
C      1  0.5050880000000  0.4670410000000  0.5981620000000 1.0
C      1  0.4946980000000  0.3985230000000  0.5246430000000 1.0
C      1  0.4984400000000  0.4322500000000  0.4259620000000 1.0
C      1  0.4950730000000  0.5293500000000  0.4033420000000 1.0
C      1  0.4482870000000  0.4910190000000  0.5980980000000 1.0
C      1  0.4486600000000  0.4180860000000  0.5430580000000 1.0
C      1  0.4486490000000  0.4194960000000  0.4538440000000 1.0
C      1  0.4478990000000  0.5050490000000  0.4023080000000 1.0
C      1  0.4477690000000  0.5833650000000  0.4533070000000 1.0
C      1  0.4531770000000  0.5831440000000  0.5468360000000 1.0
C      1  0.4317310000000  0.4707930000000  0.4219480000000 1.0
C      1  0.4338320000000  0.5454910000000  0.4347570000000 1.0
C      1  0.4353420000000  0.5771950000000  0.5066970000000 1.0
C      1  0.4422030000000  0.5237110000000  0.5591440000000 1.0
C      1  0.4286750000000  0.4555670000000  0.5657070000000 1.0
C      1  0.4388520000000  0.4328500000000  0.4951080000000 1.0
C      1  0.5272680000000  0.5145040000000  0.5541010000000 1.0
C      1  0.5343570000000  0.4495630000000  0.5411000000000 1.0
C      1  0.5242840000000  0.4422330000000  0.4896360000000 1.0
C      1  0.5229450000000  0.5110120000000  0.4407740000000 1.0
C      1  0.5268710000000  0.5549570000000  0.4641240000000 1.0
C      1  0.5257270000000  0.5531130000000  0.5172130000000 1.0
C      1  0.5469500000000  0.4932520000000  0.5583950000000 1.0
C      1  0.5393800000000  0.4420050000000  0.5140380000000 1.0
C      1  0.5444950000000  0.4495440000000  0.4704610000000 1.0
C      1  0.5363700000000  0.5359840000000  0.4442960000000 1.0
C      1  0.5336670000000  0.5440770000000  0.4899280000000 1.0
C      1  0.5365770000000  0.5334780000000  0.5341400000000 1.0
C      1  0.4875960000000  0.4519260000000  0.5102370000000 1.0
C      1  0.4990660000000  0.4637510000000  0.4610870000000 1.0
C      1  0.4772960000000  0.5133930000000  0.4543730000000 1.0
C      1  0.4897600000000  0.5480700000000  0.4922030000000 1.0
C      1  0.4902740000000  0.5280260000000  0.5387390000000 1.0
C      1  0.4720430000000  0.4758100000000  0.5453360000000 1.0
C      1  0.4868020000000  0.4156280000000  0.5692360000000 1.0
C      1  0.4982470000000  0.4057770000000  0.4556720000000 1.0
C      1  0.4851590000000  0.4927730000000  0.3907980000000 1.0
C      1  0.4829390000000  0.5877040000000  0.4313940000000 1.0
C      1  0.5041450000000  0.5959730000000  0.5404550000000 1.0
C      1  0.4609740000000  0.5110810000000  0.6168830000000 1.0
C      1  0.5564320000000  0.5168000000000  0.5192670000000 1.0
C      1  0.5456400000000  0.4902120000000  0.5253040000000 1.0
C      1  0.5580900000000  0.4715000000000  0.5060530000000 1.0
C      1  0.5458420000000  0.4790520000000  0.4788960000000 1.0
C      1  0.5577420000000  0.5042290000000  0.4700480000000 1.0
C      1  0.5578520000000  0.5246000000000  0.4904370000000 1.0
C      1  0.5535720000000  0.5420420000000  0.4220530000000 1.0
C      1  0.5639580000000  0.5835950000000  0.4892690000000 1.0
C      1  0.5619210000000  0.5483770000000  0.5702020000000 1.0
C      1  0.5631350000000  0.4603460000000  0.5742810000000 1.0
C      1  0.5587300000000  0.3993100000000  0.5070690000000 1.0
C      1  0.5664600000000  0.4665450000000  0.4336870000000 1.0
C      1  0.5131600000000  0.4155340000000  0.5711220000000 1.0
C      1  0.5192980000000  0.3983960000000  0.4742890000000 1.0
C      1  0.5101070000000  0.4814540000000  0.3966100000000 1.0
C      1  0.5086290000000  0.5781940000000  0.4283190000000 1.0
C      1  0.5222390000000  0.6041880000000  0.5190310000000 1.0
C      1  0.5256630000000  0.5187730000000  0.5989390000000 1.0
C      1  0.4253030000000  0.4356220000000  0.5441210000000 1.0
C      1  0.4258730000000  0.4317520000000  0.4695290000000 1.0
C      1  0.4234200000000  0.4961170000000  0.4161220000000 1.0
C      1  0.4271120000000  0.5607590000000  0.4552980000000 1.0
C      1  0.4283000000000  0.5732280000000  0.5335750000000 1.0
C      1  0.4320850000000  0.5040430000000  0.5772850000000 1.0
C      1  0.5678510000000  0.5070800000000  0.5745230000000 1.0
C      1  0.5792180000000  0.4398220000000  0.5319930000000 1.0
C      1  0.5644100000000  0.4289020000000  0.4780900000000 1.0
C      1  0.5755280000000  0.5047470000000  0.4463680000000 1.0
C      1  0.5828030000000  0.5534530000000  0.4506360000000 1.0
C      1  0.5631580000000  0.5769280000000  0.5314340000000 1.0
C      1  0.5094560000000  0.4569710000000  0.4127740000000 1.0
C      1  0.4989420000000  0.5495670000000  0.4244810000000 1.0
C      1  0.5029490000000  0.5961080000000  0.4991740000000 1.0
C      1  0.5023470000000  0.5367240000000  0.5905750000000 1.0
C      1  0.5147860000000  0.4449000000000  0.5818900000000 1.0
C      1  0.5010040000000  0.4050010000000  0.4969880000000 1.0
C      1  0.4607150000000  0.4256610000000  0.5692950000000 1.0
C      1  0.4704160000000  0.4056860000000  0.4666230000000 1.0
C      1  0.4661530000000  0.4850070000000  0.4090860000000 1.0
C      1  0.4564370000000  0.5798720000000  0.4259420000000 1.0
C      1  0.4740480000000  0.5948160000000  0.5308000000000 1.0
C      1  0.4723090000000  0.5329000000000  0.6000610000000 1.0
C      1  0.4603950000000  0.5057240000000  0.4825660000000 1.0
C      1  0.4443990000000  0.5231910000000  0.5033830000000 1.0
C      1  0.4463280000000  0.5141120000000  0.5293710000000 1.0
C      1  0.4575970000000  0.4863890000000  0.5245650000000 1.0
C      1  0.4420350000000  0.4642820000000  0.5019010000000 1.0
C      1  0.4515690000000  0.4767210000000  0.4758170000000 1.0
C      1  0.4064010000000  0.5031230000000  0.5557140000000 1.0
C      1  0.4071750000000  0.4546680000000  0.5294530000000 1.0
C      1  0.4098590000000  0.4560320000000  0.4745220000000 1.0
C      1  0.4082320000000  0.4976390000000  0.4405710000000 1.0
C      1  0.4156960000000  0.5390020000000  0.4708990000000 1.0
C      1  0.4098930000000  0.5499090000000  0.5255060000000 1.0
C      1  0.4783060000000  0.4967630000000  0.5049840000000 1.0
END
