TITL C-2441168-9922-797 0.0196831670710529 125000 -25816.048927241 0 0 172 (C1) n - 1
REM
REM in /home/bkarasulu/work/CARBON/AIRSS/Generating-Clusters/ReaxFF-fromJPCA2015/Units_Real/with-SteepDescent/Higher-Symm
REM
REM
REM
REM
REM
REM ./C.cell (1df0a924f5614ab8850e4351716899ee)
REM
REM compiler GCC version 9.2.1 20190827 (Red Hat 9.2.1-1)
REM options -cpp -mtune=generic -march=x86-64 -g -O0 -fpre-include=/usr/include/finclude/math-vector-fortran.h
REM seed 307390066 -1484688726 166438476 -1212401477 629121174 381872500 475438321 -1105302773 496619882 -220658665 -1234534384 649603554 81972232 411547221 -2122036580 1061398187 -1618404235 -43791008 1906914864 514470036 -867087418 272390416 944523740 389898301 -708174211 1524213778 282154082 278899600 -946844940 894908633 932055341 -1872621357 -1300964209
REM
CELL 1.54180   50.00000   50.00000   50.00000   90.00000   90.00000   90.00000
LATT -1
SFAC C  
C      1  0.5168910000000  0.4444300000000  0.5780890000000 1.0
C      1  0.5168360000000  0.5558660000000  0.4220800000000 1.0
C      1  0.4856370000000  0.4409040000000  0.4187670000000 1.0
C      1  0.4851250000000  0.5588750000000  0.5810600000000 1.0
C      1  0.5160920000000  0.5781320000000  0.4450060000000 1.0
C      1  0.5171130000000  0.4212420000000  0.5562430000000 1.0
C      1  0.4857460000000  0.4186090000000  0.4401630000000 1.0
C      1  0.4852800000000  0.5817710000000  0.5589970000000 1.0
C      1  0.4609140000000  0.5933610000000  0.5725590000000 1.0
C      1  0.4616890000000  0.4065590000000  0.4267900000000 1.0
C      1  0.5377080000000  0.5925850000000  0.4296240000000 1.0
C      1  0.5397640000000  0.4086630000000  0.5719670000000 1.0
C      1  0.4610570000000  0.5723990000000  0.5930900000000 1.0
C      1  0.4614750000000  0.4276970000000  0.4064210000000 1.0
C      1  0.5392520000000  0.4299440000000  0.5921630000000 1.0
C      1  0.5381220000000  0.5721670000000  0.4085090000000 1.0
C      1  0.5564860000000  0.4729440000000  0.4916630000000 1.0
C      1  0.5564390000000  0.5227120000000  0.5010300000000 1.0
C      1  0.4358170000000  0.4637620000000  0.5153890000000 1.0
C      1  0.4351960000000  0.5357160000000  0.4846120000000 1.0
C      1  0.5524350000000  0.4992640000000  0.4811600000000 1.0
C      1  0.5574970000000  0.5083550000000  0.5268460000000 1.0
C      1  0.4359770000000  0.5153900000000  0.4644460000000 1.0
C      1  0.4352050000000  0.4840910000000  0.5353580000000 1.0
C      1  0.5644490000000  0.5839510000000  0.4383880000000 1.0
C      1  0.5658270000000  0.4183490000000  0.5624090000000 1.0
C      1  0.4354860000000  0.5827980000000  0.5620420000000 1.0
C      1  0.4355970000000  0.4161720000000  0.4367830000000 1.0
C      1  0.5654040000000  0.4396050000000  0.5825130000000 1.0
C      1  0.5644950000000  0.5629810000000  0.4179990000000 1.0
C      1  0.4353340000000  0.5623130000000  0.5826930000000 1.0
C      1  0.4354250000000  0.4370600000000  0.4165570000000 1.0
C      1  0.4809490000000  0.5261980000000  0.4000160000000 1.0
C      1  0.4810200000000  0.4746190000000  0.6010910000000 1.0
C      1  0.5175710000000  0.5319650000000  0.6124510000000 1.0
C      1  0.5189700000000  0.4689980000000  0.3894700000000 1.0
C      1  0.4816840000000  0.4001200000000  0.5267080000000 1.0
C      1  0.4838000000000  0.6086780000000  0.4706530000000 1.0
C      1  0.5186170000000  0.6022940000000  0.5311160000000 1.0
C      1  0.5178570000000  0.3875650000000  0.4674730000000 1.0
C      1  0.5274920000000  0.4953200000000  0.3905890000000 1.0
C      1  0.5270110000000  0.5054260000000  0.6103370000000 1.0
C      1  0.4764580000000  0.4992230000000  0.6121750000000 1.0
C      1  0.4770610000000  0.5016090000000  0.3887940000000 1.0
C      1  0.5273520000000  0.3887500000000  0.4940590000000 1.0
C      1  0.5232290000000  0.6083310000000  0.5044600000000 1.0
C      1  0.4731690000000  0.6120690000000  0.4962780000000 1.0
C      1  0.4776980000000  0.3896590000000  0.5014310000000 1.0
C      1  0.5140360000000  0.5214740000000  0.4590250000000 1.0
C      1  0.5158630000000  0.4800750000000  0.5404180000000 1.0
C      1  0.4884670000000  0.5220810000000  0.5477900000000 1.0
C      1  0.4875630000000  0.4740150000000  0.4528110000000 1.0
C      1  0.5150790000000  0.4587890000000  0.5205490000000 1.0
C      1  0.5146820000000  0.5413780000000  0.4796730000000 1.0
C      1  0.4889080000000  0.5479840000000  0.5226240000000 1.0
C      1  0.4874710000000  0.4521050000000  0.4718120000000 1.0
C      1  0.5317010000000  0.5691180000000  0.4701470000000 1.0
C      1  0.5311620000000  0.4298450000000  0.5300650000000 1.0
C      1  0.4712490000000  0.5715740000000  0.5319670000000 1.0
C      1  0.4695360000000  0.4289910000000  0.4667900000000 1.0
C      1  0.5306440000000  0.4704420000000  0.5687730000000 1.0
C      1  0.5317230000000  0.5301550000000  0.4308070000000 1.0
C      1  0.4702470000000  0.5324170000000  0.5711990000000 1.0
C      1  0.4696000000000  0.4668350000000  0.4284770000000 1.0
C      1  0.5600010000000  0.5330920000000  0.5744610000000 1.0
C      1  0.5630040000000  0.4679300000000  0.4337530000000 1.0
C      1  0.4432140000000  0.5286560000000  0.4352580000000 1.0
C      1  0.4432750000000  0.4727890000000  0.5650000000000 1.0
C      1  0.5616290000000  0.5709300000000  0.5344510000000 1.0
C      1  0.5594190000000  0.4260480000000  0.4674650000000 1.0
C      1  0.4430620000000  0.4346510000000  0.5281460000000 1.0
C      1  0.4434650000000  0.5645550000000  0.4737730000000 1.0
C      1  0.4112990000000  0.4585520000000  0.4994030000000 1.0
C      1  0.4107560000000  0.5410450000000  0.5005290000000 1.0
C      1  0.5819640000000  0.4611350000000  0.4999820000000 1.0
C      1  0.5848360000000  0.5388140000000  0.4974780000000 1.0
C      1  0.4112440000000  0.4996590000000  0.4588610000000 1.0
C      1  0.4109010000000  0.4999440000000  0.5411780000000 1.0
C      1  0.5883360000000  0.4946580000000  0.4526300000000 1.0
C      1  0.5824240000000  0.5003100000000  0.5368990000000 1.0
C      1  0.4593540000000  0.5132360000000  0.5913150000000 1.0
C      1  0.4596780000000  0.4875330000000  0.4092910000000 1.0
C      1  0.5394400000000  0.5081970000000  0.4126710000000 1.0
C      1  0.5394510000000  0.4913580000000  0.5882890000000 1.0
C      1  0.4603020000000  0.5911900000000  0.5120360000000 1.0
C      1  0.4599410000000  0.4091260000000  0.4874810000000 1.0
C      1  0.5396170000000  0.4104220000000  0.5090840000000 1.0
C      1  0.5408330000000  0.5881670000000  0.4913330000000 1.0
C      1  0.4854400000000  0.4100380000000  0.5507120000000 1.0
C      1  0.4842100000000  0.5848150000000  0.4547930000000 1.0
C      1  0.5166220000000  0.4081390000000  0.4469910000000 1.0
C      1  0.5141870000000  0.5965800000000  0.5560040000000 1.0
C      1  0.4842770000000  0.5498170000000  0.4133050000000 1.0
C      1  0.4843390000000  0.4516230000000  0.5868180000000 1.0
C      1  0.5176120000000  0.4497110000000  0.4107600000000 1.0
C      1  0.5156090000000  0.5523400000000  0.5921450000000 1.0
C      1  0.5622900000000  0.5633700000000  0.4605890000000 1.0
C      1  0.5615920000000  0.4368650000000  0.5386380000000 1.0
C      1  0.4392590000000  0.5623260000000  0.5397660000000 1.0
C      1  0.4370350000000  0.4370440000000  0.4589070000000 1.0
C      1  0.5616950000000  0.4618870000000  0.5622780000000 1.0
C      1  0.5616730000000  0.5399320000000  0.4374440000000 1.0
C      1  0.4384930000000  0.5402190000000  0.5619120000000 1.0
C      1  0.4374290000000  0.4594270000000  0.4371780000000 1.0
C      1  0.4719230000000  0.4448250000000  0.5366300000000 1.0
C      1  0.4728210000000  0.5586110000000  0.4677100000000 1.0
C      1  0.5319610000000  0.4352530000000  0.4596510000000 1.0
C      1  0.5373330000000  0.5578300000000  0.5409100000000 1.0
C      1  0.4720640000000  0.5368750000000  0.4442540000000 1.0
C      1  0.4725840000000  0.4669550000000  0.5572940000000 1.0
C      1  0.5336530000000  0.4602930000000  0.4384560000000 1.0
C      1  0.5326560000000  0.5402350000000  0.5645870000000 1.0
C      1  0.4592680000000  0.4114290000000  0.5680550000000 1.0
C      1  0.4605050000000  0.5882780000000  0.4347340000000 1.0
C      1  0.5403950000000  0.4088230000000  0.4280290000000 1.0
C      1  0.5394290000000  0.5915120000000  0.5723930000000 1.0
C      1  0.4591520000000  0.5695190000000  0.4126860000000 1.0
C      1  0.4588990000000  0.4319110000000  0.5884980000000 1.0
C      1  0.5411020000000  0.4308620000000  0.4093660000000 1.0
C      1  0.5389610000000  0.5713830000000  0.5931370000000 1.0
C      1  0.4634260000000  0.5205910000000  0.4979100000000 1.0
C      1  0.4650160000000  0.4749680000000  0.5012210000000 1.0
C      1  0.5308430000000  0.5365760000000  0.5007830000000 1.0
C      1  0.5290270000000  0.4638980000000  0.4967860000000 1.0
C      1  0.4634050000000  0.4974790000000  0.5204600000000 1.0
C      1  0.4643850000000  0.5013250000000  0.4757430000000 1.0
C      1  0.5309410000000  0.5030370000000  0.5362810000000 1.0
C      1  0.5280790000000  0.4987220000000  0.4672500000000 1.0
C      1  0.4202870000000  0.4354790000000  0.4842830000000 1.0
C      1  0.4202280000000  0.5637750000000  0.5160610000000 1.0
C      1  0.5783980000000  0.4359060000000  0.5138740000000 1.0
C      1  0.5795620000000  0.5643680000000  0.4860670000000 1.0
C      1  0.4203470000000  0.4846600000000  0.4357650000000 1.0
C      1  0.4203180000000  0.5157600000000  0.5637150000000 1.0
C      1  0.5790940000000  0.5140660000000  0.4350520000000 1.0
C      1  0.5780840000000  0.4867540000000  0.5624440000000 1.0
C      1  0.4843050000000  0.4567180000000  0.5136370000000 1.0
C      1  0.4848140000000  0.5430860000000  0.4926400000000 1.0
C      1  0.5144840000000  0.4468550000000  0.4799270000000 1.0
C      1  0.5186600000000  0.5519660000000  0.5204670000000 1.0
C      1  0.4836060000000  0.5124870000000  0.4560080000000 1.0
C      1  0.4849770000000  0.4919070000000  0.5424660000000 1.0
C      1  0.5162170000000  0.4794250000000  0.4504140000000 1.0
C      1  0.5172490000000  0.5202230000000  0.5529260000000 1.0
C      1  0.5646380000000  0.5801960000000  0.5058520000000 1.0
C      1  0.5643210000000  0.4182000000000  0.4954220000000 1.0
C      1  0.4368000000000  0.5802330000000  0.4994330000000 1.0
C      1  0.4373000000000  0.4197150000000  0.5015300000000 1.0
C      1  0.5642590000000  0.5048950000000  0.5806370000000 1.0
C      1  0.5642840000000  0.4940300000000  0.4195560000000 1.0
C      1  0.4368600000000  0.4990120000000  0.5803580000000 1.0
C      1  0.4373930000000  0.5020900000000  0.4202430000000 1.0
C      1  0.3896230000000  0.5207850000000  0.5002610000000 1.0
C      1  0.3900230000000  0.4786580000000  0.4997350000000 1.0
C      1  0.6063730000000  0.5200460000000  0.4963030000000 1.0
C      1  0.6060720000000  0.4780710000000  0.4988240000000 1.0
C      1  0.3896020000000  0.4997290000000  0.5210270000000 1.0
C      1  0.3899100000000  0.4997020000000  0.4789260000000 1.0
C      1  0.6057170000000  0.5002880000000  0.5180610000000 1.0
C      1  0.6048370000000  0.4965190000000  0.4755020000000 1.0
C      1  0.4355430000000  0.4444580000000  0.5762560000000 1.0
C      1  0.4354280000000  0.5567990000000  0.4244780000000 1.0
C      1  0.5662400000000  0.4411570000000  0.4216940000000 1.0
C      1  0.5648670000000  0.5600710000000  0.5835280000000 1.0
C      1  0.4359430000000  0.5766580000000  0.4458410000000 1.0
C      1  0.4352110000000  0.4236120000000  0.5557780000000 1.0
C      1  0.5660070000000  0.4177110000000  0.4403250000000 1.0
C      1  0.5651100000000  0.5809240000000  0.5619580000000 1.0
C      1  0.5028010000000  0.4891970000000  0.3797160000000 1.0
C      1  0.5020210000000  0.5115210000000  0.6213800000000 1.0
C      1  0.5019420000000  0.3792400000000  0.4880490000000 1.0
C      1  0.4995830000000  0.6189530000000  0.4903060000000 1.0
END
