TITL C-2441158-471-291 0.0418035129333291 125000 -6536.0330923708 0 0 57 (C1) n - 1
REM
REM in /home/bkarasulu/work/CARBON/AIRSS/Generating-Clusters/ReaxFF-fromJPCA2015/Units_Real/with-SteepDescent/Higher-Symm
REM
REM
REM
REM
REM
REM ./C.cell (1df0a924f5614ab8850e4351716899ee)
REM
REM compiler GCC version 9.2.1 20190827 (Red Hat 9.2.1-1)
REM options -cpp -mtune=generic -march=x86-64 -g -O0 -fpre-include=/usr/include/finclude/math-vector-fortran.h
REM seed 714609124 -1978101884 1900546021 -763238285 -1361435591 1554141359 -1470042402 -1551469009 -1753050361 -909432924 -1699735569 -651184988 642169396 -1521094214 1283801725 1134684477 1562359948 1944756974 217130791 -221349722 18731787 -1579129404 -1060596878 1829998129 -223555510 1523111460 -1767243798 75155828 1988367502 836226524 593432077 621834291 995989007
REM
CELL 1.54180   50.00000   50.00000   50.00000   90.00000   90.00000   90.00000
LATT -1
SFAC C  
C      1  0.5154330000000  0.4755580000000  0.5608620000000 1.0
C      1  0.5154290000000  0.5601960000000  0.5236250000000 1.0
C      1  0.5150310000000  0.5228500000000  0.4393490000000 1.0
C      1  0.5150750000000  0.4386960000000  0.4763640000000 1.0
C      1  0.4859220000000  0.4754860000000  0.5609470000000 1.0
C      1  0.4855730000000  0.5597260000000  0.5237520000000 1.0
C      1  0.4856340000000  0.5231170000000  0.4390910000000 1.0
C      1  0.4858310000000  0.4382510000000  0.4761410000000 1.0
C      1  0.5381590000000  0.4989950000000  0.5295080000000 1.0
C      1  0.5365370000000  0.5291060000000  0.4977330000000 1.0
C      1  0.5357960000000  0.4954580000000  0.4719660000000 1.0
C      1  0.5381650000000  0.4697720000000  0.5011440000000 1.0
C      1  0.4661040000000  0.5004570000000  0.5289930000000 1.0
C      1  0.4657190000000  0.5287260000000  0.4988680000000 1.0
C      1  0.4657080000000  0.4981990000000  0.4707870000000 1.0
C      1  0.4653800000000  0.4699840000000  0.5009360000000 1.0
C      1  0.5155980000000  0.4941210000000  0.4343470000000 1.0
C      1  0.5148770000000  0.4340980000000  0.5048490000000 1.0
C      1  0.5149310000000  0.5042700000000  0.5654710000000 1.0
C      1  0.5154210000000  0.5647780000000  0.4946190000000 1.0
C      1  0.4857620000000  0.4943850000000  0.4342210000000 1.0
C      1  0.4853180000000  0.4338190000000  0.5050060000000 1.0
C      1  0.4852980000000  0.5044990000000  0.5653290000000 1.0
C      1  0.4856790000000  0.5644930000000  0.4948990000000 1.0
C      1  0.5654380000000  0.4782030000000  0.5037020000000 1.0
C      1  0.5647550000000  0.5031650000000  0.5208490000000 1.0
C      1  0.5635400000000  0.5205010000000  0.4962500000000 1.0
C      1  0.5640890000000  0.4959110000000  0.4790990000000 1.0
C      1  0.4365410000000  0.4784690000000  0.5034710000000 1.0
C      1  0.4373200000000  0.5028110000000  0.5208110000000 1.0
C      1  0.4366050000000  0.5199480000000  0.4965040000000 1.0
C      1  0.4370510000000  0.4958070000000  0.4790790000000 1.0
C      1  0.5135650000000  0.4733060000000  0.5216190000000 1.0
C      1  0.5120000000000  0.5185800000000  0.5247800000000 1.0
C      1  0.5132680000000  0.5259040000000  0.4791970000000 1.0
C      1  0.5135080000000  0.4772780000000  0.4721690000000 1.0
C      1  0.4856880000000  0.4744770000000  0.5216980000000 1.0
C      1  0.4844220000000  0.5214760000000  0.5247990000000 1.0
C      1  0.4857050000000  0.5251650000000  0.4776960000000 1.0
C      1  0.4863180000000  0.4774180000000  0.4749930000000 1.0
C      1  0.5406170000000  0.5165820000000  0.5513250000000 1.0
C      1  0.5412690000000  0.5520530000000  0.4829480000000 1.0
C      1  0.5416330000000  0.4828810000000  0.4463770000000 1.0
C      1  0.5418160000000  0.4465300000000  0.5169350000000 1.0
C      1  0.4596420000000  0.5159910000000  0.5531940000000 1.0
C      1  0.4593670000000  0.5527110000000  0.4825780000000 1.0
C      1  0.4598190000000  0.4823410000000  0.4468980000000 1.0
C      1  0.4594800000000  0.4459130000000  0.5168890000000 1.0
C      1  0.4701130000000  0.4577650000000  0.4595550000000 1.0
C      1  0.4703030000000  0.4589560000000  0.5416720000000 1.0
C      1  0.4698630000000  0.5414440000000  0.5406360000000 1.0
C      1  0.4697870000000  0.5397900000000  0.4576090000000 1.0
C      1  0.5305090000000  0.4575780000000  0.4597240000000 1.0
C      1  0.5307720000000  0.4595430000000  0.5415620000000 1.0
C      1  0.5307840000000  0.5405210000000  0.5381030000000 1.0
C      1  0.5311610000000  0.5380240000000  0.4587160000000 1.0
C      1  0.5075930000000  0.5030750000000  0.5005520000000 1.0
END
