TITL C-2441164-471-892 0.0367597027045142 125000 -20763.5116831319 0 0 147 (C1) n - 1
REM
REM in /home/bkarasulu/work/CARBON/AIRSS/Generating-Clusters/ReaxFF-fromJPCA2015/Units_Real/with-SteepDescent/Higher-Symm
REM
REM
REM
REM
REM
REM ./C.cell (1df0a924f5614ab8850e4351716899ee)
REM
REM compiler GCC version 9.2.1 20190827 (Red Hat 9.2.1-1)
REM options -cpp -mtune=generic -march=x86-64 -g -O0 -fpre-include=/usr/include/finclude/math-vector-fortran.h
REM seed 1622377338 -16643944 -330207987 750272459 -1086463147 -2111740628 342464601 -1009377594 578497743 1799474797 626805735 -37913884 241317746 -85428866 -400829417 -1367032133 -154230103 141297100 -907479877 1424941408 1946513833 1271365347 1590222867 -672491496 -1636145758 -1273998332 -1112005929 -1913530108 -159306219 612494611 1947458226 -1683456091 1202856306
REM
CELL 1.54180   50.00000   50.00000   50.00000   90.00000   90.00000   90.00000
LATT -1
SFAC C  
C      1  0.5820740000000  0.4586810000000  0.4355560000000 1.0
C      1  0.4057000000000  0.4697140000000  0.4691610000000 1.0
C      1  0.5226490000000  0.4677030000000  0.5998860000000 1.0
C      1  0.5731340000000  0.5259650000000  0.4324220000000 1.0
C      1  0.4041390000000  0.5298270000000  0.4656070000000 1.0
C      1  0.5162450000000  0.5386560000000  0.5999830000000 1.0
C      1  0.4794980000000  0.4848410000000  0.4257660000000 1.0
C      1  0.4495910000000  0.4876680000000  0.5552980000000 1.0
C      1  0.5768390000000  0.4901260000000  0.5145930000000 1.0
C      1  0.4675480000000  0.5101130000000  0.4326640000000 1.0
C      1  0.4506430000000  0.5161990000000  0.5525060000000 1.0
C      1  0.5718030000000  0.5186230000000  0.5197410000000 1.0
C      1  0.4607600000000  0.5402590000000  0.5900310000000 1.0
C      1  0.5964680000000  0.5398940000000  0.4839490000000 1.0
C      1  0.4372060000000  0.5551730000000  0.4340310000000 1.0
C      1  0.4640140000000  0.4645480000000  0.5995360000000 1.0
C      1  0.5977540000000  0.4589990000000  0.4867360000000 1.0
C      1  0.4355290000000  0.4682550000000  0.4185760000000 1.0
C      1  0.4818420000000  0.4255930000000  0.5648510000000 1.0
C      1  0.5719750000000  0.4275320000000  0.4789820000000 1.0
C      1  0.4523780000000  0.4223120000000  0.4488130000000 1.0
C      1  0.4810360000000  0.5712330000000  0.5709380000000 1.0
C      1  0.5699290000000  0.5729180000000  0.4804040000000 1.0
C      1  0.4460330000000  0.5791790000000  0.4474730000000 1.0
C      1  0.5485010000000  0.4205150000000  0.4654340000000 1.0
C      1  0.4466600000000  0.4173770000000  0.4750070000000 1.0
C      1  0.5054680000000  0.4164250000000  0.5554080000000 1.0
C      1  0.5456280000000  0.5776860000000  0.4673380000000 1.0
C      1  0.4499650000000  0.5794610000000  0.4770380000000 1.0
C      1  0.5043950000000  0.5781940000000  0.5569870000000 1.0
C      1  0.5515990000000  0.5604200000000  0.5498490000000 1.0
C      1  0.5169580000000  0.5589630000000  0.4315440000000 1.0
C      1  0.4302900000000  0.5602220000000  0.5190700000000 1.0
C      1  0.5499070000000  0.4386870000000  0.5513920000000 1.0
C      1  0.5213150000000  0.4386510000000  0.4289790000000 1.0
C      1  0.4294090000000  0.4371810000000  0.5182620000000 1.0
C      1  0.5016680000000  0.5937080000000  0.5307210000000 1.0
C      1  0.5250650000000  0.5926890000000  0.4837450000000 1.0
C      1  0.4735610000000  0.5936530000000  0.4886970000000 1.0
C      1  0.5033870000000  0.4060000000000  0.5269590000000 1.0
C      1  0.5257920000000  0.4060970000000  0.4818730000000 1.0
C      1  0.4723360000000  0.4046120000000  0.4871380000000 1.0
C      1  0.4946250000000  0.4857650000000  0.4008920000000 1.0
C      1  0.4202810000000  0.4866750000000  0.5593390000000 1.0
C      1  0.5930660000000  0.4881220000000  0.5407080000000 1.0
C      1  0.4884420000000  0.5121570000000  0.3911620000000 1.0
C      1  0.4214650000000  0.5171390000000  0.5583580000000 1.0
C      1  0.5857480000000  0.5159730000000  0.5449280000000 1.0
C      1  0.4464780000000  0.5153570000000  0.5921340000000 1.0
C      1  0.6064230000000  0.5121940000000  0.4887320000000 1.0
C      1  0.4611830000000  0.5166690000000  0.4038640000000 1.0
C      1  0.4533120000000  0.4897960000000  0.5967020000000 1.0
C      1  0.6040580000000  0.4851770000000  0.4998590000000 1.0
C      1  0.4428830000000  0.4931870000000  0.4033270000000 1.0
C      1  0.5492660000000  0.4742340000000  0.5155720000000 1.0
C      1  0.4919950000000  0.4714470000000  0.4473300000000 1.0
C      1  0.4604980000000  0.4719670000000  0.5341030000000 1.0
C      1  0.5444550000000  0.5244610000000  0.5150120000000 1.0
C      1  0.4864160000000  0.5212930000000  0.4525650000000 1.0
C      1  0.4671530000000  0.5250200000000  0.5275760000000 1.0
C      1  0.5173780000000  0.4853500000000  0.4487370000000 1.0
C      1  0.4485330000000  0.4849000000000  0.5099560000000 1.0
C      1  0.5347010000000  0.4845640000000  0.5387660000000 1.0
C      1  0.5143090000000  0.5125590000000  0.4498620000000 1.0
C      1  0.4505030000000  0.5121880000000  0.5087350000000 1.0
C      1  0.5330600000000  0.5118190000000  0.5383610000000 1.0
C      1  0.5877780000000  0.5318020000000  0.4566720000000 1.0
C      1  0.4213220000000  0.5346630000000  0.4439930000000 1.0
C      1  0.4898240000000  0.5311780000000  0.5940970000000 1.0
C      1  0.5873040000000  0.4683200000000  0.4607320000000 1.0
C      1  0.4165070000000  0.4708890000000  0.4429740000000 1.0
C      1  0.4954290000000  0.4712310000000  0.5976590000000 1.0
C      1  0.4555530000000  0.5803190000000  0.5630770000000 1.0
C      1  0.5783840000000  0.5792690000000  0.5062060000000 1.0
C      1  0.4688910000000  0.5807220000000  0.4299820000000 1.0
C      1  0.4559100000000  0.4295730000000  0.5633830000000 1.0
C      1  0.5750660000000  0.4239130000000  0.5064710000000 1.0
C      1  0.4707540000000  0.4257690000000  0.4273430000000 1.0
C      1  0.4000900000000  0.4762250000000  0.4977860000000 1.0
C      1  0.5500280000000  0.4708750000000  0.5918610000000 1.0
C      1  0.5626680000000  0.4563460000000  0.4193270000000 1.0
C      1  0.3967080000000  0.5284310000000  0.4936030000000 1.0
C      1  0.5409930000000  0.5411220000000  0.5914070000000 1.0
C      1  0.5510560000000  0.5265910000000  0.4136990000000 1.0
C      1  0.5056610000000  0.4714640000000  0.4942950000000 1.0
C      1  0.4852650000000  0.4430710000000  0.5157360000000 1.0
C      1  0.5111910000000  0.4460460000000  0.5074890000000 1.0
C      1  0.4963780000000  0.5577930000000  0.4872870000000 1.0
C      1  0.4828500000000  0.5557230000000  0.5139770000000 1.0
C      1  0.5137780000000  0.5572510000000  0.5113320000000 1.0
C      1  0.5234040000000  0.4169590000000  0.5088340000000 1.0
C      1  0.4983000000000  0.4044190000000  0.4785630000000 1.0
C      1  0.4777250000000  0.4149710000000  0.5150710000000 1.0
C      1  0.5228240000000  0.5859320000000  0.5120150000000 1.0
C      1  0.4984450000000  0.5847720000000  0.4752470000000 1.0
C      1  0.4777450000000  0.5854990000000  0.5166910000000 1.0
C      1  0.4523560000000  0.4468570000000  0.5816340000000 1.0
C      1  0.5892390000000  0.4450870000000  0.5099040000000 1.0
C      1  0.4551050000000  0.4477810000000  0.4178420000000 1.0
C      1  0.4431950000000  0.5574730000000  0.5731180000000 1.0
C      1  0.5907770000000  0.5549740000000  0.5096610000000 1.0
C      1  0.4628130000000  0.5545440000000  0.4185810000000 1.0
C      1  0.4890890000000  0.5620570000000  0.4316120000000 1.0
C      1  0.4429620000000  0.5623250000000  0.5450260000000 1.0
C      1  0.5669370000000  0.5607530000000  0.5253970000000 1.0
C      1  0.4938400000000  0.4432020000000  0.4358160000000 1.0
C      1  0.4476200000000  0.4422330000000  0.5403490000000 1.0
C      1  0.5595670000000  0.4450890000000  0.5225550000000 1.0
C      1  0.5226610000000  0.5563350000000  0.5482710000000 1.0
C      1  0.5319740000000  0.5551890000000  0.4547590000000 1.0
C      1  0.4439500000000  0.5566410000000  0.4934260000000 1.0
C      1  0.5217130000000  0.4404670000000  0.5565100000000 1.0
C      1  0.5364890000000  0.4434470000000  0.4531110000000 1.0
C      1  0.4413570000000  0.4411770000000  0.4922150000000 1.0
C      1  0.4073040000000  0.4724300000000  0.5389180000000 1.0
C      1  0.5833880000000  0.4755730000000  0.5656310000000 1.0
C      1  0.5236930000000  0.4806180000000  0.4000150000000 1.0
C      1  0.4042220000000  0.5201090000000  0.5342560000000 1.0
C      1  0.5717580000000  0.5198870000000  0.5712980000000 1.0
C      1  0.5145950000000  0.5251780000000  0.3923310000000 1.0
C      1  0.4991360000000  0.4858890000000  0.5726410000000 1.0
C      1  0.5653340000000  0.4849800000000  0.4609240000000 1.0
C      1  0.4302140000000  0.4833830000000  0.4629640000000 1.0
C      1  0.5000740000000  0.5133930000000  0.5728470000000 1.0
C      1  0.5647120000000  0.5136170000000  0.4581750000000 1.0
C      1  0.4299010000000  0.5164400000000  0.4634890000000 1.0
C      1  0.4510380000000  0.4690160000000  0.4854590000000 1.0
C      1  0.5107380000000  0.4708300000000  0.5500530000000 1.0
C      1  0.5394910000000  0.4727530000000  0.4620250000000 1.0
C      1  0.4516380000000  0.5261980000000  0.4848250000000 1.0
C      1  0.5100630000000  0.5243360000000  0.5480340000000 1.0
C      1  0.5338340000000  0.5277170000000  0.4655370000000 1.0
C      1  0.4773190000000  0.5105320000000  0.4773920000000 1.0
C      1  0.4907060000000  0.5078160000000  0.5302430000000 1.0
C      1  0.5318830000000  0.5138900000000  0.4915660000000 1.0
C      1  0.4816270000000  0.4812400000000  0.4790160000000 1.0
C      1  0.4891110000000  0.4796140000000  0.5313720000000 1.0
C      1  0.5313260000000  0.4846490000000  0.4925820000000 1.0
C      1  0.5644260000000  0.4534620000000  0.5718410000000 1.0
C      1  0.5362970000000  0.4559060000000  0.4091380000000 1.0
C      1  0.4042170000000  0.4547100000000  0.5181650000000 1.0
C      1  0.5619300000000  0.5471680000000  0.5751800000000 1.0
C      1  0.5280170000000  0.5444350000000  0.4105950000000 1.0
C      1  0.4052570000000  0.5440670000000  0.5177940000000 1.0
C      1  0.5369380000000  0.5064630000000  0.3964780000000 1.0
C      1  0.3981630000000  0.5033480000000  0.5091050000000 1.0
C      1  0.5692490000000  0.4934260000000  0.5839940000000 1.0
END
