TITL C-2441169-1362-1448 0.0382943707131228 125000 -16271.7134893051 0 0 117 (C1) n - 1
REM
REM in /home/bkarasulu/work/CARBON/AIRSS/Generating-Clusters/ReaxFF-fromJPCA2015/Units_Real/with-SteepDescent/Higher-Symm
REM
REM
REM
REM
REM
REM ./C.cell (1df0a924f5614ab8850e4351716899ee)
REM
REM compiler GCC version 9.2.1 20190827 (Red Hat 9.2.1-1)
REM options -cpp -mtune=generic -march=x86-64 -g -O0 -fpre-include=/usr/include/finclude/math-vector-fortran.h
REM seed -141817801 -928194507 -2110719925 787991421 460082707 1639702697 -957808504 -593624391 56256399 543875802 -730970452 -1051905513 -576404064 1320008844 -1422719738 -292513889 -654715098 1232270059 1913836643 -1781281568 2002758432 -233108656 283927174 859817744 -1017503194 866690330 -1477421376 -895916242 -418272305 316303748 1777485427 2005910204 -394791956
REM
CELL 1.54180   50.00000   50.00000   50.00000   90.00000   90.00000   90.00000
LATT -1
SFAC C  
C      1  0.5489960000000  0.5212420000000  0.4823200000000 1.0
C      1  0.4862460000000  0.5223870000000  0.5544380000000 1.0
C      1  0.4538890000000  0.5229960000000  0.4647620000000 1.0
C      1  0.4830650000000  0.5904590000000  0.4782260000000 1.0
C      1  0.5328150000000  0.5764540000000  0.5015380000000 1.0
C      1  0.4890610000000  0.5798200000000  0.5275830000000 1.0
C      1  0.5624060000000  0.5694370000000  0.4998150000000 1.0
C      1  0.4679470000000  0.5705260000000  0.5495770000000 1.0
C      1  0.4632620000000  0.5670650000000  0.4407410000000 1.0
C      1  0.5429320000000  0.4787380000000  0.5781910000000 1.0
C      1  0.4146560000000  0.4854110000000  0.4926700000000 1.0
C      1  0.5446920000000  0.4801110000000  0.4230560000000 1.0
C      1  0.5188460000000  0.5836280000000  0.5259870000000 1.0
C      1  0.4736240000000  0.5902300000000  0.5037130000000 1.0
C      1  0.4884090000000  0.5804970000000  0.4528300000000 1.0
C      1  0.5519530000000  0.5462790000000  0.5736870000000 1.0
C      1  0.4202730000000  0.5645460000000  0.5214590000000 1.0
C      1  0.5287240000000  0.5562930000000  0.4284730000000 1.0
C      1  0.5203700000000  0.4968620000000  0.4189080000000 1.0
C      1  0.5624110000000  0.4960470000000  0.5596870000000 1.0
C      1  0.4209480000000  0.4900390000000  0.5336820000000 1.0
C      1  0.4187640000000  0.5192470000000  0.5402000000000 1.0
C      1  0.4902550000000  0.5330390000000  0.4079750000000 1.0
C      1  0.5811240000000  0.5324400000000  0.5360550000000 1.0
C      1  0.4776240000000  0.5477150000000  0.5663490000000 1.0
C      1  0.4434700000000  0.5492530000000  0.4544130000000 1.0
C      1  0.5676810000000  0.5477250000000  0.4801860000000 1.0
C      1  0.4655560000000  0.4962340000000  0.4349560000000 1.0
C      1  0.5689240000000  0.4990070000000  0.4947670000000 1.0
C      1  0.4555330000000  0.4985960000000  0.5618330000000 1.0
C      1  0.5751950000000  0.5449910000000  0.4522310000000 1.0
C      1  0.5035620000000  0.5493730000000  0.5810010000000 1.0
C      1  0.4219360000000  0.5482220000000  0.4738110000000 1.0
C      1  0.5325410000000  0.4542270000000  0.4278680000000 1.0
C      1  0.5469740000000  0.4520380000000  0.5670690000000 1.0
C      1  0.4196680000000  0.4594350000000  0.5049950000000 1.0
C      1  0.4824050000000  0.4168840000000  0.5115340000000 1.0
C      1  0.4908960000000  0.4151210000000  0.4793050000000 1.0
C      1  0.5288050000000  0.4179040000000  0.5134880000000 1.0
C      1  0.4099100000000  0.5366280000000  0.5188280000000 1.0
C      1  0.5217360000000  0.5305550000000  0.4105700000000 1.0
C      1  0.5693650000000  0.5271020000000  0.5635980000000 1.0
C      1  0.4462770000000  0.4308190000000  0.4468490000000 1.0
C      1  0.5694250000000  0.4287370000000  0.4820740000000 1.0
C      1  0.4821980000000  0.4219120000000  0.5744660000000 1.0
C      1  0.4832010000000  0.4583070000000  0.4210560000000 1.0
C      1  0.5793450000000  0.4592520000000  0.5254880000000 1.0
C      1  0.4440760000000  0.4530180000000  0.5559910000000 1.0
C      1  0.5025460000000  0.4374520000000  0.4618050000000 1.0
C      1  0.5335500000000  0.4468530000000  0.5214810000000 1.0
C      1  0.4603530000000  0.4310340000000  0.5205590000000 1.0
C      1  0.4425780000000  0.5691520000000  0.5385370000000 1.0
C      1  0.4776380000000  0.5514240000000  0.4238100000000 1.0
C      1  0.5730760000000  0.5538860000000  0.5205300000000 1.0
C      1  0.5112490000000  0.5603170000000  0.4518700000000 1.0
C      1  0.5311720000000  0.5633730000000  0.5427810000000 1.0
C      1  0.4579630000000  0.5636530000000  0.4995920000000 1.0
C      1  0.4707760000000  0.4479710000000  0.5687060000000 1.0
C      1  0.4583010000000  0.4538960000000  0.4372700000000 1.0
C      1  0.5792430000000  0.4521000000000  0.4963710000000 1.0
C      1  0.4819020000000  0.5225280000000  0.4747340000000 1.0
C      1  0.5292250000000  0.5251830000000  0.5044920000000 1.0
C      1  0.4864920000000  0.5218250000000  0.5259530000000 1.0
C      1  0.5231670000000  0.4869420000000  0.4906070000000 1.0
C      1  0.4953290000000  0.4828680000000  0.5358290000000 1.0
C      1  0.4747020000000  0.4826700000000  0.4791310000000 1.0
C      1  0.4872340000000  0.4871990000000  0.4534450000000 1.0
C      1  0.5432560000000  0.4852150000000  0.5114880000000 1.0
C      1  0.4668680000000  0.4873300000000  0.5369000000000 1.0
C      1  0.5288000000000  0.5626380000000  0.5726510000000 1.0
C      1  0.4294040000000  0.5682770000000  0.4932830000000 1.0
C      1  0.5518560000000  0.5576350000000  0.4432700000000 1.0
C      1  0.4170810000000  0.5246120000000  0.4928020000000 1.0
C      1  0.5806560000000  0.5153350000000  0.4456960000000 1.0
C      1  0.5152160000000  0.5227630000000  0.5814130000000 1.0
C      1  0.5199150000000  0.4426650000000  0.5624510000000 1.0
C      1  0.4358270000000  0.4460930000000  0.4848190000000 1.0
C      1  0.5459510000000  0.4454930000000  0.4519390000000 1.0
C      1  0.5051940000000  0.4439160000000  0.4329900000000 1.0
C      1  0.5569340000000  0.4468390000000  0.5395080000000 1.0
C      1  0.4387560000000  0.4448970000000  0.5276710000000 1.0
C      1  0.5845240000000  0.5073640000000  0.5193950000000 1.0
C      1  0.4462470000000  0.5249700000000  0.5498840000000 1.0
C      1  0.4773200000000  0.5059850000000  0.4095770000000 1.0
C      1  0.4640290000000  0.4086190000000  0.4754410000000 1.0
C      1  0.5312130000000  0.4123210000000  0.4859570000000 1.0
C      1  0.5046750000000  0.4098600000000  0.5290850000000 1.0
C      1  0.4258150000000  0.4852250000000  0.4658580000000 1.0
C      1  0.5677690000000  0.4896910000000  0.4387840000000 1.0
C      1  0.5136320000000  0.4818960000000  0.5815650000000 1.0
C      1  0.5195000000000  0.5512730000000  0.4970140000000 1.0
C      1  0.4952300000000  0.5490700000000  0.5122210000000 1.0
C      1  0.4778430000000  0.5457090000000  0.4903120000000 1.0
C      1  0.4446400000000  0.5147470000000  0.5007470000000 1.0
C      1  0.5284220000000  0.5161200000000  0.4606360000000 1.0
C      1  0.5262230000000  0.5165780000000  0.5526390000000 1.0
C      1  0.5821400000000  0.4856270000000  0.5373340000000 1.0
C      1  0.4329440000000  0.4797200000000  0.5589100000000 1.0
C      1  0.4940180000000  0.4827350000000  0.4084420000000 1.0
C      1  0.5623610000000  0.4564310000000  0.4728560000000 1.0
C      1  0.4985440000000  0.4637930000000  0.5621880000000 1.0
C      1  0.4503420000000  0.4668150000000  0.4668300000000 1.0
C      1  0.4884390000000  0.4627630000000  0.4963770000000 1.0
C      1  0.5117370000000  0.4581210000000  0.4795660000000 1.0
C      1  0.5060590000000  0.4609800000000  0.5207100000000 1.0
C      1  0.4406170000000  0.5025720000000  0.4482570000000 1.0
C      1  0.5791000000000  0.4952370000000  0.4658640000000 1.0
C      1  0.4933140000000  0.5035470000000  0.5772290000000 1.0
C      1  0.4376360000000  0.4191500000000  0.4714910000000 1.0
C      1  0.5477780000000  0.4181650000000  0.4637390000000 1.0
C      1  0.5074000000000  0.4172370000000  0.5570240000000 1.0
C      1  0.5056780000000  0.5330480000000  0.4605750000000 1.0
C      1  0.5319200000000  0.5348200000000  0.5324670000000 1.0
C      1  0.4584430000000  0.5303110000000  0.5225520000000 1.0
C      1  0.5148880000000  0.4945820000000  0.4486390000000 1.0
C      1  0.5392700000000  0.4944060000000  0.5402140000000 1.0
C      1  0.4461150000000  0.4896270000000  0.5169370000000 1.0
END
