TITL C-2441161-5029-830 0.0965582466373972 125000 -24588.3181103204 0 0 181 (C1) n - 1
REM
REM in /home/bkarasulu/work/CARBON/AIRSS/Generating-Clusters/ReaxFF-fromJPCA2015/Units_Real/with-SteepDescent/Higher-Symm
REM
REM
REM
REM
REM
REM ./C.cell (1df0a924f5614ab8850e4351716899ee)
REM
REM compiler GCC version 9.2.1 20190827 (Red Hat 9.2.1-1)
REM options -cpp -mtune=generic -march=x86-64 -g -O0 -fpre-include=/usr/include/finclude/math-vector-fortran.h
REM seed -46929074 1197287235 348970315 144482623 1278162800 -2066489976 -1851672477 -1276512650 11683862 -1725181544 1222073207 803852047 1522552885 1581193765 -1115829303 827332158 -1574006791 -1175212787 -743095403 -1837316233 -171585593 -1764797683 2114563596 -2064102638 -1463322338 -381151259 -1897442504 -1974447286 1301675182 -650791874 862381378 1057774218 -806189436
REM
CELL 1.54180   50.00000   50.00000   50.00000   90.00000   90.00000   90.00000
LATT -1
SFAC C  
C      1  0.4857770000000  0.4549670000000  0.5303620000000 1.0
C      1  0.5322380000000  0.4558170000000  0.5016210000000 1.0
C      1  0.4838590000000  0.4548430000000  0.4706740000000 1.0
C      1  0.4430860000000  0.5101910000000  0.4791480000000 1.0
C      1  0.5131410000000  0.5120540000000  0.5606080000000 1.0
C      1  0.5516420000000  0.5128920000000  0.4640990000000 1.0
C      1  0.4659540000000  0.5695860000000  0.4233450000000 1.0
C      1  0.4542060000000  0.5624170000000  0.5644780000000 1.0
C      1  0.5907590000000  0.5662480000000  0.5124500000000 1.0
C      1  0.5502670000000  0.5420930000000  0.5773740000000 1.0
C      1  0.5408120000000  0.5423920000000  0.4188470000000 1.0
C      1  0.4093230000000  0.5422540000000  0.5039320000000 1.0
C      1  0.4584900000000  0.6002770000000  0.4910410000000 1.0
C      1  0.5083420000000  0.6028690000000  0.5460130000000 1.0
C      1  0.5349960000000  0.6021160000000  0.4738980000000 1.0
C      1  0.4914570000000  0.4818550000000  0.4729520000000 1.0
C      1  0.4822470000000  0.4796430000000  0.5178580000000 1.0
C      1  0.5253560000000  0.4834680000000  0.5052610000000 1.0
C      1  0.5638590000000  0.4262980000000  0.5398950000000 1.0
C      1  0.5004210000000  0.4228470000000  0.4296650000000 1.0
C      1  0.4337410000000  0.4236100000000  0.5330060000000 1.0
C      1  0.4428450000000  0.5016760000000  0.5205380000000 1.0
C      1  0.5512580000000  0.4939070000000  0.5429850000000 1.0
C      1  0.5165550000000  0.5002180000000  0.4415420000000 1.0
C      1  0.4617850000000  0.3963910000000  0.4955280000000 1.0
C      1  0.5219190000000  0.3981080000000  0.5341240000000 1.0
C      1  0.5231730000000  0.3967750000000  0.4697330000000 1.0
C      1  0.5599550000000  0.4538970000000  0.5029680000000 1.0
C      1  0.4719450000000  0.4536020000000  0.4462600000000 1.0
C      1  0.4618430000000  0.4601040000000  0.5464410000000 1.0
C      1  0.5448700000000  0.4904930000000  0.4810810000000 1.0
C      1  0.4616680000000  0.4970340000000  0.4638980000000 1.0
C      1  0.5004510000000  0.4898140000000  0.5504370000000 1.0
C      1  0.5724050000000  0.5691030000000  0.5357700000000 1.0
C      1  0.4950270000000  0.5769910000000  0.4125480000000 1.0
C      1  0.4179760000000  0.5775240000000  0.5356610000000 1.0
C      1  0.4912770000000  0.5032370000000  0.4304100000000 1.0
C      1  0.4504790000000  0.5082770000000  0.5460100000000 1.0
C      1  0.5623370000000  0.5014580000000  0.5169000000000 1.0
C      1  0.5564990000000  0.4443340000000  0.4581810000000 1.0
C      1  0.4364010000000  0.4476490000000  0.4730140000000 1.0
C      1  0.5084560000000  0.4440890000000  0.5699020000000 1.0
C      1  0.6163560000000  0.4979070000000  0.5007110000000 1.0
C      1  0.4460460000000  0.4994780000000  0.4020900000000 1.0
C      1  0.4463370000000  0.4938160000000  0.5949060000000 1.0
C      1  0.4411420000000  0.4242550000000  0.4578370000000 1.0
C      1  0.4897580000000  0.4213320000000  0.5702820000000 1.0
C      1  0.5694270000000  0.4237500000000  0.4717070000000 1.0
C      1  0.5401980000000  0.5763990000000  0.4518230000000 1.0
C      1  0.4426000000000  0.5775220000000  0.4737440000000 1.0
C      1  0.5221680000000  0.5768300000000  0.5559190000000 1.0
C      1  0.5959600000000  0.5600950000000  0.4712760000000 1.0
C      1  0.4264870000000  0.5612410000000  0.4343070000000 1.0
C      1  0.4877280000000  0.5710090000000  0.5874900000000 1.0
C      1  0.5487510000000  0.4396680000000  0.5605340000000 1.0
C      1  0.5342710000000  0.4467680000000  0.4246110000000 1.0
C      1  0.4248050000000  0.4387550000000  0.5102040000000 1.0
C      1  0.5006320000000  0.5519920000000  0.4451190000000 1.0
C      1  0.4529610000000  0.5501170000000  0.5053460000000 1.0
C      1  0.5459410000000  0.5368360000000  0.5288990000000 1.0
C      1  0.4762520000000  0.3959810000000  0.4706930000000 1.0
C      1  0.4805910000000  0.3972480000000  0.5366040000000 1.0
C      1  0.5385710000000  0.3952890000000  0.4956540000000 1.0
C      1  0.4000420000000  0.5150840000000  0.4995940000000 1.0
C      1  0.5503340000000  0.5172330000000  0.5921580000000 1.0
C      1  0.5507820000000  0.5157670000000  0.4123810000000 1.0
C      1  0.5018620000000  0.3968480000000  0.5543300000000 1.0
C      1  0.5521210000000  0.4004450000000  0.4702160000000 1.0
C      1  0.4489190000000  0.4015040000000  0.4713600000000 1.0
C      1  0.5245980000000  0.4478170000000  0.5460800000000 1.0
C      1  0.5283070000000  0.4485280000000  0.4543140000000 1.0
C      1  0.4492800000000  0.4501170000000  0.4989070000000 1.0
C      1  0.5677450000000  0.4744730000000  0.4858010000000 1.0
C      1  0.4505500000000  0.4722990000000  0.4527680000000 1.0
C      1  0.4795960000000  0.4757270000000  0.5641970000000 1.0
C      1  0.4548390000000  0.4669450000000  0.5985330000000 1.0
C      1  0.6103390000000  0.4691480000000  0.4952510000000 1.0
C      1  0.4413940000000  0.4707360000000  0.4103510000000 1.0
C      1  0.4353100000000  0.5206390000000  0.4196570000000 1.0
C      1  0.4597100000000  0.5196180000000  0.5946930000000 1.0
C      1  0.6051420000000  0.5188770000000  0.4834790000000 1.0
C      1  0.5144940000000  0.4360710000000  0.4909360000000 1.0
C      1  0.4842500000000  0.4349120000000  0.4915980000000 1.0
C      1  0.4999570000000  0.4339010000000  0.5166130000000 1.0
C      1  0.5020930000000  0.5643400000000  0.5145620000000 1.0
C      1  0.5143340000000  0.5632680000000  0.4912640000000 1.0
C      1  0.4876870000000  0.5729920000000  0.4893750000000 1.0
C      1  0.5015910000000  0.5474750000000  0.5963340000000 1.0
C      1  0.5835620000000  0.5438930000000  0.4490850000000 1.0
C      1  0.4130680000000  0.5436800000000  0.4542620000000 1.0
C      1  0.5054080000000  0.5234930000000  0.4798590000000 1.0
C      1  0.4876360000000  0.5237580000000  0.4988810000000 1.0
C      1  0.4958170000000  0.5227890000000  0.5253800000000 1.0
C      1  0.4468230000000  0.5799060000000  0.4439000000000 1.0
C      1  0.4710750000000  0.5865030000000  0.5703570000000 1.0
C      1  0.5762770000000  0.5740700000000  0.4885620000000 1.0
C      1  0.5629950000000  0.4506760000000  0.4315750000000 1.0
C      1  0.4096770000000  0.4420990000000  0.4843010000000 1.0
C      1  0.5324870000000  0.4413390000000  0.5863970000000 1.0
C      1  0.5005970000000  0.5617840000000  0.5414800000000 1.0
C      1  0.5357070000000  0.5597800000000  0.4753720000000 1.0
C      1  0.4636450000000  0.5568710000000  0.4801490000000 1.0
C      1  0.3906790000000  0.4737360000000  0.5005250000000 1.0
C      1  0.5536890000000  0.4751240000000  0.5947830000000 1.0
C      1  0.5290730000000  0.4665420000000  0.4033750000000 1.0
C      1  0.4198190000000  0.5341070000000  0.5611840000000 1.0
C      1  0.5911080000000  0.5190720000000  0.5491440000000 1.0
C      1  0.4948060000000  0.5273140000000  0.3954990000000 1.0
C      1  0.5048200000000  0.4891500000000  0.6032830000000 1.0
C      1  0.5959410000000  0.4886940000000  0.4473510000000 1.0
C      1  0.4078250000000  0.4890150000000  0.4523250000000 1.0
C      1  0.5999890000000  0.4460220000000  0.5106560000000 1.0
C      1  0.4572750000000  0.4450950000000  0.4096170000000 1.0
C      1  0.4426930000000  0.4436700000000  0.5832330000000 1.0
C      1  0.3897020000000  0.4945830000000  0.5190100000000 1.0
C      1  0.5711750000000  0.4960480000000  0.5894170000000 1.0
C      1  0.5374400000000  0.4944820000000  0.3958270000000 1.0
C      1  0.5948960000000  0.5173880000000  0.4560400000000 1.0
C      1  0.4149610000000  0.5176620000000  0.4401840000000 1.0
C      1  0.4880940000000  0.5211970000000  0.5998730000000 1.0
C      1  0.5082500000000  0.6035930000000  0.4624400000000 1.0
C      1  0.4617770000000  0.5982900000000  0.5200360000000 1.0
C      1  0.5323790000000  0.6074850000000  0.5278660000000 1.0
C      1  0.5292280000000  0.4670460000000  0.6013110000000 1.0
C      1  0.5741390000000  0.4780420000000  0.4312190000000 1.0
C      1  0.3962750000000  0.4659130000000  0.4752770000000 1.0
C      1  0.4844840000000  0.4861230000000  0.4084350000000 1.0
C      1  0.4350650000000  0.4928030000000  0.5677060000000 1.0
C      1  0.5862810000000  0.4882200000000  0.5242390000000 1.0
C      1  0.5211990000000  0.4777100000000  0.4593860000000 1.0
C      1  0.4532450000000  0.4744160000000  0.5169420000000 1.0
C      1  0.5254790000000  0.4777490000000  0.5378140000000 1.0
C      1  0.4577340000000  0.4064100000000  0.5233600000000 1.0
C      1  0.5445870000000  0.4079870000000  0.5224990000000 1.0
C      1  0.4994270000000  0.4070920000000  0.4549300000000 1.0
C      1  0.5009720000000  0.4633450000000  0.3993100000000 1.0
C      1  0.4211010000000  0.4679500000000  0.5513840000000 1.0
C      1  0.5871200000000  0.4714700000000  0.5474800000000 1.0
C      1  0.5879460000000  0.4946110000000  0.5645180000000 1.0
C      1  0.5146210000000  0.5095920000000  0.3912830000000 1.0
C      1  0.3998860000000  0.4874090000000  0.5463950000000 1.0
C      1  0.4827720000000  0.4727080000000  0.5924350000000 1.0
C      1  0.5931590000000  0.4720390000000  0.4717850000000 1.0
C      1  0.4266690000000  0.4729090000000  0.4352630000000 1.0
C      1  0.5530640000000  0.5262340000000  0.5028930000000 1.0
C      1  0.4721890000000  0.5168960000000  0.4470920000000 1.0
C      1  0.4746590000000  0.5230900000000  0.5447460000000 1.0
C      1  0.5579620000000  0.5018580000000  0.4375150000000 1.0
C      1  0.4166790000000  0.5024150000000  0.4785810000000 1.0
C      1  0.5230900000000  0.5057570000000  0.5865050000000 1.0
C      1  0.5881300000000  0.4438380000000  0.5378510000000 1.0
C      1  0.4876260000000  0.4383290000000  0.4078110000000 1.0
C      1  0.4258320000000  0.4398340000000  0.5571910000000 1.0
C      1  0.4423540000000  0.5397330000000  0.5785410000000 1.0
C      1  0.6062460000000  0.5462380000000  0.4950850000000 1.0
C      1  0.4455120000000  0.5487790000000  0.4159050000000 1.0
C      1  0.6078430000000  0.5087900000000  0.5274540000000 1.0
C      1  0.4727730000000  0.5071160000000  0.3915400000000 1.0
C      1  0.4097300000000  0.5076830000000  0.5643550000000 1.0
C      1  0.5112740000000  0.5803800000000  0.4435870000000 1.0
C      1  0.4457240000000  0.5734520000000  0.5206370000000 1.0
C      1  0.5473330000000  0.5839360000000  0.5369620000000 1.0
C      1  0.5264740000000  0.5566160000000  0.5810160000000 1.0
C      1  0.5582070000000  0.5549950000000  0.4374570000000 1.0
C      1  0.4183170000000  0.5559420000000  0.4801270000000 1.0
C      1  0.5585740000000  0.5500650000000  0.4875130000000 1.0
C      1  0.4760790000000  0.5424960000000  0.4563220000000 1.0
C      1  0.4776200000000  0.5492950000000  0.5521510000000 1.0
C      1  0.4796860000000  0.6012550000000  0.5447990000000 1.0
C      1  0.5373780000000  0.6035950000000  0.5008610000000 1.0
C      1  0.4844340000000  0.6012660000000  0.4785930000000 1.0
C      1  0.4621630000000  0.4274860000000  0.5719540000000 1.0
C      1  0.5777930000000  0.4299310000000  0.4994340000000 1.0
C      1  0.4573900000000  0.4306870000000  0.4351700000000 1.0
C      1  0.5091140000000  0.5471180000000  0.4164260000000 1.0
C      1  0.4126570000000  0.5492060000000  0.5346680000000 1.0
C      1  0.5677070000000  0.5420530000000  0.5496730000000 1.0
C      1  0.5212900000000  0.5260020000000  0.5373500000000 1.0
C      1  0.5244930000000  0.5231330000000  0.4584730000000 1.0
C      1  0.4530840000000  0.5218720000000  0.5024720000000 1.0
C      1  0.4988170000000  0.4857160000000  0.4989980000000 1.0
END
