TITL C-2441160-1326-1038 0.0986800152128092 125000 -15877.1612723864 0 0 123 (C1) n - 1
REM
REM in /home/bkarasulu/work/CARBON/AIRSS/Generating-Clusters/ReaxFF-fromJPCA2015/Units_Real/with-SteepDescent/Higher-Symm
REM
REM
REM
REM
REM
REM ./C.cell (1df0a924f5614ab8850e4351716899ee)
REM
REM compiler GCC version 9.2.1 20190827 (Red Hat 9.2.1-1)
REM options -cpp -mtune=generic -march=x86-64 -g -O0 -fpre-include=/usr/include/finclude/math-vector-fortran.h
REM seed -1217078775 1970207305 -365870473 -1977833490 -650603534 -2125837354 -69689509 -999870994 -1579074726 -483754960 -2011272724 -1958919469 -966123440 853798133 905117827 -1530555296 -1923286913 1427004168 342199611 -1711739940 1357822574 -312686459 -1587106083 -1436427437 -1077337037 96559923 -194694438 -920081909 385656198 350677752 -2133897607 -1054452915 -88657377
REM
CELL 1.54180   50.00000   50.00000   50.00000   90.00000   90.00000   90.00000
LATT -1
SFAC C  
C      1  0.5263370000000  0.5003110000000  0.4864090000000 1.0
C      1  0.5045260000000  0.4909410000000  0.4690610000000 1.0
C      1  0.4749040000000  0.4895600000000  0.4751960000000 1.0
C      1  0.4592710000000  0.4951700000000  0.4990060000000 1.0
C      1  0.4749140000000  0.4902210000000  0.5227600000000 1.0
C      1  0.5154950000000  0.4883650000000  0.5314900000000 1.0
C      1  0.5389380000000  0.4936990000000  0.5138860000000 1.0
C      1  0.4612510000000  0.5451730000000  0.5086390000000 1.0
C      1  0.4781550000000  0.5428170000000  0.5332690000000 1.0
C      1  0.5067980000000  0.5489120000000  0.5319470000000 1.0
C      1  0.5374910000000  0.5415540000000  0.5057540000000 1.0
C      1  0.5349100000000  0.5427760000000  0.4758580000000 1.0
C      1  0.5066230000000  0.5407040000000  0.4628380000000 1.0
C      1  0.4686070000000  0.5393740000000  0.4805740000000 1.0
C      1  0.4399730000000  0.4879850000000  0.5697550000000 1.0
C      1  0.5169780000000  0.4875790000000  0.5913270000000 1.0
C      1  0.5822700000000  0.4879830000000  0.5437760000000 1.0
C      1  0.5844610000000  0.4877720000000  0.4634980000000 1.0
C      1  0.5235510000000  0.4879110000000  0.4117140000000 1.0
C      1  0.4448180000000  0.4883950000000  0.4261190000000 1.0
C      1  0.4050630000000  0.4870410000000  0.4963570000000 1.0
C      1  0.5331040000000  0.4563080000000  0.4816220000000 1.0
C      1  0.5114370000000  0.4625590000000  0.4652010000000 1.0
C      1  0.4679260000000  0.4617490000000  0.4733600000000 1.0
C      1  0.4648210000000  0.4557740000000  0.5003930000000 1.0
C      1  0.4795450000000  0.4645030000000  0.5373920000000 1.0
C      1  0.5061160000000  0.4630470000000  0.5429130000000 1.0
C      1  0.5391480000000  0.4641080000000  0.5072710000000 1.0
C      1  0.5628850000000  0.5293270000000  0.5023540000000 1.0
C      1  0.5456060000000  0.5267700000000  0.4554110000000 1.0
C      1  0.4933410000000  0.5261920000000  0.4400350000000 1.0
C      1  0.4478060000000  0.5253530000000  0.4690050000000 1.0
C      1  0.4384730000000  0.5347570000000  0.5238380000000 1.0
C      1  0.4787600000000  0.5267130000000  0.5581580000000 1.0
C      1  0.5342010000000  0.5338490000000  0.5510290000000 1.0
C      1  0.4583250000000  0.4450020000000  0.5654120000000 1.0
C      1  0.5262420000000  0.4449000000000  0.5741360000000 1.0
C      1  0.5717590000000  0.4460240000000  0.5259910000000 1.0
C      1  0.5657980000000  0.4445570000000  0.4596280000000 1.0
C      1  0.5082950000000  0.4466980000000  0.4235660000000 1.0
C      1  0.4450610000000  0.4453790000000  0.4447100000000 1.0
C      1  0.4234000000000  0.4452290000000  0.5083600000000 1.0
C      1  0.5628620000000  0.5613070000000  0.4420360000000 1.0
C      1  0.4958900000000  0.5601320000000  0.4173520000000 1.0
C      1  0.4322200000000  0.5608820000000  0.4532680000000 1.0
C      1  0.4203400000000  0.5579210000000  0.5237530000000 1.0
C      1  0.4677290000000  0.5599950000000  0.5791160000000 1.0
C      1  0.5434420000000  0.5553430000000  0.5678110000000 1.0
C      1  0.5840360000000  0.5601690000000  0.5163840000000 1.0
C      1  0.4222270000000  0.4629680000000  0.5315170000000 1.0
C      1  0.4762050000000  0.4617880000000  0.5820240000000 1.0
C      1  0.5492130000000  0.4627280000000  0.5699450000000 1.0
C      1  0.5844230000000  0.4626830000000  0.5055030000000 1.0
C      1  0.5568670000000  0.4624080000000  0.4381380000000 1.0
C      1  0.4857300000000  0.4634380000000  0.4160920000000 1.0
C      1  0.4250680000000  0.4620350000000  0.4588790000000 1.0
C      1  0.4368960000000  0.4625390000000  0.5572690000000 1.0
C      1  0.5057440000000  0.4617490000000  0.5862970000000 1.0
C      1  0.5703910000000  0.4625020000000  0.5494540000000 1.0
C      1  0.5812790000000  0.4624000000000  0.4761470000000 1.0
C      1  0.5316540000000  0.4632120000000  0.4228090000000 1.0
C      1  0.4577850000000  0.4632350000000  0.4255700000000 1.0
C      1  0.4147240000000  0.4616610000000  0.4864960000000 1.0
C      1  0.5080600000000  0.4124810000000  0.5327040000000 1.0
C      1  0.5297360000000  0.4139800000000  0.5132810000000 1.0
C      1  0.5293860000000  0.4095380000000  0.4842700000000 1.0
C      1  0.5062650000000  0.4127530000000  0.4663400000000 1.0
C      1  0.4781750000000  0.4126160000000  0.4736970000000 1.0
C      1  0.4662320000000  0.4098360000000  0.5005820000000 1.0
C      1  0.4793810000000  0.4136630000000  0.5264470000000 1.0
C      1  0.4672630000000  0.5712180000000  0.5403380000000 1.0
C      1  0.5084060000000  0.5731590000000  0.5486430000000 1.0
C      1  0.5432030000000  0.5685980000000  0.5199530000000 1.0
C      1  0.5467680000000  0.5715750000000  0.4775990000000 1.0
C      1  0.5114990000000  0.5710120000000  0.4534840000000 1.0
C      1  0.4701690000000  0.5684520000000  0.4623960000000 1.0
C      1  0.4517610000000  0.5720500000000  0.5011230000000 1.0
C      1  0.4160710000000  0.5346160000000  0.5077790000000 1.0
C      1  0.4548300000000  0.5349360000000  0.5735850000000 1.0
C      1  0.5276380000000  0.5340980000000  0.5782950000000 1.0
C      1  0.5775820000000  0.5331960000000  0.5272490000000 1.0
C      1  0.5731200000000  0.5363200000000  0.4522540000000 1.0
C      1  0.5086640000000  0.5348840000000  0.4163030000000 1.0
C      1  0.4387350000000  0.5352090000000  0.4433620000000 1.0
C      1  0.4415470000000  0.5780130000000  0.5274210000000 1.0
C      1  0.4835270000000  0.5787950000000  0.5639630000000 1.0
C      1  0.5369510000000  0.5757320000000  0.5481840000000 1.0
C      1  0.5636280000000  0.5775770000000  0.5012870000000 1.0
C      1  0.5406330000000  0.5781630000000  0.4494170000000 1.0
C      1  0.4866600000000  0.5768850000000  0.4388250000000 1.0
C      1  0.4442560000000  0.5784530000000  0.4718580000000 1.0
C      1  0.5470860000000  0.5018120000000  0.4218580000000 1.0
C      1  0.4680750000000  0.5031500000000  0.4159560000000 1.0
C      1  0.4133940000000  0.5009050000000  0.4724640000000 1.0
C      1  0.4242100000000  0.5023120000000  0.5495370000000 1.0
C      1  0.4916840000000  0.5021500000000  0.5908790000000 1.0
C      1  0.5642360000000  0.5019280000000  0.5619580000000 1.0
C      1  0.5907030000000  0.5022390000000  0.4880290000000 1.0
C      1  0.4940510000000  0.4893750000000  0.4092670000000 1.0
C      1  0.4240680000000  0.4884710000000  0.4482440000000 1.0
C      1  0.4123100000000  0.4884340000000  0.5255500000000 1.0
C      1  0.4661750000000  0.4882410000000  0.5843500000000 1.0
C      1  0.5447800000000  0.4887850000000  0.5799190000000 1.0
C      1  0.5898210000000  0.4887910000000  0.5147730000000 1.0
C      1  0.5676560000000  0.4883760000000  0.4388740000000 1.0
C      1  0.4658400000000  0.5256780000000  0.4322120000000 1.0
C      1  0.4324790000000  0.5152190000000  0.4897300000000 1.0
C      1  0.4370910000000  0.5263420000000  0.5514980000000 1.0
C      1  0.5004760000000  0.5250510000000  0.5769610000000 1.0
C      1  0.5544820000000  0.5173360000000  0.5400150000000 1.0
C      1  0.5799410000000  0.5270590000000  0.4802120000000 1.0
C      1  0.5346860000000  0.5255880000000  0.4293740000000 1.0
C      1  0.4476870000000  0.4322690000000  0.5002580000000 1.0
C      1  0.4674300000000  0.4378120000000  0.5388910000000 1.0
C      1  0.5148650000000  0.4357450000000  0.5494190000000 1.0
C      1  0.5445480000000  0.4389800000000  0.5198550000000 1.0
C      1  0.5475230000000  0.4311760000000  0.4772840000000 1.0
C      1  0.5085930000000  0.4378350000000  0.4507050000000 1.0
C      1  0.4680190000000  0.4364170000000  0.4595100000000 1.0
C      1  0.4953200000000  0.5320430000000  0.4877050000000 1.0
C      1  0.5059520000000  0.5522330000000  0.5034060000000 1.0
C      1  0.4952350000000  0.4517910000000  0.5021330000000 1.0
C      1  0.4995800000000  0.4809440000000  0.5076480000000 1.0
END
