TITL C-2441165-58-533 0.0965177919567335 125000 -24314.7686983822 0 0 181 (C1) n - 1
REM
REM in /home/bkarasulu/work/CARBON/AIRSS/Generating-Clusters/ReaxFF-fromJPCA2015/Units_Real/with-SteepDescent/Higher-Symm
REM
REM
REM
REM
REM
REM ./C.cell (1df0a924f5614ab8850e4351716899ee)
REM
REM compiler GCC version 9.2.1 20190827 (Red Hat 9.2.1-1)
REM options -cpp -mtune=generic -march=x86-64 -g -O0 -fpre-include=/usr/include/finclude/math-vector-fortran.h
REM seed 944586044 1082948356 -1283160443 -1041534206 281825299 -1144586057 745579280 -1151506167 -209641977 -2118221909 1576352152 -1916532858 294092963 1475523011 212552088 1170080285 -1352631923 1850198307 -632236946 1464716564 -1371886863 636655522 -787527081 1653542281 -1660970558 -1226200504 -1210356877 1079016888 -780731849 477638667 376419888 -1911248717 1093267144
REM
CELL 1.54180   50.00000   50.00000   50.00000   90.00000   90.00000   90.00000
LATT -1
SFAC C  
C      1  0.4913070000000  0.5590290000000  0.4155920000000 1.0
C      1  0.5214200000000  0.5527090000000  0.5804020000000 1.0
C      1  0.5462440000000  0.5368160000000  0.4151540000000 1.0
C      1  0.5584740000000  0.5096930000000  0.5822010000000 1.0
C      1  0.5567120000000  0.4791540000000  0.4165590000000 1.0
C      1  0.5413000000000  0.4560920000000  0.5934930000000 1.0
C      1  0.5108730000000  0.4428020000000  0.4143580000000 1.0
C      1  0.4755410000000  0.4481880000000  0.5854180000000 1.0
C      1  0.4512450000000  0.4656320000000  0.4108490000000 1.0
C      1  0.4410710000000  0.4926200000000  0.5833850000000 1.0
C      1  0.4465550000000  0.5229000000000  0.4188000000000 1.0
C      1  0.4627260000000  0.5482640000000  0.5828380000000 1.0
C      1  0.4855820000000  0.4415290000000  0.4974430000000 1.0
C      1  0.4616550000000  0.4528750000000  0.5107120000000 1.0
C      1  0.4397210000000  0.4634900000000  0.4936920000000 1.0
C      1  0.4444780000000  0.5022890000000  0.5062300000000 1.0
C      1  0.4498880000000  0.5294250000000  0.5001630000000 1.0
C      1  0.4829410000000  0.5562560000000  0.4989460000000 1.0
C      1  0.5068880000000  0.5629900000000  0.4883650000000 1.0
C      1  0.5292730000000  0.5527520000000  0.4971920000000 1.0
C      1  0.5546100000000  0.5136960000000  0.4972070000000 1.0
C      1  0.5594100000000  0.4915940000000  0.5124730000000 1.0
C      1  0.5541370000000  0.4680540000000  0.4960520000000 1.0
C      1  0.5093570000000  0.4560170000000  0.4926530000000 1.0
C      1  0.4738830000000  0.3942360000000  0.4708370000000 1.0
C      1  0.4302370000000  0.4239260000000  0.5306220000000 1.0
C      1  0.3990630000000  0.4651130000000  0.4713300000000 1.0
C      1  0.3992330000000  0.5242410000000  0.5300360000000 1.0
C      1  0.4226130000000  0.5724910000000  0.4688850000000 1.0
C      1  0.4697240000000  0.6027530000000  0.5298490000000 1.0
C      1  0.5234800000000  0.5996670000000  0.4700350000000 1.0
C      1  0.5709700000000  0.5755590000000  0.5293480000000 1.0
C      1  0.6017470000000  0.5307390000000  0.4727960000000 1.0
C      1  0.6010350000000  0.4751260000000  0.5250620000000 1.0
C      1  0.5712680000000  0.4305800000000  0.4707570000000 1.0
C      1  0.5293160000000  0.3957570000000  0.5258430000000 1.0
C      1  0.4188590000000  0.4511990000000  0.5283310000000 1.0
C      1  0.4003940000000  0.4945010000000  0.4737740000000 1.0
C      1  0.4179830000000  0.5465870000000  0.5248170000000 1.0
C      1  0.4491270000000  0.5831610000000  0.4746270000000 1.0
C      1  0.4978810000000  0.5995530000000  0.5217160000000 1.0
C      1  0.5488350000000  0.5826890000000  0.4737420000000 1.0
C      1  0.5818030000000  0.5493840000000  0.5210700000000 1.0
C      1  0.5970570000000  0.5035340000000  0.4788900000000 1.0
C      1  0.5810750000000  0.4562840000000  0.5109020000000 1.0
C      1  0.5448300000000  0.4208660000000  0.4765390000000 1.0
C      1  0.5047010000000  0.4025120000000  0.5123940000000 1.0
C      1  0.4588870000000  0.4137150000000  0.4873790000000 1.0
C      1  0.5573260000000  0.4508400000000  0.4259360000000 1.0
C      1  0.5225820000000  0.4320170000000  0.5595640000000 1.0
C      1  0.4866430000000  0.4279240000000  0.4270450000000 1.0
C      1  0.4488890000000  0.4426700000000  0.5745070000000 1.0
C      1  0.4349860000000  0.4758860000000  0.4368460000000 1.0
C      1  0.4258940000000  0.5148220000000  0.5733510000000 1.0
C      1  0.4446750000000  0.5512270000000  0.4273460000000 1.0
C      1  0.4740120000000  0.5729510000000  0.5725860000000 1.0
C      1  0.5167650000000  0.5735880000000  0.4216610000000 1.0
C      1  0.5479570000000  0.5540410000000  0.5678880000000 1.0
C      1  0.5717680000000  0.5262060000000  0.4303620000000 1.0
C      1  0.5737960000000  0.4865950000000  0.5699870000000 1.0
C      1  0.5592600000000  0.5036850000000  0.5373210000000 1.0
C      1  0.5559990000000  0.4782830000000  0.4687380000000 1.0
C      1  0.5353460000000  0.4372980000000  0.5326260000000 1.0
C      1  0.4964330000000  0.4393280000000  0.4554940000000 1.0
C      1  0.4748630000000  0.4450750000000  0.5356590000000 1.0
C      1  0.4532590000000  0.4656620000000  0.4668190000000 1.0
C      1  0.4260950000000  0.4945940000000  0.5248980000000 1.0
C      1  0.4313520000000  0.5287970000000  0.4804260000000 1.0
C      1  0.4689170000000  0.5632340000000  0.5227310000000 1.0
C      1  0.4965050000000  0.5640200000000  0.4619940000000 1.0
C      1  0.5318510000000  0.5619390000000  0.5241500000000 1.0
C      1  0.5537240000000  0.5304120000000  0.4578770000000 1.0
C      1  0.4875990000000  0.5195340000000  0.5590210000000 1.0
C      1  0.5009790000000  0.5319740000000  0.4509840000000 1.0
C      1  0.5177030000000  0.5249330000000  0.5550040000000 1.0
C      1  0.5281930000000  0.5184230000000  0.4527180000000 1.0
C      1  0.5324650000000  0.4976700000000  0.5523410000000 1.0
C      1  0.5325130000000  0.4819360000000  0.4502390000000 1.0
C      1  0.5175420000000  0.4717630000000  0.5634910000000 1.0
C      1  0.5006070000000  0.4680100000000  0.4492640000000 1.0
C      1  0.4885250000000  0.4705340000000  0.5515620000000 1.0
C      1  0.4823530000000  0.4872240000000  0.4349880000000 1.0
C      1  0.4708060000000  0.4944830000000  0.5511100000000 1.0
C      1  0.4781640000000  0.5137650000000  0.4453980000000 1.0
C      1  0.4519850000000  0.4101980000000  0.5158090000000 1.0
C      1  0.4168440000000  0.4462720000000  0.4864220000000 1.0
C      1  0.3979930000000  0.4975190000000  0.5165290000000 1.0
C      1  0.4102730000000  0.5490080000000  0.4827450000000 1.0
C      1  0.4502940000000  0.5859820000000  0.5155750000000 1.0
C      1  0.5017550000000  0.6057980000000  0.4886230000000 1.0
C      1  0.5476910000000  0.5864730000000  0.5154060000000 1.0
C      1  0.5904530000000  0.5523840000000  0.4870890000000 1.0
C      1  0.6042340000000  0.4999100000000  0.5120550000000 1.0
C      1  0.5895790000000  0.4459390000000  0.4848870000000 1.0
C      1  0.5502440000000  0.4152290000000  0.5176690000000 1.0
C      1  0.5010190000000  0.3928440000000  0.4838800000000 1.0
C      1  0.5238870000000  0.5195590000000  0.4070800000000 1.0
C      1  0.5311390000000  0.5074940000000  0.5935250000000 1.0
C      1  0.5295570000000  0.4899790000000  0.4067360000000 1.0
C      1  0.5173350000000  0.4786740000000  0.5922580000000 1.0
C      1  0.5083710000000  0.4705380000000  0.4054070000000 1.0
C      1  0.4853380000000  0.4740140000000  0.5953160000000 1.0
C      1  0.4786270000000  0.4839100000000  0.4055690000000 1.0
C      1  0.4678080000000  0.4965780000000  0.5945240000000 1.0
C      1  0.4716950000000  0.5144520000000  0.4053080000000 1.0
C      1  0.4806390000000  0.5252300000000  0.5916560000000 1.0
C      1  0.4957580000000  0.5311400000000  0.4063490000000 1.0
C      1  0.5118470000000  0.5292000000000  0.5958800000000 1.0
C      1  0.5146470000000  0.3981120000000  0.4604860000000 1.0
C      1  0.4643640000000  0.4030340000000  0.5433310000000 1.0
C      1  0.4230700000000  0.4331760000000  0.4589360000000 1.0
C      1  0.3914600000000  0.4856340000000  0.5437900000000 1.0
C      1  0.4012930000000  0.5393390000000  0.4550770000000 1.0
C      1  0.4347200000000  0.5838750000000  0.5418340000000 1.0
C      1  0.4826490000000  0.6074190000000  0.4673990000000 1.0
C      1  0.5399090000000  0.6002010000000  0.5418600000000 1.0
C      1  0.5846180000000  0.5657150000000  0.4607100000000 1.0
C      1  0.6022680000000  0.5138150000000  0.5378770000000 1.0
C      1  0.5973530000000  0.4599880000000  0.4595080000000 1.0
C      1  0.5710550000000  0.4156370000000  0.5380540000000 1.0
C      1  0.5644890000000  0.4586000000000  0.5769580000000 1.0
C      1  0.5350900000000  0.4326000000000  0.4263480000000 1.0
C      1  0.4955460000000  0.4295500000000  0.5737230000000 1.0
C      1  0.4588500000000  0.4362430000000  0.4197750000000 1.0
C      1  0.4323270000000  0.4667530000000  0.5682020000000 1.0
C      1  0.4269230000000  0.5042630000000  0.4316960000000 1.0
C      1  0.4364360000000  0.5421590000000  0.5717740000000 1.0
C      1  0.4670180000000  0.5695440000000  0.4285970000000 1.0
C      1  0.5028030000000  0.5741590000000  0.5638050000000 1.0
C      1  0.5440590000000  0.5636280000000  0.4252210000000 1.0
C      1  0.5685350000000  0.5337580000000  0.5686260000000 1.0
C      1  0.5773350000000  0.4956670000000  0.4302670000000 1.0
C      1  0.5040960000000  0.5660040000000  0.5347350000000 1.0
C      1  0.5488670000000  0.5530510000000  0.4770290000000 1.0
C      1  0.5571620000000  0.5304640000000  0.5231580000000 1.0
C      1  0.5683370000000  0.5052480000000  0.4737500000000 1.0
C      1  0.5597220000000  0.4537560000000  0.5347510000000 1.0
C      1  0.5206170000000  0.4371620000000  0.4743140000000 1.0
C      1  0.4968270000000  0.4284230000000  0.5233490000000 1.0
C      1  0.4704490000000  0.4377770000000  0.4721250000000 1.0
C      1  0.4388830000000  0.4733230000000  0.5384640000000 1.0
C      1  0.4283210000000  0.4999770000000  0.4805970000000 1.0
C      1  0.4483130000000  0.5431010000000  0.5239080000000 1.0
C      1  0.4699170000000  0.5633240000000  0.4756870000000 1.0
C      1  0.5368800000000  0.4101710000000  0.4480840000000 1.0
C      1  0.4898340000000  0.4051160000000  0.5585960000000 1.0
C      1  0.4449460000000  0.4209560000000  0.4412270000000 1.0
C      1  0.4030740000000  0.4600420000000  0.5512530000000 1.0
C      1  0.4037880000000  0.5112010000000  0.4484570000000 1.0
C      1  0.4226570000000  0.5590550000000  0.5511330000000 1.0
C      1  0.4635410000000  0.5931400000000  0.4498140000000 1.0
C      1  0.5120050000000  0.6029370000000  0.5475800000000 1.0
C      1  0.5608910000000  0.5780050000000  0.4471180000000 1.0
C      1  0.5895020000000  0.5364870000000  0.5473710000000 1.0
C      1  0.5956370000000  0.4876050000000  0.4515420000000 1.0
C      1  0.5750780000000  0.4378470000000  0.5546420000000 1.0
C      1  0.4979990000000  0.4760040000000  0.4763160000000 1.0
C      1  0.4925580000000  0.4772610000000  0.5227490000000 1.0
C      1  0.4718840000000  0.4844670000000  0.4780400000000 1.0
C      1  0.4736270000000  0.4993660000000  0.5218410000000 1.0
C      1  0.4695730000000  0.5110270000000  0.4719200000000 1.0
C      1  0.4830230000000  0.5256990000000  0.5299970000000 1.0
C      1  0.4891950000000  0.5266160000000  0.4819870000000 1.0
C      1  0.5109910000000  0.5241420000000  0.5227620000000 1.0
C      1  0.5272500000000  0.5108000000000  0.4830990000000 1.0
C      1  0.5232060000000  0.4982310000000  0.5251770000000 1.0
C      1  0.5186760000000  0.4893430000000  0.4745610000000 1.0
C      1  0.5194840000000  0.4722370000000  0.5157860000000 1.0
C      1  0.5107900000000  0.5877080000000  0.4461150000000 1.0
C      1  0.5572810000000  0.5793050000000  0.5550330000000 1.0
C      1  0.5923660000000  0.5414920000000  0.4473110000000 1.0
C      1  0.5971580000000  0.4891080000000  0.5512270000000 1.0
C      1  0.5777520000000  0.4426210000000  0.4455060000000 1.0
C      1  0.5189160000000  0.4034600000000  0.5519170000000 1.0
C      1  0.4683870000000  0.4044540000000  0.4440590000000 1.0
C      1  0.4440930000000  0.4194000000000  0.5568320000000 1.0
C      1  0.4126280000000  0.4569250000000  0.4461410000000 1.0
C      1  0.4013970000000  0.5107210000000  0.5561810000000 1.0
C      1  0.4200120000000  0.5584810000000  0.4429770000000 1.0
C      1  0.4590090000000  0.5924130000000  0.5560950000000 1.0
C      1  0.5078750000000  0.5178520000000  0.4961040000000 1.0
END
