TITL C-2441158-471-1407 0.0218957503869817 125000 -13166.9444202157 0 0 91 (C1) n - 1
REM
REM in /home/bkarasulu/work/CARBON/AIRSS/Generating-Clusters/ReaxFF-fromJPCA2015/Units_Real/with-SteepDescent/Higher-Symm
REM
REM
REM
REM
REM
REM ./C.cell (1df0a924f5614ab8850e4351716899ee)
REM
REM compiler GCC version 9.2.1 20190827 (Red Hat 9.2.1-1)
REM options -cpp -mtune=generic -march=x86-64 -g -O0 -fpre-include=/usr/include/finclude/math-vector-fortran.h
REM seed -382448167 910887022 -124896107 -1309923892 -246192848 236984981 99120516 -1533425142 545684572 -1935302945 482221616 -1337840427 -398835411 -1730779718 1262110129 763578297 -329463279 -684259394 1460344369 203354457 148966463 470811961 1259130340 1592328584 -1535097098 503172794 608152479 1522295600 2139965126 797422579 1838025216 1580623967 -1905678509
REM
CELL 1.54180   50.00000   50.00000   50.00000   90.00000   90.00000   90.00000
LATT -1
SFAC C  
C      1  0.4082550000000  0.4910010000000  0.4833510000000 1.0
C      1  0.5868310000000  0.5101210000000  0.5163210000000 1.0
C      1  0.4868480000000  0.4223470000000  0.4810210000000 1.0
C      1  0.5146240000000  0.5786290000000  0.5207710000000 1.0
C      1  0.4982420000000  0.4518090000000  0.4394280000000 1.0
C      1  0.5037990000000  0.5527160000000  0.5639270000000 1.0
C      1  0.5205140000000  0.4844190000000  0.5671490000000 1.0
C      1  0.4765070000000  0.5217540000000  0.4289480000000 1.0
C      1  0.5200280000000  0.4992190000000  0.4179150000000 1.0
C      1  0.4803950000000  0.5025860000000  0.5730790000000 1.0
C      1  0.5357920000000  0.5192520000000  0.4326390000000 1.0
C      1  0.4561300000000  0.4806810000000  0.5731260000000 1.0
C      1  0.5129000000000  0.5517780000000  0.5364050000000 1.0
C      1  0.4863580000000  0.4483380000000  0.4664870000000 1.0
C      1  0.4649960000000  0.5061580000000  0.4498210000000 1.0
C      1  0.5296710000000  0.4991250000000  0.5413230000000 1.0
C      1  0.5470690000000  0.5350860000000  0.5610470000000 1.0
C      1  0.4551300000000  0.4636870000000  0.4328370000000 1.0
C      1  0.4423750000000  0.4879560000000  0.4479320000000 1.0
C      1  0.5562790000000  0.5085720000000  0.5537300000000 1.0
C      1  0.5220780000000  0.4392800000000  0.5447020000000 1.0
C      1  0.4848280000000  0.5460180000000  0.4436880000000 1.0
C      1  0.4907530000000  0.4976820000000  0.4183540000000 1.0
C      1  0.5095080000000  0.5069750000000  0.5810160000000 1.0
C      1  0.4398300000000  0.5179180000000  0.5634200000000 1.0
C      1  0.5607220000000  0.4838160000000  0.4383520000000 1.0
C      1  0.5762290000000  0.5229230000000  0.4698110000000 1.0
C      1  0.4197720000000  0.4785620000000  0.5296560000000 1.0
C      1  0.4741750000000  0.4323100000000  0.5333330000000 1.0
C      1  0.5255380000000  0.5599390000000  0.4705820000000 1.0
C      1  0.4411270000000  0.4900480000000  0.5467990000000 1.0
C      1  0.5608390000000  0.5128360000000  0.4456470000000 1.0
C      1  0.5294510000000  0.5362400000000  0.4874380000000 1.0
C      1  0.4623620000000  0.4565940000000  0.5234840000000 1.0
C      1  0.5187770000000  0.4916160000000  0.4713070000000 1.0
C      1  0.4829630000000  0.5030560000000  0.5388690000000 1.0
C      1  0.4388750000000  0.4241100000000  0.5127250000000 1.0
C      1  0.5526320000000  0.5697060000000  0.4820290000000 1.0
C      1  0.4572940000000  0.5037590000000  0.5248890000000 1.0
C      1  0.5394020000000  0.4855510000000  0.4902710000000 1.0
C      1  0.5217740000000  0.5333780000000  0.5761040000000 1.0
C      1  0.4818720000000  0.4701550000000  0.4232020000000 1.0
C      1  0.4609710000000  0.4171160000000  0.4952000000000 1.0
C      1  0.5383220000000  0.5769710000000  0.5052810000000 1.0
C      1  0.4597690000000  0.4518570000000  0.4577690000000 1.0
C      1  0.5414900000000  0.5503180000000  0.5363720000000 1.0
C      1  0.4714440000000  0.5627860000000  0.4641300000000 1.0
C      1  0.5498080000000  0.4401900000000  0.5358250000000 1.0
C      1  0.5070390000000  0.4670750000000  0.5122980000000 1.0
C      1  0.4840450000000  0.5314770000000  0.4885960000000 1.0
C      1  0.5120580000000  0.4199160000000  0.4950550000000 1.0
C      1  0.4891330000000  0.5805980000000  0.5072710000000 1.0
C      1  0.5440280000000  0.4428550000000  0.4597150000000 1.0
C      1  0.4575810000000  0.5577500000000  0.5413540000000 1.0
C      1  0.4129540000000  0.4987690000000  0.5109440000000 1.0
C      1  0.5851880000000  0.5028070000000  0.4883920000000 1.0
C      1  0.4462270000000  0.4699340000000  0.4719640000000 1.0
C      1  0.5468140000000  0.5352070000000  0.5116220000000 1.0
C      1  0.5747810000000  0.5490940000000  0.4834300000000 1.0
C      1  0.4311680000000  0.4574080000000  0.5145780000000 1.0
C      1  0.5366990000000  0.4754870000000  0.4235090000000 1.0
C      1  0.4638270000000  0.5270720000000  0.5765760000000 1.0
C      1  0.4368830000000  0.5372030000000  0.5423460000000 1.0
C      1  0.5644840000000  0.4628600000000  0.4583870000000 1.0
C      1  0.5340890000000  0.4792970000000  0.5181390000000 1.0
C      1  0.4620800000000  0.5217320000000  0.4725420000000 1.0
C      1  0.5153540000000  0.5410850000000  0.4466600000000 1.0
C      1  0.5071130000000  0.4614490000000  0.5562110000000 1.0
C      1  0.5052730000000  0.4338890000000  0.5207150000000 1.0
C      1  0.4939000000000  0.5622630000000  0.4836790000000 1.0
C      1  0.5557020000000  0.4334130000000  0.5078170000000 1.0
C      1  0.4522910000000  0.5632480000000  0.4892030000000 1.0
C      1  0.5737150000000  0.4556480000000  0.5062180000000 1.0
C      1  0.4325400000000  0.5432690000000  0.4920680000000 1.0
C      1  0.4222900000000  0.4655870000000  0.4876340000000 1.0
C      1  0.5763010000000  0.5374360000000  0.5103960000000 1.0
C      1  0.5753180000000  0.4942520000000  0.5380710000000 1.0
C      1  0.4196750000000  0.5042490000000  0.4604600000000 1.0
C      1  0.4749490000000  0.5514490000000  0.5643310000000 1.0
C      1  0.5267560000000  0.4512320000000  0.4371500000000 1.0
C      1  0.4888390000000  0.4730360000000  0.5344610000000 1.0
C      1  0.5178350000000  0.5205680000000  0.4685660000000 1.0
C      1  0.4349940000000  0.5216360000000  0.5150530000000 1.0
C      1  0.5695490000000  0.4753180000000  0.4849870000000 1.0
C      1  0.5073220000000  0.5182160000000  0.5274080000000 1.0
C      1  0.4974690000000  0.4817490000000  0.4885620000000 1.0
C      1  0.5639990000000  0.4666720000000  0.5304230000000 1.0
C      1  0.4333750000000  0.5283300000000  0.4676370000000 1.0
C      1  0.4628790000000  0.5718370000000  0.5155390000000 1.0
C      1  0.5380110000000  0.4282650000000  0.4849400000000 1.0
C      1  0.4969800000000  0.5098780000000  0.5010020000000 1.0
END
