TITL C-2441167-4473-661 0.0119597675845327 125000 -15648.742369599 0 0 106 (C1) n - 1
REM
REM in /home/bkarasulu/work/CARBON/AIRSS/Generating-Clusters/ReaxFF-fromJPCA2015/Units_Real/with-SteepDescent/Higher-Symm
REM
REM
REM
REM
REM
REM ./C.cell (1df0a924f5614ab8850e4351716899ee)
REM
REM compiler GCC version 9.2.1 20190827 (Red Hat 9.2.1-1)
REM options -cpp -mtune=generic -march=x86-64 -g -O0 -fpre-include=/usr/include/finclude/math-vector-fortran.h
REM seed -2116550513 -94956743 -577849904 -2123615038 -1083550633 -1377516460 -822813145 1006664759 11576353 2076088141 1219298746 579872590 22893422 -1688560323 1312883619 -845549777 -161955290 -1514848655 994632514 -1801543822 306996239 -1626616106 -829753710 1452372174 -1766314545 -236919055 -464948086 139531748 856403658 -1640435994 -1195381741 -1612868889 -1085484694
REM
CELL 1.54180   50.00000   50.00000   50.00000   90.00000   90.00000   90.00000
LATT -1
SFAC C  
C      1  0.4363450000000  0.4780920000000  0.5631680000000 1.0
C      1  0.5630540000000  0.4749500000000  0.4347160000000 1.0
C      1  0.5661790000000  0.4871850000000  0.5640730000000 1.0
C      1  0.4341320000000  0.4882070000000  0.4432660000000 1.0
C      1  0.5565990000000  0.5687950000000  0.5013560000000 1.0
C      1  0.4543590000000  0.5772650000000  0.5084130000000 1.0
C      1  0.4244530000000  0.5037110000000  0.5541110000000 1.0
C      1  0.5715380000000  0.5024960000000  0.4395660000000 1.0
C      1  0.5389880000000  0.4734980000000  0.5672280000000 1.0
C      1  0.4593440000000  0.4702210000000  0.4429530000000 1.0
C      1  0.4511260000000  0.4274250000000  0.4726030000000 1.0
C      1  0.5498210000000  0.4358710000000  0.5276520000000 1.0
C      1  0.5134870000000  0.5199520000000  0.5316430000000 1.0
C      1  0.4826910000000  0.5214060000000  0.4722580000000 1.0
C      1  0.5292020000000  0.4440190000000  0.4431160000000 1.0
C      1  0.4683480000000  0.4402770000000  0.5473640000000 1.0
C      1  0.4565590000000  0.5244940000000  0.4841620000000 1.0
C      1  0.5692520000000  0.5297440000000  0.5381950000000 1.0
C      1  0.4906140000000  0.4518630000000  0.5660350000000 1.0
C      1  0.5079600000000  0.4471470000000  0.4253940000000 1.0
C      1  0.5023960000000  0.4507810000000  0.5134700000000 1.0
C      1  0.5002210000000  0.4519100000000  0.4872260000000 1.0
C      1  0.4373800000000  0.5564980000000  0.5216830000000 1.0
C      1  0.5659190000000  0.5553860000000  0.4777370000000 1.0
C      1  0.5134590000000  0.4724950000000  0.4106700000000 1.0
C      1  0.4834660000000  0.4724490000000  0.5874980000000 1.0
C      1  0.5216110000000  0.4970130000000  0.5163030000000 1.0
C      1  0.4846630000000  0.4955040000000  0.4854040000000 1.0
C      1  0.5457140000000  0.5101420000000  0.4791420000000 1.0
C      1  0.4562880000000  0.5121980000000  0.5115860000000 1.0
C      1  0.4647360000000  0.5107990000000  0.5739800000000 1.0
C      1  0.5290820000000  0.5009680000000  0.4391430000000 1.0
C      1  0.5275610000000  0.4954710000000  0.5855140000000 1.0
C      1  0.4738730000000  0.5101750000000  0.4088410000000 1.0
C      1  0.4727200000000  0.5516940000000  0.4361090000000 1.0
C      1  0.5246750000000  0.5474540000000  0.5704890000000 1.0
C      1  0.5957320000000  0.4863610000000  0.5201230000000 1.0
C      1  0.4134010000000  0.4638820000000  0.4834080000000 1.0
C      1  0.4983220000000  0.4262760000000  0.4750530000000 1.0
C      1  0.5064070000000  0.4258600000000  0.5286100000000 1.0
C      1  0.5008760000000  0.5016730000000  0.4085890000000 1.0
C      1  0.5001100000000  0.4956390000000  0.5933270000000 1.0
C      1  0.5619220000000  0.5167340000000  0.5634820000000 1.0
C      1  0.4408620000000  0.5110470000000  0.4308140000000 1.0
C      1  0.5005180000000  0.5044770000000  0.4417830000000 1.0
C      1  0.4987260000000  0.5071010000000  0.5528050000000 1.0
C      1  0.5391020000000  0.4820550000000  0.4190710000000 1.0
C      1  0.4574320000000  0.4834300000000  0.5821720000000 1.0
C      1  0.5307890000000  0.4174170000000  0.5139240000000 1.0
C      1  0.4721810000000  0.4220580000000  0.4922550000000 1.0
C      1  0.4383310000000  0.4464650000000  0.5191890000000 1.0
C      1  0.5507940000000  0.4370970000000  0.4788340000000 1.0
C      1  0.4430340000000  0.4537540000000  0.5475860000000 1.0
C      1  0.5536500000000  0.4513460000000  0.4512160000000 1.0
C      1  0.5135650000000  0.4340900000000  0.5559420000000 1.0
C      1  0.4895170000000  0.4333700000000  0.4450470000000 1.0
C      1  0.5326080000000  0.5859110000000  0.5043860000000 1.0
C      1  0.4625120000000  0.5798730000000  0.4794920000000 1.0
C      1  0.5867190000000  0.5095950000000  0.4632100000000 1.0
C      1  0.4137510000000  0.5126530000000  0.5280920000000 1.0
C      1  0.4082100000000  0.5123910000000  0.4749990000000 1.0
C      1  0.5927170000000  0.5174500000000  0.5241780000000 1.0
C      1  0.5692760000000  0.4948240000000  0.4815550000000 1.0
C      1  0.4326800000000  0.4968820000000  0.5133560000000 1.0
C      1  0.5028420000000  0.4766370000000  0.4749790000000 1.0
C      1  0.5001980000000  0.4780180000000  0.5254070000000 1.0
C      1  0.5167810000000  0.5456250000000  0.4611440000000 1.0
C      1  0.4836330000000  0.5481620000000  0.5416450000000 1.0
C      1  0.5186340000000  0.5321320000000  0.4157190000000 1.0
C      1  0.4872550000000  0.5221930000000  0.5864270000000 1.0
C      1  0.4559180000000  0.5379380000000  0.5365600000000 1.0
C      1  0.5440000000000  0.5361390000000  0.4629450000000 1.0
C      1  0.5581660000000  0.5565420000000  0.5294120000000 1.0
C      1  0.4378520000000  0.5413100000000  0.4709200000000 1.0
C      1  0.5064210000000  0.4794330000000  0.5541830000000 1.0
C      1  0.4857600000000  0.4805120000000  0.4479210000000 1.0
C      1  0.4550480000000  0.5622190000000  0.4568430000000 1.0
C      1  0.5387510000000  0.5571000000000  0.5485110000000 1.0
C      1  0.5242660000000  0.4949270000000  0.4889690000000 1.0
C      1  0.4769310000000  0.4927950000000  0.5110980000000 1.0
C      1  0.4114040000000  0.4872530000000  0.4640930000000 1.0
C      1  0.5827680000000  0.4802900000000  0.5430240000000 1.0
C      1  0.4623890000000  0.4413610000000  0.4472040000000 1.0
C      1  0.5394190000000  0.4460120000000  0.5536230000000 1.0
C      1  0.4152240000000  0.5395120000000  0.5152010000000 1.0
C      1  0.5894820000000  0.5379300000000  0.4745820000000 1.0
C      1  0.4447510000000  0.5229970000000  0.5591810000000 1.0
C      1  0.5484330000000  0.5218200000000  0.4365700000000 1.0
C      1  0.5134710000000  0.5890400000000  0.4849390000000 1.0
C      1  0.4811580000000  0.5818350000000  0.5178620000000 1.0
C      1  0.5028660000000  0.5474910000000  0.4355970000000 1.0
C      1  0.4950500000000  0.5448890000000  0.5684770000000 1.0
C      1  0.4310000000000  0.4704190000000  0.5056050000000 1.0
C      1  0.5760980000000  0.4736830000000  0.5021410000000 1.0
C      1  0.4262200000000  0.4389530000000  0.4802730000000 1.0
C      1  0.5623870000000  0.4478590000000  0.5040660000000 1.0
C      1  0.5283660000000  0.4204900000000  0.4853800000000 1.0
C      1  0.4644220000000  0.4307630000000  0.5189480000000 1.0
C      1  0.5028310000000  0.5456120000000  0.5189550000000 1.0
C      1  0.4987720000000  0.5455340000000  0.4836890000000 1.0
C      1  0.4577860000000  0.5311590000000  0.4187350000000 1.0
C      1  0.5387440000000  0.5218360000000  0.5794460000000 1.0
C      1  0.4910630000000  0.5759060000000  0.4745340000000 1.0
C      1  0.5091870000000  0.5760080000000  0.5231140000000 1.0
C      1  0.4114930000000  0.5380830000000  0.4853390000000 1.0
C      1  0.5912050000000  0.5343150000000  0.5021720000000 1.0
END
