TITL C-2441157-2117-1435 0.153937451552738 125000 -24095.4436254394 0 0 188 (C1) n - 1
REM
REM in /home/bkarasulu/work/CARBON/AIRSS/Generating-Clusters/ReaxFF-fromJPCA2015/Units_Real/with-SteepDescent/Higher-Symm
REM
REM
REM
REM
REM
REM ./C.cell (1df0a924f5614ab8850e4351716899ee)
REM
REM compiler GCC version 9.2.1 20190827 (Red Hat 9.2.1-1)
REM options -cpp -mtune=generic -march=x86-64 -g -O0 -fpre-include=/usr/include/finclude/math-vector-fortran.h
REM seed 147491580 -1401708115 -511914124 -338666776 187493759 -1201411750 -528747260 -1890157632 1066818753 251454367 -1683578172 1627058244 -1448148590 -708905456 -464891385 -1983136650 -1212238637 -899933444 -1525435431 -1962487852 518867772 1377554336 -851912196 -356182530 1963761461 -1856821539 -608045337 1009744624 1950318277 -1100998532 -532144283 1725470055 -490685579
REM
CELL 1.54180   50.00000   50.00000   50.00000   90.00000   90.00000   90.00000
LATT -1
SFAC C  
C      1  0.4596970000000  0.4836870000000  0.4786040000000 1.0
C      1  0.5243350000000  0.5354570000000  0.5942720000000 1.0
C      1  0.5490070000000  0.5481680000000  0.5121780000000 1.0
C      1  0.5672520000000  0.5889300000000  0.5111720000000 1.0
C      1  0.5515930000000  0.5585240000000  0.5391360000000 1.0
C      1  0.5067160000000  0.3958860000000  0.4592280000000 1.0
C      1  0.4646880000000  0.5437720000000  0.3987330000000 1.0
C      1  0.4382310000000  0.4682930000000  0.5881910000000 1.0
C      1  0.5551280000000  0.5590650000000  0.5801220000000 1.0
C      1  0.4352340000000  0.5034010000000  0.4546860000000 1.0
C      1  0.4592110000000  0.5028850000000  0.5700640000000 1.0
C      1  0.4812430000000  0.4364960000000  0.5897720000000 1.0
C      1  0.5121030000000  0.4516500000000  0.5137370000000 1.0
C      1  0.4392100000000  0.4769640000000  0.5287110000000 1.0
C      1  0.4053260000000  0.5551040000000  0.4923350000000 1.0
C      1  0.5175600000000  0.4662110000000  0.5391780000000 1.0
C      1  0.4249480000000  0.4543290000000  0.5671990000000 1.0
C      1  0.4286730000000  0.4275640000000  0.5554510000000 1.0
C      1  0.5105870000000  0.5025060000000  0.5146590000000 1.0
C      1  0.3915880000000  0.5057990000000  0.4822260000000 1.0
C      1  0.4434870000000  0.4875680000000  0.4130850000000 1.0
C      1  0.4521740000000  0.5192750000000  0.5928070000000 1.0
C      1  0.4220660000000  0.5845330000000  0.5380570000000 1.0
C      1  0.5904930000000  0.4289990000000  0.4917980000000 1.0
C      1  0.4119750000000  0.4220830000000  0.5322460000000 1.0
C      1  0.5234030000000  0.5533430000000  0.4597270000000 1.0
C      1  0.4610910000000  0.5201880000000  0.5469700000000 1.0
C      1  0.4321180000000  0.4877800000000  0.4968440000000 1.0
C      1  0.4765950000000  0.6013260000000  0.4410690000000 1.0
C      1  0.5521990000000  0.5199590000000  0.5095690000000 1.0
C      1  0.5702150000000  0.4939710000000  0.4370100000000 1.0
C      1  0.5109700000000  0.5268250000000  0.4537500000000 1.0
C      1  0.4147790000000  0.5231110000000  0.5223270000000 1.0
C      1  0.5082090000000  0.4410540000000  0.5516680000000 1.0
C      1  0.4872370000000  0.5003150000000  0.3943830000000 1.0
C      1  0.4748230000000  0.4864780000000  0.5027440000000 1.0
C      1  0.5374840000000  0.4431570000000  0.5097680000000 1.0
C      1  0.5453090000000  0.4744320000000  0.5887510000000 1.0
C      1  0.5523730000000  0.4047420000000  0.5302090000000 1.0
C      1  0.4535710000000  0.4123650000000  0.4676780000000 1.0
C      1  0.5093140000000  0.4347190000000  0.5927280000000 1.0
C      1  0.4707890000000  0.5140350000000  0.5187930000000 1.0
C      1  0.4190070000000  0.5562970000000  0.4660560000000 1.0
C      1  0.4442690000000  0.5704240000000  0.4642710000000 1.0
C      1  0.4030690000000  0.4432530000000  0.5119440000000 1.0
C      1  0.5155730000000  0.5138260000000  0.4285230000000 1.0
C      1  0.3901060000000  0.4687020000000  0.5149330000000 1.0
C      1  0.5550640000000  0.4455310000000  0.4236900000000 1.0
C      1  0.5865810000000  0.5704320000000  0.5222260000000 1.0
C      1  0.4588180000000  0.4537510000000  0.5283520000000 1.0
C      1  0.4985730000000  0.4005170000000  0.5305540000000 1.0
C      1  0.5883070000000  0.4745800000000  0.4482410000000 1.0
C      1  0.4296150000000  0.5356650000000  0.4229840000000 1.0
C      1  0.4866690000000  0.5818050000000  0.5743180000000 1.0
C      1  0.4446520000000  0.4515710000000  0.4280660000000 1.0
C      1  0.4349720000000  0.4343500000000  0.4709790000000 1.0
C      1  0.4940440000000  0.4320640000000  0.5283460000000 1.0
C      1  0.4646750000000  0.4897830000000  0.4319210000000 1.0
C      1  0.4851910000000  0.4709130000000  0.4401040000000 1.0
C      1  0.4136080000000  0.5730310000000  0.5128910000000 1.0
C      1  0.4849340000000  0.5862960000000  0.5246520000000 1.0
C      1  0.5028980000000  0.5576940000000  0.5082310000000 1.0
C      1  0.5894470000000  0.5248090000000  0.4622520000000 1.0
C      1  0.4673130000000  0.4196020000000  0.4433500000000 1.0
C      1  0.4116250000000  0.5358660000000  0.4460250000000 1.0
C      1  0.5684960000000  0.4640590000000  0.5754440000000 1.0
C      1  0.5520450000000  0.5911840000000  0.5348410000000 1.0
C      1  0.4877990000000  0.4720460000000  0.3965070000000 1.0
C      1  0.4611090000000  0.5862390000000  0.4858480000000 1.0
C      1  0.4660050000000  0.5548200000000  0.4532890000000 1.0
C      1  0.4238800000000  0.4745380000000  0.4208510000000 1.0
C      1  0.4866350000000  0.5522340000000  0.5742570000000 1.0
C      1  0.4758230000000  0.5446510000000  0.4762310000000 1.0
C      1  0.5274010000000  0.5950430000000  0.4618730000000 1.0
C      1  0.5227760000000  0.6090170000000  0.5097280000000 1.0
C      1  0.5340600000000  0.5646030000000  0.4336360000000 1.0
C      1  0.4460370000000  0.5582990000000  0.4145140000000 1.0
C      1  0.4983520000000  0.5072260000000  0.4699580000000 1.0
C      1  0.5870180000000  0.5314170000000  0.5559810000000 1.0
C      1  0.4927920000000  0.4086570000000  0.4359520000000 1.0
C      1  0.4589720000000  0.4040980000000  0.5200890000000 1.0
C      1  0.5014870000000  0.4755270000000  0.5917960000000 1.0
C      1  0.4859370000000  0.5628950000000  0.4335560000000 1.0
C      1  0.5532870000000  0.5324150000000  0.5903930000000 1.0
C      1  0.5676790000000  0.5211410000000  0.4459340000000 1.0
C      1  0.5688130000000  0.5162620000000  0.5715240000000 1.0
C      1  0.5440680000000  0.5203610000000  0.4826770000000 1.0
C      1  0.5299870000000  0.5619290000000  0.4948650000000 1.0
C      1  0.5791610000000  0.5572420000000  0.5493140000000 1.0
C      1  0.4664820000000  0.4520640000000  0.4091410000000 1.0
C      1  0.4356080000000  0.5109520000000  0.4058120000000 1.0
C      1  0.4563870000000  0.5329810000000  0.4949020000000 1.0
C      1  0.4312680000000  0.5426270000000  0.5309220000000 1.0
C      1  0.6103520000000  0.5273390000000  0.5120080000000 1.0
C      1  0.5311350000000  0.4784540000000  0.4519640000000 1.0
C      1  0.5103930000000  0.5284840000000  0.4046290000000 1.0
C      1  0.5884240000000  0.4704860000000  0.5534230000000 1.0
C      1  0.4363610000000  0.4968830000000  0.5854720000000 1.0
C      1  0.6013790000000  0.5532550000000  0.5028670000000 1.0
C      1  0.5283660000000  0.4450440000000  0.4106510000000 1.0
C      1  0.5890740000000  0.4912720000000  0.5299460000000 1.0
C      1  0.4863490000000  0.5390230000000  0.4183840000000 1.0
C      1  0.5248410000000  0.6021340000000  0.5378700000000 1.0
C      1  0.5511040000000  0.5015170000000  0.5537430000000 1.0
C      1  0.4965150000000  0.4009930000000  0.5591340000000 1.0
C      1  0.5027630000000  0.5177770000000  0.6021820000000 1.0
C      1  0.4420140000000  0.5404750000000  0.5544110000000 1.0
C      1  0.4941750000000  0.6092180000000  0.5063650000000 1.0
C      1  0.3932340000000  0.4831230000000  0.5410950000000 1.0
C      1  0.3954720000000  0.5114510000000  0.4536740000000 1.0
C      1  0.5558920000000  0.4411540000000  0.5612660000000 1.0
C      1  0.5352790000000  0.5453270000000  0.4111900000000 1.0
C      1  0.5272850000000  0.5455080000000  0.5460710000000 1.0
C      1  0.5934220000000  0.4583600000000  0.4818870000000 1.0
C      1  0.5482740000000  0.4036530000000  0.4858440000000 1.0
C      1  0.5824820000000  0.4568920000000  0.4245800000000 1.0
C      1  0.5245770000000  0.4148980000000  0.4991470000000 1.0
C      1  0.5151140000000  0.5528200000000  0.5710090000000 1.0
C      1  0.4626580000000  0.5157080000000  0.3917390000000 1.0
C      1  0.5262540000000  0.3954500000000  0.5224710000000 1.0
C      1  0.5264290000000  0.4859750000000  0.4966340000000 1.0
C      1  0.4977900000000  0.4071190000000  0.4845250000000 1.0
C      1  0.5356510000000  0.4020960000000  0.4606650000000 1.0
C      1  0.5395920000000  0.5916190000000  0.4897920000000 1.0
C      1  0.4741030000000  0.4160250000000  0.5692930000000 1.0
C      1  0.4030140000000  0.4801000000000  0.4916560000000 1.0
C      1  0.5158660000000  0.4697520000000  0.4018200000000 1.0
C      1  0.4930610000000  0.4534040000000  0.4811460000000 1.0
C      1  0.4648530000000  0.4609410000000  0.5989030000000 1.0
C      1  0.5758880000000  0.5392940000000  0.4266980000000 1.0
C      1  0.5940020000000  0.5514160000000  0.4743530000000 1.0
C      1  0.4487750000000  0.5530290000000  0.5140920000000 1.0
C      1  0.4688580000000  0.5173830000000  0.4396620000000 1.0
C      1  0.4321940000000  0.4124850000000  0.5134550000000 1.0
C      1  0.4995270000000  0.5920210000000  0.5494120000000 1.0
C      1  0.5580100000000  0.4509420000000  0.5333450000000 1.0
C      1  0.5465390000000  0.4782410000000  0.5377910000000 1.0
C      1  0.4660570000000  0.5815670000000  0.4234650000000 1.0
C      1  0.5905410000000  0.4505360000000  0.5325450000000 1.0
C      1  0.5688710000000  0.4955930000000  0.5073630000000 1.0
C      1  0.4540170000000  0.4151400000000  0.5480340000000 1.0
C      1  0.4766710000000  0.4477780000000  0.4560500000000 1.0
C      1  0.5477900000000  0.4512410000000  0.4533940000000 1.0
C      1  0.3955510000000  0.5282800000000  0.5009260000000 1.0
C      1  0.5066770000000  0.5047440000000  0.5602930000000 1.0
C      1  0.4794150000000  0.4842250000000  0.6062330000000 1.0
C      1  0.5583930000000  0.5275630000000  0.4066520000000 1.0
C      1  0.4704400000000  0.4077740000000  0.4922160000000 1.0
C      1  0.5195270000000  0.4190390000000  0.5686760000000 1.0
C      1  0.5499010000000  0.4140990000000  0.5569190000000 1.0
C      1  0.5497050000000  0.5418700000000  0.4671160000000 1.0
C      1  0.6001120000000  0.5169880000000  0.5365660000000 1.0
C      1  0.5017960000000  0.4781820000000  0.4633480000000 1.0
C      1  0.4745830000000  0.4571430000000  0.5037460000000 1.0
C      1  0.4263070000000  0.4348720000000  0.4963870000000 1.0
C      1  0.4556560000000  0.5807250000000  0.5163540000000 1.0
C      1  0.5304550000000  0.4895230000000  0.4222530000000 1.0
C      1  0.4717380000000  0.5059680000000  0.4662230000000 1.0
C      1  0.5634750000000  0.5651750000000  0.4350150000000 1.0
C      1  0.5358630000000  0.5790690000000  0.5780760000000 1.0
C      1  0.4810520000000  0.6101650000000  0.4808720000000 1.0
C      1  0.5701230000000  0.4117160000000  0.5029910000000 1.0
C      1  0.4998640000000  0.6068850000000  0.4581290000000 1.0
C      1  0.4972790000000  0.5277920000000  0.5140530000000 1.0
C      1  0.3946460000000  0.5101200000000  0.5358050000000 1.0
C      1  0.5880760000000  0.5007600000000  0.4803620000000 1.0
C      1  0.4690780000000  0.4731630000000  0.5462770000000 1.0
C      1  0.4489000000000  0.4566880000000  0.4595620000000 1.0
C      1  0.5645700000000  0.4581510000000  0.4759250000000 1.0
C      1  0.4127560000000  0.4888140000000  0.4446220000000 1.0
C      1  0.4191720000000  0.4734250000000  0.5475360000000 1.0
C      1  0.4858110000000  0.5673830000000  0.4870420000000 1.0
C      1  0.6148230000000  0.5043180000000  0.4915380000000 1.0
C      1  0.5576130000000  0.4990460000000  0.4117950000000 1.0
C      1  0.5184380000000  0.4964650000000  0.5849440000000 1.0
C      1  0.5243080000000  0.4584090000000  0.5992080000000 1.0
C      1  0.4380530000000  0.5687030000000  0.5617640000000 1.0
C      1  0.6000480000000  0.4653090000000  0.5100210000000 1.0
C      1  0.4588140000000  0.5810020000000  0.5742920000000 1.0
C      1  0.4950650000000  0.4868010000000  0.5417770000000 1.0
C      1  0.5703750000000  0.5636640000000  0.4636490000000 1.0
C      1  0.5275820000000  0.5180390000000  0.5481740000000 1.0
C      1  0.5481050000000  0.4668020000000  0.4979540000000 1.0
C      1  0.5379720000000  0.4961930000000  0.4738600000000 1.0
C      1  0.4345490000000  0.5139040000000  0.4819300000000 1.0
C      1  0.5298120000000  0.4288040000000  0.4533170000000 1.0
C      1  0.5123010000000  0.4299710000000  0.4304250000000 1.0
C      1  0.4785480000000  0.5316400000000  0.5936780000000 1.0
END
