TITL C-2441161-5029-1167 0.087208074229252 125000 -27480.0003540376 0 0 199 (C1) n - 1
REM
REM in /home/bkarasulu/work/CARBON/AIRSS/Generating-Clusters/ReaxFF-fromJPCA2015/Units_Real/with-SteepDescent/Higher-Symm
REM
REM
REM
REM
REM
REM ./C.cell (1df0a924f5614ab8850e4351716899ee)
REM
REM compiler GCC version 9.2.1 20190827 (Red Hat 9.2.1-1)
REM options -cpp -mtune=generic -march=x86-64 -g -O0 -fpre-include=/usr/include/finclude/math-vector-fortran.h
REM seed 1119909865 800076158 -1898766007 840477371 1242434549 1507291373 -948385480 759862975 979209006 -102187535 952697932 -94939455 -761742698 292856907 1472688755 1369571771 1561218559 112188719 -455558759 -1439161690 -1606036055 -1823754663 1638543910 -748011227 -55390504 796269589 -1425712300 -1174837297 -2079204095 -392462139 1137099973 21055614 -1032753698
REM
CELL 1.54180   50.00000   50.00000   50.00000   90.00000   90.00000   90.00000
LATT -1
SFAC C  
C      1  0.4301840000000  0.5396130000000  0.4788940000000 1.0
C      1  0.5671780000000  0.4581660000000  0.5195780000000 1.0
C      1  0.4380780000000  0.5176450000000  0.4026920000000 1.0
C      1  0.5618310000000  0.4810690000000  0.5953640000000 1.0
C      1  0.4681200000000  0.5499990000000  0.4590160000000 1.0
C      1  0.5318060000000  0.4380910000000  0.5482580000000 1.0
C      1  0.3965540000000  0.5327850000000  0.5131790000000 1.0
C      1  0.6062710000000  0.4714360000000  0.5037940000000 1.0
C      1  0.4449120000000  0.3941080000000  0.5018160000000 1.0
C      1  0.5463900000000  0.5934360000000  0.5108890000000 1.0
C      1  0.5480900000000  0.5848750000000  0.5583530000000 1.0
C      1  0.4555840000000  0.4101530000000  0.4470450000000 1.0
C      1  0.4301410000000  0.5197610000000  0.5756640000000 1.0
C      1  0.5571890000000  0.4959100000000  0.4163240000000 1.0
C      1  0.4556470000000  0.5750710000000  0.4438780000000 1.0
C      1  0.5507780000000  0.4195560000000  0.5594770000000 1.0
C      1  0.5837310000000  0.5171200000000  0.5652080000000 1.0
C      1  0.4170720000000  0.4821510000000  0.4328520000000 1.0
C      1  0.5235080000000  0.4583070000000  0.4160440000000 1.0
C      1  0.4739350000000  0.5509160000000  0.5913730000000 1.0
C      1  0.4142050000000  0.4394420000000  0.5495350000000 1.0
C      1  0.5898610000000  0.5597760000000  0.4473980000000 1.0
C      1  0.4795360000000  0.4800510000000  0.5310050000000 1.0
C      1  0.5397940000000  0.5311670000000  0.4746830000000 1.0
C      1  0.4937380000000  0.5053480000000  0.5356850000000 1.0
C      1  0.5016980000000  0.4980050000000  0.4624150000000 1.0
C      1  0.4610730000000  0.3962830000000  0.5265540000000 1.0
C      1  0.5220560000000  0.6011620000000  0.4655680000000 1.0
C      1  0.6028960000000  0.4836670000000  0.5290590000000 1.0
C      1  0.3957410000000  0.5109020000000  0.4714220000000 1.0
C      1  0.4919950000000  0.4556820000000  0.5406080000000 1.0
C      1  0.5132800000000  0.5234820000000  0.4517180000000 1.0
C      1  0.4073960000000  0.4335390000000  0.5213180000000 1.0
C      1  0.5962700000000  0.5628740000000  0.4761940000000 1.0
C      1  0.5119110000000  0.3974760000000  0.5301500000000 1.0
C      1  0.4720120000000  0.5960440000000  0.4745200000000 1.0
C      1  0.4303640000000  0.5610240000000  0.5786720000000 1.0
C      1  0.5682930000000  0.4510370000000  0.4246300000000 1.0
C      1  0.4390510000000  0.5471790000000  0.3995330000000 1.0
C      1  0.5579980000000  0.4525550000000  0.5965420000000 1.0
C      1  0.4831720000000  0.4624560000000  0.6061280000000 1.0
C      1  0.5220660000000  0.5363040000000  0.3934190000000 1.0
C      1  0.4603520000000  0.6030910000000  0.5205490000000 1.0
C      1  0.5394940000000  0.3934860000000  0.4728600000000 1.0
C      1  0.4573440000000  0.4685390000000  0.5125450000000 1.0
C      1  0.5275090000000  0.5151490000000  0.4960910000000 1.0
C      1  0.4898450000000  0.4908590000000  0.6086840000000 1.0
C      1  0.5128180000000  0.5086930000000  0.3965520000000 1.0
C      1  0.4887190000000  0.6058660000000  0.5129600000000 1.0
C      1  0.5106380000000  0.3818910000000  0.4785170000000 1.0
C      1  0.4760200000000  0.4702100000000  0.3915170000000 1.0
C      1  0.5360750000000  0.5213250000000  0.6131860000000 1.0
C      1  0.4206170000000  0.4110170000000  0.5056570000000 1.0
C      1  0.5758530000000  0.5813390000000  0.4850450000000 1.0
C      1  0.5796720000000  0.4677190000000  0.4458350000000 1.0
C      1  0.4123650000000  0.5411230000000  0.5663630000000 1.0
C      1  0.6042390000000  0.4642530000000  0.4635980000000 1.0
C      1  0.3988190000000  0.5466060000000  0.5394010000000 1.0
C      1  0.3885770000000  0.5080350000000  0.4997470000000 1.0
C      1  0.6141290000000  0.4867700000000  0.4819370000000 1.0
C      1  0.4881350000000  0.4965670000000  0.3841810000000 1.0
C      1  0.5150840000000  0.5015290000000  0.6194490000000 1.0
C      1  0.5112920000000  0.5089760000000  0.4255860000000 1.0
C      1  0.4878030000000  0.4971410000000  0.5801580000000 1.0
C      1  0.3914590000000  0.4830220000000  0.5167440000000 1.0
C      1  0.6114280000000  0.5159850000000  0.4769790000000 1.0
C      1  0.4377370000000  0.4370520000000  0.4461330000000 1.0
C      1  0.5698140000000  0.5645740000000  0.5563110000000 1.0
C      1  0.4351120000000  0.5644340000000  0.4243950000000 1.0
C      1  0.5696530000000  0.4346850000000  0.5754030000000 1.0
C      1  0.5099710000000  0.4679450000000  0.4958870000000 1.0
C      1  0.4893170000000  0.5420400000000  0.4943980000000 1.0
C      1  0.3964080000000  0.4561440000000  0.5051610000000 1.0
C      1  0.6068660000000  0.5406880000000  0.4926280000000 1.0
C      1  0.5063290000000  0.6027190000000  0.5370770000000 1.0
C      1  0.4850000000000  0.3901500000000  0.4667110000000 1.0
C      1  0.4240960000000  0.5302060000000  0.5062120000000 1.0
C      1  0.5627740000000  0.4805060000000  0.4931500000000 1.0
C      1  0.4859820000000  0.4081850000000  0.5390990000000 1.0
C      1  0.5054420000000  0.5797030000000  0.4534990000000 1.0
C      1  0.5701790000000  0.4121300000000  0.5387090000000 1.0
C      1  0.4341970000000  0.5858530000000  0.4597470000000 1.0
C      1  0.5714050000000  0.4279050000000  0.4689430000000 1.0
C      1  0.4217690000000  0.5940980000000  0.5335360000000 1.0
C      1  0.5092920000000  0.5361130000000  0.5634170000000 1.0
C      1  0.4859050000000  0.4638220000000  0.4465970000000 1.0
C      1  0.4020730000000  0.4580510000000  0.4769770000000 1.0
C      1  0.6020200000000  0.5417710000000  0.5216280000000 1.0
C      1  0.5258720000000  0.5801170000000  0.5760500000000 1.0
C      1  0.4799050000000  0.4143860000000  0.4322860000000 1.0
C      1  0.5297870000000  0.4467850000000  0.5999110000000 1.0
C      1  0.4660800000000  0.5551550000000  0.3988650000000 1.0
C      1  0.4464810000000  0.5401000000000  0.5912640000000 1.0
C      1  0.5517230000000  0.4683920000000  0.4087710000000 1.0
C      1  0.5915410000000  0.4254750000000  0.5558520000000 1.0
C      1  0.4135180000000  0.5616280000000  0.4469680000000 1.0
C      1  0.5137750000000  0.5627890000000  0.5272380000000 1.0
C      1  0.4858240000000  0.4309600000000  0.4770750000000 1.0
C      1  0.5260380000000  0.4244100000000  0.5237680000000 1.0
C      1  0.4620770000000  0.5707070000000  0.4843090000000 1.0
C      1  0.4770010000000  0.5157670000000  0.4924250000000 1.0
C      1  0.5285770000000  0.4797680000000  0.5227640000000 1.0
C      1  0.5513630000000  0.5796640000000  0.4666930000000 1.0
C      1  0.4489310000000  0.4217390000000  0.5324810000000 1.0
C      1  0.5421250000000  0.5274400000000  0.5253450000000 1.0
C      1  0.4573820000000  0.4731860000000  0.4790950000000 1.0
C      1  0.5442860000000  0.5335920000000  0.5863530000000 1.0
C      1  0.4566680000000  0.4709070000000  0.4148440000000 1.0
C      1  0.5292430000000  0.5461560000000  0.5444580000000 1.0
C      1  0.4669940000000  0.4487670000000  0.4618520000000 1.0
C      1  0.4697340000000  0.5543650000000  0.5129290000000 1.0
C      1  0.5259150000000  0.4562290000000  0.4726200000000 1.0
C      1  0.4962970000000  0.6068380000000  0.4836700000000 1.0
C      1  0.5104310000000  0.3847490000000  0.5058470000000 1.0
C      1  0.5151490000000  0.4881890000000  0.5746750000000 1.0
C      1  0.4801070000000  0.5139290000000  0.4208260000000 1.0
C      1  0.5437580000000  0.4933660000000  0.6150830000000 1.0
C      1  0.4650430000000  0.5112240000000  0.3926560000000 1.0
C      1  0.5679440000000  0.4919630000000  0.5675560000000 1.0
C      1  0.4285890000000  0.5088750000000  0.4300610000000 1.0
C      1  0.5432350000000  0.4607230000000  0.5361530000000 1.0
C      1  0.4542920000000  0.5251800000000  0.4695940000000 1.0
C      1  0.5950360000000  0.5155060000000  0.5371510000000 1.0
C      1  0.4081220000000  0.4841340000000  0.4623440000000 1.0
C      1  0.5265370000000  0.5566170000000  0.5937620000000 1.0
C      1  0.4785440000000  0.4353270000000  0.4138140000000 1.0
C      1  0.5712630000000  0.5412690000000  0.5739410000000 1.0
C      1  0.4323290000000  0.4588430000000  0.4249600000000 1.0
C      1  0.4510270000000  0.5784050000000  0.5656230000000 1.0
C      1  0.5566350000000  0.4262720000000  0.4380230000000 1.0
C      1  0.4578360000000  0.4544210000000  0.5948560000000 1.0
C      1  0.5474310000000  0.5422230000000  0.4044600000000 1.0
C      1  0.4484740000000  0.5310730000000  0.5270220000000 1.0
C      1  0.5565760000000  0.4789910000000  0.4608830000000 1.0
C      1  0.4482230000000  0.5139040000000  0.5534030000000 1.0
C      1  0.5475940000000  0.5001080000000  0.4427050000000 1.0
C      1  0.4316690000000  0.4788070000000  0.5199270000000 1.0
C      1  0.5679220000000  0.5218530000000  0.4752590000000 1.0
C      1  0.5706280000000  0.5795500000000  0.5114190000000 1.0
C      1  0.4345040000000  0.4310170000000  0.4901930000000 1.0
C      1  0.4746280000000  0.4884970000000  0.4564570000000 1.0
C      1  0.5233540000000  0.5035390000000  0.5383890000000 1.0
C      1  0.4346490000000  0.5952260000000  0.5077850000000 1.0
C      1  0.5583430000000  0.4110800000000  0.4876640000000 1.0
C      1  0.5573000000000  0.4249100000000  0.5146050000000 1.0
C      1  0.4330760000000  0.5748220000000  0.4868640000000 1.0
C      1  0.5144250000000  0.4691700000000  0.4475740000000 1.0
C      1  0.4854450000000  0.5302970000000  0.5479370000000 1.0
C      1  0.4597480000000  0.4960250000000  0.4322660000000 1.0
C      1  0.5374700000000  0.5044460000000  0.5668770000000 1.0
C      1  0.4548010000000  0.4392280000000  0.5101230000000 1.0
C      1  0.5367500000000  0.5597780000000  0.4822940000000 1.0
C      1  0.5700310000000  0.5254560000000  0.4119810000000 1.0
C      1  0.4419370000000  0.4726120000000  0.5779020000000 1.0
C      1  0.4111180000000  0.4830130000000  0.5394420000000 1.0
C      1  0.5898410000000  0.5181980000000  0.4569280000000 1.0
C      1  0.5022910000000  0.4451050000000  0.5925600000000 1.0
C      1  0.5051660000000  0.5551910000000  0.4073550000000 1.0
C      1  0.4818620000000  0.4292260000000  0.5047640000000 1.0
C      1  0.5256710000000  0.5741770000000  0.5032900000000 1.0
C      1  0.4620970000000  0.4329330000000  0.5756130000000 1.0
C      1  0.5206060000000  0.5972300000000  0.4366270000000 1.0
C      1  0.5907310000000  0.4451640000000  0.4791200000000 1.0
C      1  0.4104810000000  0.5689630000000  0.5276500000000 1.0
C      1  0.4612100000000  0.4916610000000  0.5673020000000 1.0
C      1  0.5501340000000  0.5366290000000  0.4326520000000 1.0
C      1  0.4479280000000  0.5994160000000  0.5464520000000 1.0
C      1  0.5399500000000  0.4005140000000  0.4454060000000 1.0
C      1  0.4379980000000  0.4940080000000  0.4730430000000 1.0
C      1  0.5697150000000  0.5168270000000  0.5215290000000 1.0
C      1  0.5030200000000  0.4446510000000  0.5163660000000 1.0
C      1  0.4975920000000  0.5473200000000  0.4669180000000 1.0
C      1  0.5832450000000  0.5624460000000  0.5306470000000 1.0
C      1  0.4205380000000  0.4395220000000  0.4688480000000 1.0
C      1  0.5308050000000  0.4336890000000  0.4247900000000 1.0
C      1  0.4767070000000  0.5744030000000  0.5745870000000 1.0
C      1  0.5140380000000  0.4167420000000  0.4401240000000 1.0
C      1  0.5007590000000  0.5869750000000  0.5617540000000 1.0
C      1  0.4965170000000  0.4517010000000  0.4007050000000 1.0
C      1  0.5016480000000  0.5417560000000  0.5907300000000 1.0
C      1  0.4388880000000  0.4259910000000  0.5589180000000 1.0
C      1  0.5612790000000  0.5618620000000  0.4443300000000 1.0
C      1  0.5746550000000  0.5059160000000  0.4970090000000 1.0
C      1  0.4334420000000  0.5014760000000  0.5016200000000 1.0
C      1  0.4176610000000  0.4656370000000  0.5621410000000 1.0
C      1  0.5914110000000  0.5347140000000  0.4328230000000 1.0
C      1  0.4129390000000  0.5293190000000  0.4556210000000 1.0
C      1  0.5810590000000  0.4720250000000  0.5424340000000 1.0
C      1  0.4856100000000  0.4328700000000  0.5577210000000 1.0
C      1  0.5150810000000  0.5722020000000  0.4271740000000 1.0
C      1  0.5128810000000  0.4306950000000  0.4673840000000 1.0
C      1  0.4868960000000  0.5582680000000  0.5363080000000 1.0
C      1  0.4592210000000  0.5082850000000  0.5133020000000 1.0
C      1  0.5399530000000  0.4911360000000  0.5021090000000 1.0
C      1  0.4590850000000  0.3952530000000  0.4724090000000 1.0
C      1  0.5354510000000  0.6008400000000  0.5369230000000 1.0
C      1  0.4823270000000  0.5430450000000  0.4174430000000 1.0
C      1  0.5194390000000  0.4578980000000  0.5747690000000 1.0
C      1  0.5035600000000  0.4977940000000  0.4903720000000 1.0
END
