TITL C-2441158-471-77 0.00153598711285001 125000 -3019.52041850109 0 0 24 (C1) n - 1
REM
REM in /home/bkarasulu/work/CARBON/AIRSS/Generating-Clusters/ReaxFF-fromJPCA2015/Units_Real/with-SteepDescent/Higher-Symm
REM
REM
REM
REM
REM
REM ./C.cell (1df0a924f5614ab8850e4351716899ee)
REM
REM compiler GCC version 9.2.1 20190827 (Red Hat 9.2.1-1)
REM options -cpp -mtune=generic -march=x86-64 -g -O0 -fpre-include=/usr/include/finclude/math-vector-fortran.h
REM seed 645959246 1854683372 -1853459164 -2020632739 -708501207 1163184612 -1232910995 -1374067228 -1700932651 117571440 -1779695705 -544703138 593839232 -785695721 -601496067 -2087995358 1381342282 -754726456 -1601503720 215980655 -1413151335 -1382697840 1054354304 1215870716 193003365 -978134034 180031795 8350936 -2058242425 2061238553 1271724726 -428013145 1941383581
REM
CELL 1.54180   50.00000   50.00000   50.00000   90.00000   90.00000   90.00000
LATT -1
SFAC C  
C      1  0.4854120000000  0.4942600000000  0.5678380000000 1.0
C      1  0.4498620000000  0.4946440000000  0.4530660000000 1.0
C      1  0.5655770000000  0.4944830000000  0.4776040000000 1.0
C      1  0.5643270000000  0.5211010000000  0.4917030000000 1.0
C      1  0.4746150000000  0.5197250000000  0.5567800000000 1.0
C      1  0.4653380000000  0.5191940000000  0.4498780000000 1.0
C      1  0.5160020000000  0.4804010000000  0.4700280000000 1.0
C      1  0.5215010000000  0.4837000000000  0.5302960000000 1.0
C      1  0.4582120000000  0.4804500000000  0.5023130000000 1.0
C      1  0.5066230000000  0.4770370000000  0.5562910000000 1.0
C      1  0.4462820000000  0.4745380000000  0.4751080000000 1.0
C      1  0.5450880000000  0.4775020000000  0.4657190000000 1.0
C      1  0.4893140000000  0.5251040000000  0.4662770000000 1.0
C      1  0.5407000000000  0.5261330000000  0.5095550000000 1.0
C      1  0.4724890000000  0.5230720000000  0.5267720000000 1.0
C      1  0.5253610000000  0.4542840000000  0.4768250000000 1.0
C      1  0.5069470000000  0.4573950000000  0.5330250000000 1.0
C      1  0.4652860000000  0.4547510000000  0.4878490000000 1.0
C      1  0.4676790000000  0.5441770000000  0.4693440000000 1.0
C      1  0.5458010000000  0.5442780000000  0.4857900000000 1.0
C      1  0.4901010000000  0.5417720000000  0.5427760000000 1.0
C      1  0.4770990000000  0.5018910000000  0.5066610000000 1.0
C      1  0.5008860000000  0.5038160000000  0.4871320000000 1.0
C      1  0.5194970000000  0.5062920000000  0.5113680000000 1.0
END
