TITL C-2441164-471-1374 0.0320512607748615 125000 -29283.6103352973 0 0 199 (C1) n - 1
REM
REM in /home/bkarasulu/work/CARBON/AIRSS/Generating-Clusters/ReaxFF-fromJPCA2015/Units_Real/with-SteepDescent/Higher-Symm
REM
REM
REM
REM
REM
REM ./C.cell (1df0a924f5614ab8850e4351716899ee)
REM
REM compiler GCC version 9.2.1 20190827 (Red Hat 9.2.1-1)
REM options -cpp -mtune=generic -march=x86-64 -g -O0 -fpre-include=/usr/include/finclude/math-vector-fortran.h
REM seed -847968369 950587716 1258107225 -876297515 -304421159 1752290248 412230503 1438129374 -763653039 1004888600 -1910996409 2098081918 -970447235 -517665680 98795035 -1357468629 -643841865 -134562919 -1117631560 -998401513 1561290724 -1015074800 1414855972 -1754331342 1484978895 -499653436 -710461015 -572797988 -751333172 952282188 1163060207 1756930453 1401007810
REM
CELL 1.54180   50.00000   50.00000   50.00000   90.00000   90.00000   90.00000
LATT -1
SFAC C  
C      1  0.4257450000000  0.4995710000000  0.4117260000000 1.0
C      1  0.4872250000000  0.4326680000000  0.4093280000000 1.0
C      1  0.5581150000000  0.4697090000000  0.4047740000000 1.0
C      1  0.5563960000000  0.5382560000000  0.4077050000000 1.0
C      1  0.4811080000000  0.5578340000000  0.4121550000000 1.0
C      1  0.5940720000000  0.4875430000000  0.4359610000000 1.0
C      1  0.5305430000000  0.5737360000000  0.4309100000000 1.0
C      1  0.4308810000000  0.5677330000000  0.4291590000000 1.0
C      1  0.4328090000000  0.4585050000000  0.4180400000000 1.0
C      1  0.5204660000000  0.4045370000000  0.4311440000000 1.0
C      1  0.4724660000000  0.5387380000000  0.6033520000000 1.0
C      1  0.4554270000000  0.4859410000000  0.6023910000000 1.0
C      1  0.5001680000000  0.4509190000000  0.6049020000000 1.0
C      1  0.5469660000000  0.4840380000000  0.5999490000000 1.0
C      1  0.5302730000000  0.5376830000000  0.6045520000000 1.0
C      1  0.4932790000000  0.4610130000000  0.4055370000000 1.0
C      1  0.5396250000000  0.4909230000000  0.3939850000000 1.0
C      1  0.5347570000000  0.5190970000000  0.4017460000000 1.0
C      1  0.4768940000000  0.5301590000000  0.4190900000000 1.0
C      1  0.4477310000000  0.4814980000000  0.4041670000000 1.0
C      1  0.5071220000000  0.5379990000000  0.4547260000000 1.0
C      1  0.4600410000000  0.5195340000000  0.4430400000000 1.0
C      1  0.4749250000000  0.4728200000000  0.4488870000000 1.0
C      1  0.5261260000000  0.4618220000000  0.4628030000000 1.0
C      1  0.5340280000000  0.5073740000000  0.4533270000000 1.0
C      1  0.5833590000000  0.5500230000000  0.5174830000000 1.0
C      1  0.4746650000000  0.6076610000000  0.5135340000000 1.0
C      1  0.3959410000000  0.5077870000000  0.5073790000000 1.0
C      1  0.4523830000000  0.4010730000000  0.5093990000000 1.0
C      1  0.5824760000000  0.4197210000000  0.5107270000000 1.0
C      1  0.4317860000000  0.5191350000000  0.4329050000000 1.0
C      1  0.4658680000000  0.4228140000000  0.4266140000000 1.0
C      1  0.5573350000000  0.4427890000000  0.4208690000000 1.0
C      1  0.5768090000000  0.5378870000000  0.4291670000000 1.0
C      1  0.4859390000000  0.5879430000000  0.4455700000000 1.0
C      1  0.5516760000000  0.4672760000000  0.4752730000000 1.0
C      1  0.5583260000000  0.5467810000000  0.5020670000000 1.0
C      1  0.4811850000000  0.5672500000000  0.4665320000000 1.0
C      1  0.4215200000000  0.4968390000000  0.4952940000000 1.0
C      1  0.4771900000000  0.4495310000000  0.4683650000000 1.0
C      1  0.5663360000000  0.5008470000000  0.5142540000000 1.0
C      1  0.5136790000000  0.5640060000000  0.5129180000000 1.0
C      1  0.4400850000000  0.5327550000000  0.5079640000000 1.0
C      1  0.4613660000000  0.4496890000000  0.5125190000000 1.0
C      1  0.5126450000000  0.4375140000000  0.5106700000000 1.0
C      1  0.5600110000000  0.4707520000000  0.5485700000000 1.0
C      1  0.5422730000000  0.5553180000000  0.5510710000000 1.0
C      1  0.4712200000000  0.5535930000000  0.5338490000000 1.0
C      1  0.4373830000000  0.4871840000000  0.5403140000000 1.0
C      1  0.4950350000000  0.4372760000000  0.5470810000000 1.0
C      1  0.3946450000000  0.4808410000000  0.4478470000000 1.0
C      1  0.4726320000000  0.4006650000000  0.4440360000000 1.0
C      1  0.5734740000000  0.4381380000000  0.4438340000000 1.0
C      1  0.5721550000000  0.5672060000000  0.4340510000000 1.0
C      1  0.4592860000000  0.5957650000000  0.4364250000000 1.0
C      1  0.5400590000000  0.6003330000000  0.5399430000000 1.0
C      1  0.4266890000000  0.5605790000000  0.5515510000000 1.0
C      1  0.4315270000000  0.4374940000000  0.5485260000000 1.0
C      1  0.5390920000000  0.4132170000000  0.5468950000000 1.0
C      1  0.5969790000000  0.5141430000000  0.5464710000000 1.0
C      1  0.3851220000000  0.5354830000000  0.5025000000000 1.0
C      1  0.4272710000000  0.4140580000000  0.5070290000000 1.0
C      1  0.5603770000000  0.4013750000000  0.5072320000000 1.0
C      1  0.6078130000000  0.5352420000000  0.5103510000000 1.0
C      1  0.5015400000000  0.6123380000000  0.5157720000000 1.0
C      1  0.4447600000000  0.5056890000000  0.5061560000000 1.0
C      1  0.4855550000000  0.4365150000000  0.5193280000000 1.0
C      1  0.5710260000000  0.4740930000000  0.5237240000000 1.0
C      1  0.5324970000000  0.5414860000000  0.5137200000000 1.0
C      1  0.4870860000000  0.5519290000000  0.5114760000000 1.0
C      1  0.4488290000000  0.4463550000000  0.5896800000000 1.0
C      1  0.5363500000000  0.4335030000000  0.5895270000000 1.0
C      1  0.5755940000000  0.5136270000000  0.5887320000000 1.0
C      1  0.5103130000000  0.5723690000000  0.5935180000000 1.0
C      1  0.4322900000000  0.5329810000000  0.5904420000000 1.0
C      1  0.5555210000000  0.4230330000000  0.5688060000000 1.0
C      1  0.5917680000000  0.5310020000000  0.5704760000000 1.0
C      1  0.4979280000000  0.5786800000000  0.5659740000000 1.0
C      1  0.4153210000000  0.5337560000000  0.5668390000000 1.0
C      1  0.4455570000000  0.4241730000000  0.5699980000000 1.0
C      1  0.4122510000000  0.5830520000000  0.5044100000000 1.0
C      1  0.3982500000000  0.4428000000000  0.5087510000000 1.0
C      1  0.5166220000000  0.3844300000000  0.5072680000000 1.0
C      1  0.6132480000000  0.4836490000000  0.5068940000000 1.0
C      1  0.5545550000000  0.6085450000000  0.5014910000000 1.0
C      1  0.4274380000000  0.4727400000000  0.4825690000000 1.0
C      1  0.4940340000000  0.4190940000000  0.4745430000000 1.0
C      1  0.5781910000000  0.4576290000000  0.4769560000000 1.0
C      1  0.5513670000000  0.5652990000000  0.4811360000000 1.0
C      1  0.4544980000000  0.5720180000000  0.4773900000000 1.0
C      1  0.5028490000000  0.5752180000000  0.4249740000000 1.0
C      1  0.4176850000000  0.5440230000000  0.4368560000000 1.0
C      1  0.4411960000000  0.4366020000000  0.4352350000000 1.0
C      1  0.5376860000000  0.4219100000000  0.4165810000000 1.0
C      1  0.5912660000000  0.5162120000000  0.4424640000000 1.0
C      1  0.5542020000000  0.5797660000000  0.4550630000000 1.0
C      1  0.4374770000000  0.5869280000000  0.4571040000000 1.0
C      1  0.4036000000000  0.4621470000000  0.4697890000000 1.0
C      1  0.5039810000000  0.3986060000000  0.4546900000000 1.0
C      1  0.5981450000000  0.4684910000000  0.4593080000000 1.0
C      1  0.5517040000000  0.5673950000000  0.4124430000000 1.0
C      1  0.4563690000000  0.5741210000000  0.4168420000000 1.0
C      1  0.4101360000000  0.4769710000000  0.4228650000000 1.0
C      1  0.5111040000000  0.4174070000000  0.4087680000000 1.0
C      1  0.5737980000000  0.4866360000000  0.4178680000000 1.0
C      1  0.5264230000000  0.4393620000000  0.5373220000000 1.0
C      1  0.5691650000000  0.5146810000000  0.5395630000000 1.0
C      1  0.5224120000000  0.5758590000000  0.5433280000000 1.0
C      1  0.4469240000000  0.5384140000000  0.5350050000000 1.0
C      1  0.4496510000000  0.4593460000000  0.5384060000000 1.0
C      1  0.3919720000000  0.4941960000000  0.5331790000000 1.0
C      1  0.4687950000000  0.3932490000000  0.5346730000000 1.0
C      1  0.5918630000000  0.4362700000000  0.5331360000000 1.0
C      1  0.5820810000000  0.5717990000000  0.5371490000000 1.0
C      1  0.4555370000000  0.5944390000000  0.5337950000000 1.0
C      1  0.4503690000000  0.4530330000000  0.4853890000000 1.0
C      1  0.5196670000000  0.4257070000000  0.4864950000000 1.0
C      1  0.5704710000000  0.5093500000000  0.4874480000000 1.0
C      1  0.5254580000000  0.5758490000000  0.4880640000000 1.0
C      1  0.4384260000000  0.5491620000000  0.4846390000000 1.0
C      1  0.4337230000000  0.4293830000000  0.4640100000000 1.0
C      1  0.5446400000000  0.4049520000000  0.4804880000000 1.0
C      1  0.5953430000000  0.5133550000000  0.4721530000000 1.0
C      1  0.5204550000000  0.6002820000000  0.4743510000000 1.0
C      1  0.4114010000000  0.5513270000000  0.4667400000000 1.0
C      1  0.5227340000000  0.5138390000000  0.5489490000000 1.0
C      1  0.4984660000000  0.5255720000000  0.5544210000000 1.0
C      1  0.4801320000000  0.5067770000000  0.5443900000000 1.0
C      1  0.4919860000000  0.4832980000000  0.5339950000000 1.0
C      1  0.5204670000000  0.4891900000000  0.5355840000000 1.0
C      1  0.4691910000000  0.4918110000000  0.3872950000000 1.0
C      1  0.4919130000000  0.4752310000000  0.3798370000000 1.0
C      1  0.5157340000000  0.4921310000000  0.3758220000000 1.0
C      1  0.5102160000000  0.5196760000000  0.3845570000000 1.0
C      1  0.4814930000000  0.5190380000000  0.3930480000000 1.0
C      1  0.4043550000000  0.5081860000000  0.5594550000000 1.0
C      1  0.4669740000000  0.4051020000000  0.5622360000000 1.0
C      1  0.5801800000000  0.4369880000000  0.5603740000000 1.0
C      1  0.5840520000000  0.5593560000000  0.5640660000000 1.0
C      1  0.4675800000000  0.5888220000000  0.5596640000000 1.0
C      1  0.4656010000000  0.4966510000000  0.4611600000000 1.0
C      1  0.5016970000000  0.4622760000000  0.4788760000000 1.0
C      1  0.5476150000000  0.4949170000000  0.4784810000000 1.0
C      1  0.5238450000000  0.5270640000000  0.4673030000000 1.0
C      1  0.4828380000000  0.5399410000000  0.4651330000000 1.0
C      1  0.5851510000000  0.4297360000000  0.4828800000000 1.0
C      1  0.5908630000000  0.5712830000000  0.4765820000000 1.0
C      1  0.4662920000000  0.6111800000000  0.4836020000000 1.0
C      1  0.3874100000000  0.5072370000000  0.4585260000000 1.0
C      1  0.4699550000000  0.4004800000000  0.4854760000000 1.0
C      1  0.5172060000000  0.5230020000000  0.4964170000000 1.0
C      1  0.4858710000000  0.5289880000000  0.4937960000000 1.0
C      1  0.4698700000000  0.5020880000000  0.4908610000000 1.0
C      1  0.4954410000000  0.4823740000000  0.4992480000000 1.0
C      1  0.5223840000000  0.4950360000000  0.5024690000000 1.0
C      1  0.5306410000000  0.4599740000000  0.6006100000000 1.0
C      1  0.5459150000000  0.5156200000000  0.5904680000000 1.0
C      1  0.5013840000000  0.5467540000000  0.6044210000000 1.0
C      1  0.4557410000000  0.5150900000000  0.5994030000000 1.0
C      1  0.4723550000000  0.4604390000000  0.6012660000000 1.0
C      1  0.4460960000000  0.5735490000000  0.5713670000000 1.0
C      1  0.4196440000000  0.4840360000000  0.5645150000000 1.0
C      1  0.4927060000000  0.4157100000000  0.5689810000000 1.0
C      1  0.5784790000000  0.4650360000000  0.5682400000000 1.0
C      1  0.5575820000000  0.5681710000000  0.5725660000000 1.0
C      1  0.6096950000000  0.5487830000000  0.4807810000000 1.0
C      1  0.4941010000000  0.6165350000000  0.4730630000000 1.0
C      1  0.3867890000000  0.5321750000000  0.4730030000000 1.0
C      1  0.4516220000000  0.4032310000000  0.4633990000000 1.0
C      1  0.5691120000000  0.4174590000000  0.4627400000000 1.0
C      1  0.5743630000000  0.4837290000000  0.5909410000000 1.0
C      1  0.5387780000000  0.5644980000000  0.5961910000000 1.0
C      1  0.4495880000000  0.5563660000000  0.5952270000000 1.0
C      1  0.4336890000000  0.4720930000000  0.5883720000000 1.0
C      1  0.5075500000000  0.4251160000000  0.5923410000000 1.0
C      1  0.3946160000000  0.4683250000000  0.5214230000000 1.0
C      1  0.4919980000000  0.3882480000000  0.5205550000000 1.0
C      1  0.5976010000000  0.4632390000000  0.5219580000000 1.0
C      1  0.5650320000000  0.5945700000000  0.5261450000000 1.0
C      1  0.4297170000000  0.5806300000000  0.5292500000000 1.0
C      1  0.4131490000000  0.4255230000000  0.5283000000000 1.0
C      1  0.5402610000000  0.3934610000000  0.5255750000000 1.0
C      1  0.6137710000000  0.5097100000000  0.5216150000000 1.0
C      1  0.5296580000000  0.6171420000000  0.5181690000000 1.0
C      1  0.3980750000000  0.5600700000000  0.5074950000000 1.0
C      1  0.4845000000000  0.4635870000000  0.5527590000000 1.0
C      1  0.5329870000000  0.4663970000000  0.5491790000000 1.0
C      1  0.5459960000000  0.5253360000000  0.5561450000000 1.0
C      1  0.4875370000000  0.5522350000000  0.5577170000000 1.0
C      1  0.4531310000000  0.5110490000000  0.5459630000000 1.0
C      1  0.4078540000000  0.4349720000000  0.4792410000000 1.0
C      1  0.5218230000000  0.3859160000000  0.4780570000000 1.0
C      1  0.6094810000000  0.4873650000000  0.4783000000000 1.0
C      1  0.5490190000000  0.6057900000000  0.4726580000000 1.0
C      1  0.4131670000000  0.5807100000000  0.4739370000000 1.0
C      1  0.4960510000000  0.4786390000000  0.4293180000000 1.0
C      1  0.5014580000000  0.4765920000000  0.5727330000000 1.0
C      1  0.5020170000000  0.4952030000000  0.5887640000000 1.0
C      1  0.5215940000000  0.4827140000000  0.4428310000000 1.0
END
