TITL C-2441169-1362-603 0.128350248531428 125000 -18095.6274373875 0 0 144 (C1) n - 1
REM
REM in /home/bkarasulu/work/CARBON/AIRSS/Generating-Clusters/ReaxFF-fromJPCA2015/Units_Real/with-SteepDescent/Higher-Symm
REM
REM
REM
REM
REM
REM ./C.cell (1df0a924f5614ab8850e4351716899ee)
REM
REM compiler GCC version 9.2.1 20190827 (Red Hat 9.2.1-1)
REM options -cpp -mtune=generic -march=x86-64 -g -O0 -fpre-include=/usr/include/finclude/math-vector-fortran.h
REM seed -513576156 1088512664 745353770 1804270873 869479935 789686963 1830597130 379672094 680909855 380342111 -1381932037 -1843397000 -1987874735 -670914955 -1866369436 1804459671 -1334799242 2006748345 1977817685 -1012051308 2103737021 1597473901 482037782 786581223 2039993880 -1287029997 1385889196 114503143 172512932 -661710749 -961358654 1851456805 -177452553
REM
CELL 1.54180   50.00000   50.00000   50.00000   90.00000   90.00000   90.00000
LATT -1
SFAC C  
C      1  0.4817690000000  0.5474610000000  0.4554760000000 1.0
C      1  0.5182790000000  0.4455930000000  0.5499740000000 1.0
C      1  0.5717370000000  0.5005180000000  0.5492870000000 1.0
C      1  0.4272640000000  0.4997770000000  0.4562380000000 1.0
C      1  0.5328710000000  0.4066640000000  0.4917420000000 1.0
C      1  0.4707070000000  0.5890490000000  0.5131370000000 1.0
C      1  0.4672590000000  0.5588930000000  0.4317130000000 1.0
C      1  0.5410900000000  0.4444500000000  0.5707610000000 1.0
C      1  0.4429630000000  0.5237890000000  0.5764750000000 1.0
C      1  0.5606250000000  0.4744950000000  0.4226140000000 1.0
C      1  0.4946770000000  0.5187260000000  0.4013120000000 1.0
C      1  0.5042830000000  0.4840250000000  0.5961770000000 1.0
C      1  0.4525730000000  0.4967770000000  0.4743870000000 1.0
C      1  0.5416430000000  0.5108020000000  0.5273290000000 1.0
C      1  0.4905650000000  0.5738920000000  0.4658100000000 1.0
C      1  0.5126070000000  0.4211160000000  0.5361810000000 1.0
C      1  0.4511910000000  0.5805260000000  0.5338640000000 1.0
C      1  0.5490720000000  0.4171070000000  0.4692170000000 1.0
C      1  0.4427030000000  0.5807690000000  0.4755720000000 1.0
C      1  0.5613830000000  0.4222910000000  0.5273100000000 1.0
C      1  0.5415740000000  0.5591180000000  0.5713080000000 1.0
C      1  0.4540030000000  0.4410580000000  0.4299900000000 1.0
C      1  0.5621020000000  0.4648550000000  0.5281860000000 1.0
C      1  0.4378230000000  0.5394630000000  0.4729220000000 1.0
C      1  0.4700910000000  0.5771840000000  0.5558120000000 1.0
C      1  0.5313190000000  0.4205850000000  0.4453640000000 1.0
C      1  0.5514350000000  0.4619940000000  0.4660220000000 1.0
C      1  0.4429170000000  0.5350520000000  0.5321300000000 1.0
C      1  0.4358950000000  0.4413200000000  0.5288930000000 1.0
C      1  0.5664780000000  0.5579010000000  0.4705380000000 1.0
C      1  0.4969490000000  0.4390560000000  0.5698910000000 1.0
C      1  0.5011270000000  0.5672980000000  0.4263840000000 1.0
C      1  0.5650180000000  0.5717290000000  0.5212760000000 1.0
C      1  0.4349860000000  0.4283090000000  0.4781300000000 1.0
C      1  0.5641170000000  0.5207480000000  0.5686260000000 1.0
C      1  0.4349490000000  0.4809480000000  0.4354470000000 1.0
C      1  0.5836400000000  0.5319970000000  0.4981960000000 1.0
C      1  0.4167940000000  0.4672680000000  0.5047640000000 1.0
C      1  0.5970030000000  0.5317580000000  0.5237750000000 1.0
C      1  0.4036550000000  0.4685970000000  0.4783060000000 1.0
C      1  0.5429230000000  0.6007680000000  0.4893680000000 1.0
C      1  0.4545170000000  0.4035420000000  0.5047760000000 1.0
C      1  0.5331430000000  0.4414040000000  0.4267220000000 1.0
C      1  0.4745680000000  0.5567080000000  0.5744710000000 1.0
C      1  0.5040840000000  0.5174340000000  0.5650790000000 1.0
C      1  0.5105580000000  0.4801460000000  0.4243970000000 1.0
C      1  0.5258500000000  0.5596240000000  0.4396960000000 1.0
C      1  0.4695870000000  0.4395920000000  0.5614260000000 1.0
C      1  0.4686970000000  0.5112650000000  0.4127930000000 1.0
C      1  0.5324370000000  0.4909010000000  0.5900760000000 1.0
C      1  0.5002530000000  0.5447570000000  0.4106530000000 1.0
C      1  0.4921510000000  0.4591530000000  0.5895880000000 1.0
C      1  0.4278520000000  0.5385600000000  0.5560800000000 1.0
C      1  0.5714650000000  0.4609160000000  0.4456880000000 1.0
C      1  0.4315490000000  0.5583690000000  0.4953280000000 1.0
C      1  0.5653970000000  0.4437250000000  0.5058370000000 1.0
C      1  0.5054850000000  0.4181940000000  0.4591720000000 1.0
C      1  0.4909940000000  0.5811790000000  0.5316690000000 1.0
C      1  0.5285400000000  0.5359230000000  0.5194020000000 1.0
C      1  0.4792390000000  0.4657400000000  0.4920900000000 1.0
C      1  0.4059910000000  0.5429610000000  0.4969610000000 1.0
C      1  0.5863250000000  0.4614840000000  0.4935260000000 1.0
C      1  0.5376070000000  0.5001140000000  0.4731430000000 1.0
C      1  0.4590540000000  0.4956490000000  0.5212840000000 1.0
C      1  0.5173510000000  0.5015930000000  0.4509000000000 1.0
C      1  0.4761720000000  0.4874250000000  0.5421160000000 1.0
C      1  0.5820960000000  0.5534170000000  0.5362420000000 1.0
C      1  0.4175380000000  0.4470970000000  0.4639260000000 1.0
C      1  0.4091840000000  0.5365670000000  0.4688890000000 1.0
C      1  0.5923950000000  0.4713680000000  0.5198010000000 1.0
C      1  0.5232590000000  0.4621110000000  0.4744730000000 1.0
C      1  0.4714470000000  0.5373140000000  0.5259980000000 1.0
C      1  0.5314180000000  0.5299180000000  0.4412250000000 1.0
C      1  0.4647510000000  0.4679700000000  0.5599690000000 1.0
C      1  0.4291090000000  0.5608330000000  0.5348580000000 1.0
C      1  0.5685020000000  0.4381380000000  0.4643960000000 1.0
C      1  0.4386650000000  0.4951260000000  0.5757190000000 1.0
C      1  0.5647910000000  0.5023210000000  0.4274230000000 1.0
C      1  0.4267940000000  0.5270520000000  0.4360840000000 1.0
C      1  0.5670380000000  0.4729290000000  0.5568660000000 1.0
C      1  0.5779710000000  0.5060000000000  0.4547940000000 1.0
C      1  0.4227150000000  0.4880460000000  0.5505200000000 1.0
C      1  0.5109910000000  0.5524850000000  0.5373980000000 1.0
C      1  0.4841480000000  0.4371440000000  0.4556710000000 1.0
C      1  0.4552000000000  0.4726400000000  0.5047520000000 1.0
C      1  0.5405500000000  0.5283060000000  0.4715250000000 1.0
C      1  0.5249400000000  0.5856690000000  0.5056710000000 1.0
C      1  0.4787060000000  0.4120300000000  0.4909670000000 1.0
C      1  0.4803780000000  0.4401500000000  0.4266360000000 1.0
C      1  0.5139440000000  0.5607920000000  0.5661280000000 1.0
C      1  0.5421250000000  0.5173010000000  0.5864800000000 1.0
C      1  0.4624550000000  0.4850870000000  0.4246410000000 1.0
C      1  0.4996640000000  0.4325830000000  0.5122510000000 1.0
C      1  0.5034390000000  0.5607660000000  0.4892990000000 1.0
C      1  0.5329320000000  0.4598320000000  0.5253740000000 1.0
C      1  0.4645080000000  0.5437090000000  0.4769850000000 1.0
C      1  0.5485420000000  0.4709970000000  0.5779810000000 1.0
C      1  0.4533860000000  0.5322260000000  0.4244390000000 1.0
C      1  0.4149000000000  0.5038200000000  0.5287960000000 1.0
C      1  0.5845720000000  0.4868410000000  0.4769950000000 1.0
C      1  0.5348490000000  0.4104340000000  0.5207390000000 1.0
C      1  0.4704300000000  0.5882250000000  0.4830030000000 1.0
C      1  0.4921120000000  0.5319050000000  0.5434850000000 1.0
C      1  0.4935280000000  0.4664120000000  0.4665110000000 1.0
C      1  0.4688220000000  0.5326200000000  0.5876040000000 1.0
C      1  0.5346160000000  0.4631000000000  0.4114530000000 1.0
C      1  0.5230550000000  0.5017610000000  0.5488660000000 1.0
C      1  0.4747670000000  0.4897160000000  0.4565740000000 1.0
C      1  0.4643760000000  0.5104810000000  0.4976650000000 1.0
C      1  0.5366610000000  0.4953590000000  0.5016370000000 1.0
C      1  0.4056090000000  0.4969760000000  0.4763760000000 1.0
C      1  0.5935320000000  0.5014250000000  0.5266470000000 1.0
C      1  0.5630740000000  0.5464470000000  0.5568570000000 1.0
C      1  0.4311190000000  0.4534630000000  0.4396130000000 1.0
C      1  0.4836620000000  0.5050890000000  0.5882220000000 1.0
C      1  0.5189510000000  0.5017490000000  0.4055640000000 1.0
C      1  0.5222090000000  0.5392550000000  0.5852630000000 1.0
C      1  0.4842420000000  0.4662810000000  0.4190000000000 1.0
C      1  0.5589530000000  0.4334120000000  0.5528600000000 1.0
C      1  0.4470650000000  0.5757720000000  0.4475520000000 1.0
C      1  0.4584750000000  0.4269210000000  0.5385690000000 1.0
C      1  0.5421420000000  0.5725410000000  0.4590240000000 1.0
C      1  0.5092900000000  0.5973980000000  0.5242180000000 1.0
C      1  0.5057720000000  0.4030600000000  0.4819570000000 1.0
C      1  0.5235790000000  0.5391370000000  0.4927100000000 1.0
C      1  0.4821160000000  0.4545250000000  0.5156330000000 1.0
C      1  0.5650410000000  0.5542160000000  0.4992440000000 1.0
C      1  0.4291960000000  0.4421780000000  0.5028030000000 1.0
C      1  0.4917820000000  0.5089200000000  0.4912140000000 1.0
C      1  0.5088290000000  0.4925750000000  0.5064920000000 1.0
C      1  0.5464510000000  0.6002600000000  0.4648880000000 1.0
C      1  0.4555130000000  0.3996380000000  0.5314750000000 1.0
C      1  0.5254810000000  0.4485600000000  0.5002460000000 1.0
C      1  0.4783070000000  0.5488720000000  0.5009380000000 1.0
C      1  0.4629670000000  0.4816370000000  0.5859770000000 1.0
C      1  0.5419450000000  0.5161940000000  0.4165040000000 1.0
C      1  0.4929850000000  0.5134650000000  0.4620540000000 1.0
C      1  0.5034720000000  0.4880730000000  0.5343520000000 1.0
C      1  0.4184240000000  0.4634250000000  0.5342880000000 1.0
C      1  0.5802310000000  0.5328200000000  0.4645230000000 1.0
C      1  0.5821060000000  0.5040590000000  0.4989740000000 1.0
C      1  0.4080490000000  0.5128140000000  0.5033850000000 1.0
C      1  0.4629790000000  0.4240280000000  0.4712750000000 1.0
C      1  0.5412620000000  0.5861360000000  0.5278200000000 1.0
END
