TITL C-2441167-4473-1129 0.0446454304804022 125000 -21636.5894186218 0 0 153 (C1) n - 1
REM
REM in /home/bkarasulu/work/CARBON/AIRSS/Generating-Clusters/ReaxFF-fromJPCA2015/Units_Real/with-SteepDescent/Higher-Symm
REM
REM
REM
REM
REM
REM ./C.cell (1df0a924f5614ab8850e4351716899ee)
REM
REM compiler GCC version 9.2.1 20190827 (Red Hat 9.2.1-1)
REM options -cpp -mtune=generic -march=x86-64 -g -O0 -fpre-include=/usr/include/finclude/math-vector-fortran.h
REM seed -1193999794 780414957 -111962375 -794267207 -1214760084 -892951872 1456534883 1634822266 357581814 -4639654 -834912940 -319143612 -1045697650 1330844046 -284437103 -531023105 -464233552 -421825470 2087086715 943649155 908560359 1380518465 179235645 525640836 77710264 -969688472 845907934 359244817 -1745614285 -407768581 -495542452 1852231605 62330775
REM
CELL 1.54180   50.00000   50.00000   50.00000   90.00000   90.00000   90.00000
LATT -1
SFAC C  
C      1  0.4523960000000  0.5065060000000  0.4853550000000 1.0
C      1  0.5170280000000  0.5036500000000  0.5488370000000 1.0
C      1  0.5276960000000  0.5060470000000  0.4653820000000 1.0
C      1  0.5001950000000  0.4982200000000  0.4666330000000 1.0
C      1  0.4894130000000  0.5012370000000  0.5092150000000 1.0
C      1  0.5172130000000  0.4912360000000  0.5082830000000 1.0
C      1  0.5462010000000  0.5498870000000  0.5113620000000 1.0
C      1  0.4974370000000  0.5605270000000  0.4404680000000 1.0
C      1  0.4478510000000  0.5747020000000  0.5442030000000 1.0
C      1  0.5766110000000  0.4280680000000  0.4955450000000 1.0
C      1  0.4635290000000  0.4309510000000  0.4289800000000 1.0
C      1  0.4572020000000  0.4345660000000  0.5627720000000 1.0
C      1  0.5704220000000  0.4308110000000  0.5226700000000 1.0
C      1  0.4890910000000  0.4391770000000  0.4155770000000 1.0
C      1  0.4342290000000  0.4350090000000  0.5456600000000 1.0
C      1  0.5490670000000  0.5684930000000  0.5600690000000 1.0
C      1  0.5330450000000  0.5671540000000  0.4206690000000 1.0
C      1  0.4154880000000  0.5619860000000  0.5109070000000 1.0
C      1  0.5480180000000  0.4816030000000  0.4800200000000 1.0
C      1  0.4545730000000  0.4803560000000  0.4708120000000 1.0
C      1  0.4960620000000  0.4849040000000  0.5542710000000 1.0
C      1  0.5427590000000  0.5061960000000  0.5123530000000 1.0
C      1  0.4821960000000  0.5155110000000  0.4504490000000 1.0
C      1  0.4724350000000  0.5115030000000  0.5322730000000 1.0
C      1  0.4470080000000  0.5011300000000  0.5269330000000 1.0
C      1  0.5623870000000  0.5015060000000  0.5341120000000 1.0
C      1  0.5109290000000  0.4850780000000  0.4019800000000 1.0
C      1  0.4848160000000  0.5610400000000  0.5044540000000 1.0
C      1  0.5242860000000  0.5508500000000  0.5276280000000 1.0
C      1  0.5077500000000  0.5523920000000  0.4860780000000 1.0
C      1  0.4381690000000  0.4239000000000  0.4614620000000 1.0
C      1  0.4959590000000  0.4232190000000  0.5668660000000 1.0
C      1  0.5435790000000  0.4124270000000  0.4657010000000 1.0
C      1  0.5521850000000  0.4211180000000  0.5427710000000 1.0
C      1  0.5136110000000  0.4291170000000  0.4275690000000 1.0
C      1  0.4290100000000  0.4276320000000  0.5170860000000 1.0
C      1  0.5270670000000  0.4053580000000  0.5343570000000 1.0
C      1  0.5146240000000  0.4098890000000  0.4525810000000 1.0
C      1  0.4721940000000  0.4096550000000  0.4957040000000 1.0
C      1  0.5051740000000  0.5658920000000  0.5907950000000 1.0
C      1  0.5707180000000  0.5649640000000  0.4594990000000 1.0
C      1  0.4284730000000  0.5592940000000  0.4556450000000 1.0
C      1  0.5251980000000  0.4562130000000  0.4319020000000 1.0
C      1  0.4073000000000  0.4443790000000  0.5094090000000 1.0
C      1  0.5487660000000  0.4484840000000  0.5532210000000 1.0
C      1  0.5956840000000  0.5320120000000  0.4911970000000 1.0
C      1  0.4433100000000  0.5199350000000  0.4198890000000 1.0
C      1  0.4579880000000  0.5448400000000  0.5847200000000 1.0
C      1  0.5636740000000  0.4683600000000  0.5692310000000 1.0
C      1  0.5368700000000  0.4759260000000  0.4110390000000 1.0
C      1  0.4052020000000  0.4683030000000  0.5271140000000 1.0
C      1  0.5888020000000  0.5421690000000  0.4661360000000 1.0
C      1  0.4254820000000  0.5362080000000  0.4373640000000 1.0
C      1  0.4843340000000  0.5453100000000  0.5972930000000 1.0
C      1  0.5542920000000  0.5560400000000  0.4359950000000 1.0
C      1  0.4121940000000  0.5607430000000  0.4819190000000 1.0
C      1  0.5340300000000  0.5586400000000  0.5828630000000 1.0
C      1  0.4942300000000  0.5337110000000  0.4062110000000 1.0
C      1  0.4263280000000  0.5297970000000  0.5513250000000 1.0
C      1  0.5838540000000  0.5361930000000  0.5389550000000 1.0
C      1  0.5435300000000  0.4627700000000  0.5278280000000 1.0
C      1  0.4983280000000  0.4647720000000  0.4452350000000 1.0
C      1  0.4558760000000  0.4737980000000  0.5219800000000 1.0
C      1  0.5688950000000  0.5192390000000  0.5555640000000 1.0
C      1  0.5134490000000  0.5128650000000  0.4126480000000 1.0
C      1  0.4214640000000  0.5151140000000  0.5236060000000 1.0
C      1  0.4248870000000  0.5564540000000  0.5385420000000 1.0
C      1  0.5710400000000  0.5617460000000  0.5425690000000 1.0
C      1  0.5042770000000  0.5615120000000  0.4117740000000 1.0
C      1  0.5061440000000  0.4427740000000  0.5473220000000 1.0
C      1  0.5382730000000  0.4394350000000  0.4740230000000 1.0
C      1  0.4470070000000  0.4267860000000  0.4927300000000 1.0
C      1  0.4791670000000  0.4616790000000  0.5085980000000 1.0
C      1  0.5195420000000  0.4633190000000  0.5162460000000 1.0
C      1  0.5025920000000  0.4709910000000  0.4706040000000 1.0
C      1  0.5631100000000  0.5742250000000  0.5136720000000 1.0
C      1  0.4720040000000  0.5688760000000  0.4343360000000 1.0
C      1  0.4655020000000  0.5667750000000  0.5657440000000 1.0
C      1  0.4440710000000  0.4742590000000  0.5638380000000 1.0
C      1  0.5847520000000  0.4689410000000  0.5195600000000 1.0
C      1  0.4646420000000  0.4762700000000  0.4181050000000 1.0
C      1  0.5269810000000  0.5312370000000  0.5838180000000 1.0
C      1  0.5567830000000  0.5235060000000  0.4344780000000 1.0
C      1  0.4112770000000  0.5314610000000  0.4820760000000 1.0
C      1  0.4210110000000  0.4607480000000  0.5508310000000 1.0
C      1  0.5779280000000  0.4799510000000  0.5459760000000 1.0
C      1  0.4884500000000  0.4661460000000  0.4037150000000 1.0
C      1  0.5107640000000  0.4564250000000  0.5943270000000 1.0
C      1  0.5773590000000  0.4538290000000  0.4487470000000 1.0
C      1  0.4115350000000  0.4564990000000  0.4826480000000 1.0
C      1  0.5659230000000  0.5815880000000  0.4824810000000 1.0
C      1  0.4581130000000  0.5599470000000  0.4559000000000 1.0
C      1  0.4938500000000  0.5741130000000  0.5663710000000 1.0
C      1  0.4120240000000  0.5181770000000  0.4553280000000 1.0
C      1  0.4981970000000  0.5229200000000  0.5825870000000 1.0
C      1  0.5716940000000  0.5189820000000  0.4589330000000 1.0
C      1  0.5299460000000  0.4106870000000  0.5062310000000 1.0
C      1  0.4876300000000  0.4165170000000  0.4717090000000 1.0
C      1  0.4811260000000  0.4120910000000  0.5235510000000 1.0
C      1  0.4727570000000  0.5211690000000  0.4218500000000 1.0
C      1  0.4429780000000  0.5219230000000  0.5742530000000 1.0
C      1  0.5979180000000  0.5201200000000  0.5147180000000 1.0
C      1  0.5257850000000  0.5307160000000  0.4814510000000 1.0
C      1  0.4762550000000  0.5208760000000  0.4916290000000 1.0
C      1  0.5087820000000  0.5282030000000  0.5354520000000 1.0
C      1  0.5096290000000  0.4621400000000  0.5663180000000 1.0
C      1  0.5479360000000  0.4614410000000  0.4577210000000 1.0
C      1  0.4408520000000  0.4584540000000  0.4831980000000 1.0
C      1  0.4606510000000  0.5924560000000  0.5246720000000 1.0
C      1  0.5407090000000  0.5958590000000  0.5134830000000 1.0
C      1  0.4929840000000  0.6034400000000  0.4698040000000 1.0
C      1  0.4996900000000  0.4034280000000  0.5452570000000 1.0
C      1  0.5554110000000  0.4064680000000  0.4920330000000 1.0
C      1  0.4640330000000  0.4130170000000  0.4525320000000 1.0
C      1  0.4889580000000  0.5879030000000  0.5175890000000 1.0
C      1  0.5429030000000  0.5985090000000  0.4847910000000 1.0
C      1  0.4699640000000  0.6001940000000  0.4793720000000 1.0
C      1  0.4751240000000  0.5356980000000  0.4673650000000 1.0
C      1  0.4845880000000  0.5279230000000  0.5520430000000 1.0
C      1  0.5515200000000  0.5276330000000  0.4933070000000 1.0
C      1  0.5197970000000  0.4398050000000  0.4964300000000 1.0
C      1  0.4917950000000  0.4485830000000  0.4847650000000 1.0
C      1  0.4863420000000  0.4403430000000  0.5269210000000 1.0
C      1  0.5984370000000  0.4908430000000  0.5055610000000 1.0
C      1  0.4387980000000  0.4908900000000  0.4170200000000 1.0
C      1  0.4511080000000  0.4936650000000  0.5841920000000 1.0
C      1  0.5423330000000  0.5120700000000  0.5693730000000 1.0
C      1  0.5307630000000  0.5155550000000  0.4367120000000 1.0
C      1  0.4374200000000  0.5287400000000  0.4971270000000 1.0
C      1  0.5590020000000  0.4931190000000  0.4183670000000 1.0
C      1  0.4042400000000  0.4924360000000  0.5113010000000 1.0
C      1  0.5478820000000  0.4866700000000  0.5848260000000 1.0
C      1  0.4765730000000  0.4430020000000  0.5798900000000 1.0
C      1  0.5871910000000  0.4493340000000  0.4753720000000 1.0
C      1  0.4387720000000  0.4445070000000  0.4396730000000 1.0
C      1  0.4750990000000  0.4771940000000  0.5906310000000 1.0
C      1  0.5959020000000  0.4775560000000  0.4790570000000 1.0
C      1  0.4271120000000  0.4724060000000  0.4362620000000 1.0
C      1  0.5799080000000  0.4786520000000  0.4326020000000 1.0
C      1  0.4015750000000  0.4839590000000  0.4832780000000 1.0
C      1  0.5241530000000  0.4807090000000  0.6007900000000 1.0
C      1  0.5152930000000  0.5961200000000  0.5272560000000 1.0
C      1  0.5199040000000  0.5976190000000  0.4654530000000 1.0
C      1  0.4510560000000  0.5862270000000  0.4966560000000 1.0
C      1  0.5145790000000  0.5688850000000  0.4636240000000 1.0
C      1  0.4561700000000  0.5568700000000  0.5002770000000 1.0
C      1  0.5191320000000  0.5736190000000  0.5468910000000 1.0
C      1  0.4968670000000  0.4944070000000  0.5971750000000 1.0
C      1  0.5879540000000  0.4944560000000  0.4558760000000 1.0
C      1  0.4117280000000  0.4891450000000  0.4556980000000 1.0
C      1  0.4715760000000  0.4740150000000  0.4457010000000 1.0
C      1  0.4686750000000  0.4747080000000  0.5480940000000 1.0
C      1  0.5586620000000  0.4688820000000  0.5043110000000 1.0
END
