TITL C-2441164-471-1153 -0.000945190562900645 125000 -4710.75047990633 0 0 34 (C1) n - 1
REM
REM in /home/bkarasulu/work/CARBON/AIRSS/Generating-Clusters/ReaxFF-fromJPCA2015/Units_Real/with-SteepDescent/Higher-Symm
REM
REM
REM
REM
REM
REM ./C.cell (1df0a924f5614ab8850e4351716899ee)
REM
REM compiler GCC version 9.2.1 20190827 (Red Hat 9.2.1-1)
REM options -cpp -mtune=generic -march=x86-64 -g -O0 -fpre-include=/usr/include/finclude/math-vector-fortran.h
REM seed -377514165 693358345 2121502390 -1542837168 -1859729919 1239462921 -352674829 -1066147253 -1456506059 -1168415491 1691961915 -557110489 -1029880144 584581564 918267404 422808782 -627041372 1240953488 226419254 -207915652 -615592092 -1236047396 279426336 432890987 -1200947612 308731930 1842782527 1022338405 -1698774929 -184512557 1110371373 -194906408 1086740445
REM
CELL 1.54180   50.00000   50.00000   50.00000   90.00000   90.00000   90.00000
LATT -1
SFAC C  
C      1  0.5450440000000  0.5333990000000  0.5066630000000 1.0
C      1  0.5193940000000  0.5356270000000  0.4590860000000 1.0
C      1  0.4664090000000  0.5346810000000  0.4692080000000 1.0
C      1  0.4599220000000  0.5386610000000  0.5225950000000 1.0
C      1  0.5082200000000  0.5349140000000  0.5457670000000 1.0
C      1  0.4545690000000  0.5359390000000  0.4949480000000 1.0
C      1  0.4801510000000  0.5368200000000  0.5422060000000 1.0
C      1  0.5329700000000  0.5340310000000  0.5323470000000 1.0
C      1  0.5399870000000  0.5337780000000  0.4787760000000 1.0
C      1  0.4912790000000  0.5366180000000  0.4555850000000 1.0
C      1  0.5466600000000  0.4674560000000  0.5099930000000 1.0
C      1  0.5226890000000  0.4744180000000  0.4594180000000 1.0
C      1  0.4764820000000  0.4732160000000  0.4690530000000 1.0
C      1  0.4419080000000  0.4772040000000  0.5192610000000 1.0
C      1  0.5064590000000  0.4695070000000  0.5384040000000 1.0
C      1  0.5067420000000  0.5182720000000  0.4409070000000 1.0
C      1  0.4489630000000  0.5142900000000  0.4778010000000 1.0
C      1  0.4575640000000  0.5202140000000  0.5436200000000 1.0
C      1  0.5277050000000  0.5158930000000  0.5535330000000 1.0
C      1  0.5575270000000  0.5144530000000  0.4899430000000 1.0
C      1  0.4509610000000  0.4847630000000  0.4791820000000 1.0
C      1  0.4563910000000  0.4901620000000  0.5427120000000 1.0
C      1  0.5286610000000  0.4867800000000  0.5535450000000 1.0
C      1  0.5596810000000  0.4852790000000  0.4880380000000 1.0
C      1  0.5058500000000  0.4885000000000  0.4389370000000 1.0
C      1  0.5491880000000  0.4769650000000  0.4635110000000 1.0
C      1  0.4803910000000  0.4762040000000  0.4422810000000 1.0
C      1  0.4346540000000  0.4704320000000  0.4987160000000 1.0
C      1  0.4812880000000  0.4798460000000  0.5405960000000 1.0
C      1  0.5475870000000  0.4745980000000  0.5370470000000 1.0
C      1  0.5178170000000  0.4640200000000  0.5108530000000 1.0
C      1  0.4996710000000  0.5278970000000  0.5014140000000 1.0
C      1  0.5018140000000  0.5051410000000  0.4945850000000 1.0
C      1  0.5044740000000  0.4769430000000  0.4860970000000 1.0
END
