TITL C-2441160-1326-745 0.170745038627995 125000 -16726.4923450717 0 0 140 (C1) n - 1
REM
REM in /home/bkarasulu/work/CARBON/AIRSS/Generating-Clusters/ReaxFF-fromJPCA2015/Units_Real/with-SteepDescent/Higher-Symm
REM
REM
REM
REM
REM
REM ./C.cell (1df0a924f5614ab8850e4351716899ee)
REM
REM compiler GCC version 9.2.1 20190827 (Red Hat 9.2.1-1)
REM options -cpp -mtune=generic -march=x86-64 -g -O0 -fpre-include=/usr/include/finclude/math-vector-fortran.h
REM seed -2000626859 1965407052 595146578 695180938 -1144920105 1166572136 1629658185 1657856679 -1465240442 463103535 -1566403589 -52201583 -971036584 466704888 497545518 -1029105567 -1837783348 -1710181964 -1413907514 50045687 -257032370 -138756576 -1660908532 -1105648385 -599502571 -1678612015 482358630 1355599451 -703814086 -230872660 1368807604 -776113009 -1811847443
REM
CELL 1.54180   50.00000   50.00000   50.00000   90.00000   90.00000   90.00000
LATT -1
SFAC C  
C      1  0.5153610000000  0.5788630000000  0.5580610000000 1.0
C      1  0.4872610000000  0.4253630000000  0.5539050000000 1.0
C      1  0.4862270000000  0.5780340000000  0.4407440000000 1.0
C      1  0.5143380000000  0.4261160000000  0.4478400000000 1.0
C      1  0.4630680000000  0.5518280000000  0.5675230000000 1.0
C      1  0.5364970000000  0.4497260000000  0.5687400000000 1.0
C      1  0.5354280000000  0.5517770000000  0.4318320000000 1.0
C      1  0.4640070000000  0.4487990000000  0.4327330000000 1.0
C      1  0.4609270000000  0.4978160000000  0.4589050000000 1.0
C      1  0.5462220000000  0.5063470000000  0.4614580000000 1.0
C      1  0.5347780000000  0.4962450000000  0.5469490000000 1.0
C      1  0.4622550000000  0.5048480000000  0.5408080000000 1.0
C      1  0.4594860000000  0.5250500000000  0.4583180000000 1.0
C      1  0.5453480000000  0.4785770000000  0.4673060000000 1.0
C      1  0.5412200000000  0.5223870000000  0.5379490000000 1.0
C      1  0.4579620000000  0.4772000000000  0.5405030000000 1.0
C      1  0.3945080000000  0.4976840000000  0.5154190000000 1.0
C      1  0.6037740000000  0.5024640000000  0.5148810000000 1.0
C      1  0.6069900000000  0.4978150000000  0.4863850000000 1.0
C      1  0.3937560000000  0.5015680000000  0.4867710000000 1.0
C      1  0.4119990000000  0.5034940000000  0.5512300000000 1.0
C      1  0.5890970000000  0.4930580000000  0.5534240000000 1.0
C      1  0.5908000000000  0.5028550000000  0.4491050000000 1.0
C      1  0.4106150000000  0.4982440000000  0.4502340000000 1.0
C      1  0.4632520000000  0.5637580000000  0.4376590000000 1.0
C      1  0.5411890000000  0.4368840000000  0.4430200000000 1.0
C      1  0.5373700000000  0.5631180000000  0.5620380000000 1.0
C      1  0.4588360000000  0.4340630000000  0.5627490000000 1.0
C      1  0.5392740000000  0.5232550000000  0.4840610000000 1.0
C      1  0.4655230000000  0.4651420000000  0.4831630000000 1.0
C      1  0.4604300000000  0.5358850000000  0.5115210000000 1.0
C      1  0.5342520000000  0.4626440000000  0.5162990000000 1.0
C      1  0.4607810000000  0.4140200000000  0.5186930000000 1.0
C      1  0.5414050000000  0.5853630000000  0.5207700000000 1.0
C      1  0.5391190000000  0.4151230000000  0.4827810000000 1.0
C      1  0.4587860000000  0.5868160000000  0.4804180000000 1.0
C      1  0.5329970000000  0.4726800000000  0.4209910000000 1.0
C      1  0.4676810000000  0.5260510000000  0.4171750000000 1.0
C      1  0.4684620000000  0.4754180000000  0.5817140000000 1.0
C      1  0.5336940000000  0.5278120000000  0.5823840000000 1.0
C      1  0.5669100000000  0.4383370000000  0.5235170000000 1.0
C      1  0.4305490000000  0.5625740000000  0.5241970000000 1.0
C      1  0.4322420000000  0.4393690000000  0.4763520000000 1.0
C      1  0.5677740000000  0.5613940000000  0.4747630000000 1.0
C      1  0.5672040000000  0.5119270000000  0.4223180000000 1.0
C      1  0.4329320000000  0.4892790000000  0.4226660000000 1.0
C      1  0.4315420000000  0.5117520000000  0.5744660000000 1.0
C      1  0.5694620000000  0.4881570000000  0.5750950000000 1.0
C      1  0.4951780000000  0.5118730000000  0.5931350000000 1.0
C      1  0.5098020000000  0.4880920000000  0.5934610000000 1.0
C      1  0.5070940000000  0.5112320000000  0.4047820000000 1.0
C      1  0.4929050000000  0.4875010000000  0.4052780000000 1.0
C      1  0.5792000000000  0.4625510000000  0.5112700000000 1.0
C      1  0.4181320000000  0.5378360000000  0.5129330000000 1.0
C      1  0.4219620000000  0.4645890000000  0.4874460000000 1.0
C      1  0.5853120000000  0.5425460000000  0.4850930000000 1.0
C      1  0.5151160000000  0.5907910000000  0.5314630000000 1.0
C      1  0.4870330000000  0.4070970000000  0.5282550000000 1.0
C      1  0.4844830000000  0.5916450000000  0.4672650000000 1.0
C      1  0.5136510000000  0.4061940000000  0.4755290000000 1.0
C      1  0.4365500000000  0.4864480000000  0.4501700000000 1.0
C      1  0.5667450000000  0.5152450000000  0.4477620000000 1.0
C      1  0.5621980000000  0.4851460000000  0.5476820000000 1.0
C      1  0.4374540000000  0.5150550000000  0.5477910000000 1.0
C      1  0.4718970000000  0.4974780000000  0.4202020000000 1.0
C      1  0.5281740000000  0.5026230000000  0.4209490000000 1.0
C      1  0.5294670000000  0.4981980000000  0.5767460000000 1.0
C      1  0.4710170000000  0.5039410000000  0.5838970000000 1.0
C      1  0.4102340000000  0.4786160000000  0.5303400000000 1.0
C      1  0.5802790000000  0.5179270000000  0.5218680000000 1.0
C      1  0.5907000000000  0.4801430000000  0.4700130000000 1.0
C      1  0.4092320000000  0.5198650000000  0.4702620000000 1.0
C      1  0.4214240000000  0.5419290000000  0.4837530000000 1.0
C      1  0.5807090000000  0.4561020000000  0.4814070000000 1.0
C      1  0.5785440000000  0.5452420000000  0.5136290000000 1.0
C      1  0.4213160000000  0.4569450000000  0.5172330000000 1.0
C      1  0.4913380000000  0.4419120000000  0.4301030000000 1.0
C      1  0.5079050000000  0.5588360000000  0.4277420000000 1.0
C      1  0.5093240000000  0.4433610000000  0.5709800000000 1.0
C      1  0.4929450000000  0.5570680000000  0.5683070000000 1.0
C      1  0.4872230000000  0.5175990000000  0.5365370000000 1.0
C      1  0.5180830000000  0.4789230000000  0.5322620000000 1.0
C      1  0.5124360000000  0.5236680000000  0.4721880000000 1.0
C      1  0.4809140000000  0.4821450000000  0.4684160000000 1.0
C      1  0.5218060000000  0.5382610000000  0.5241280000000 1.0
C      1  0.4762910000000  0.4646530000000  0.5231620000000 1.0
C      1  0.4762340000000  0.5399230000000  0.4755510000000 1.0
C      1  0.5203030000000  0.4679790000000  0.4738240000000 1.0
C      1  0.5027760000000  0.5497700000000  0.4683540000000 1.0
C      1  0.5070740000000  0.4455270000000  0.4699800000000 1.0
C      1  0.4958680000000  0.5460620000000  0.5382500000000 1.0
C      1  0.4954130000000  0.4462080000000  0.5320460000000 1.0
C      1  0.5065630000000  0.5362730000000  0.5843600000000 1.0
C      1  0.4954690000000  0.4648670000000  0.5829590000000 1.0
C      1  0.4946460000000  0.5363360000000  0.4148670000000 1.0
C      1  0.5050530000000  0.4632800000000  0.4172340000000 1.0
C      1  0.5439800000000  0.5267500000000  0.4178850000000 1.0
C      1  0.4553670000000  0.4735350000000  0.4169640000000 1.0
C      1  0.4541760000000  0.5274030000000  0.5817590000000 1.0
C      1  0.5459570000000  0.4736640000000  0.5834390000000 1.0
C      1  0.4652310000000  0.4157490000000  0.4588180000000 1.0
C      1  0.5345260000000  0.5856920000000  0.4571580000000 1.0
C      1  0.5358580000000  0.4102630000000  0.5381130000000 1.0
C      1  0.4658040000000  0.5843050000000  0.5405840000000 1.0
C      1  0.5132270000000  0.5920070000000  0.4756860000000 1.0
C      1  0.4846560000000  0.4113060000000  0.4788930000000 1.0
C      1  0.4865430000000  0.5853540000000  0.5217580000000 1.0
C      1  0.5143630000000  0.4099580000000  0.5167450000000 1.0
C      1  0.4451810000000  0.5595010000000  0.4783800000000 1.0
C      1  0.5584080000000  0.4384120000000  0.4733990000000 1.0
C      1  0.5523620000000  0.5581320000000  0.5207500000000 1.0
C      1  0.4448430000000  0.4400900000000  0.5226750000000 1.0
C      1  0.4450570000000  0.5675100000000  0.5505100000000 1.0
C      1  0.5523440000000  0.4321770000000  0.5479890000000 1.0
C      1  0.5551890000000  0.5679040000000  0.4491630000000 1.0
C      1  0.4444490000000  0.4331150000000  0.4506320000000 1.0
C      1  0.4971260000000  0.4823360000000  0.5137390000000 1.0
C      1  0.5042130000000  0.5170840000000  0.5127520000000 1.0
C      1  0.5026050000000  0.4840330000000  0.4861510000000 1.0
C      1  0.4905910000000  0.5193520000000  0.4892410000000 1.0
C      1  0.5163900000000  0.4398920000000  0.5136910000000 1.0
C      1  0.4803480000000  0.5568330000000  0.5144140000000 1.0
C      1  0.4831830000000  0.4410680000000  0.4857810000000 1.0
C      1  0.5167930000000  0.5656290000000  0.4880150000000 1.0
C      1  0.5533090000000  0.5103110000000  0.5069920000000 1.0
C      1  0.4468630000000  0.4848870000000  0.4952120000000 1.0
C      1  0.4492250000000  0.5118180000000  0.5031830000000 1.0
C      1  0.5520470000000  0.4804220000000  0.5009940000000 1.0
C      1  0.4010330000000  0.5211050000000  0.5297530000000 1.0
C      1  0.5978030000000  0.4789810000000  0.5295730000000 1.0
C      1  0.6003100000000  0.5204640000000  0.4708190000000 1.0
C      1  0.4007940000000  0.4792820000000  0.4707260000000 1.0
C      1  0.4443950000000  0.5771250000000  0.5033250000000 1.0
C      1  0.5590950000000  0.4245590000000  0.4998550000000 1.0
C      1  0.5473000000000  0.5726920000000  0.4936400000000 1.0
C      1  0.4414940000000  0.4234510000000  0.4982910000000 1.0
C      1  0.5513520000000  0.4627210000000  0.4408230000000 1.0
C      1  0.4486220000000  0.5401150000000  0.4347910000000 1.0
C      1  0.4493760000000  0.4612550000000  0.5641280000000 1.0
C      1  0.5511480000000  0.5392810000000  0.5621090000000 1.0
END
