TITL C-2441161-5029-394 0.0172469544278019 125000 -11723.1242340556 0 0 84 (C1) n - 1
REM
REM in /home/bkarasulu/work/CARBON/AIRSS/Generating-Clusters/ReaxFF-fromJPCA2015/Units_Real/with-SteepDescent/Higher-Symm
REM
REM
REM
REM
REM
REM ./C.cell (1df0a924f5614ab8850e4351716899ee)
REM
REM compiler GCC version 9.2.1 20190827 (Red Hat 9.2.1-1)
REM options -cpp -mtune=generic -march=x86-64 -g -O0 -fpre-include=/usr/include/finclude/math-vector-fortran.h
REM seed 2131845757 -1106011650 -665317918 -1579345019 -328841676 -1532341331 948167374 1305297859 -779299189 -53358890 -289721590 503758616 -2124066630 1838654093 1815484393 1038132614 -1480545567 -1643989653 1579660040 2106715476 -237875580 666931132 448174668 197120701 186112438 418172131 -1565471396 1963548410 -1835568614 -1115673982 1893123752 1183223186 -610649873
REM
CELL 1.54180   50.00000   50.00000   50.00000   90.00000   90.00000   90.00000
LATT -1
SFAC C  
C      1  0.4974320000000  0.4643410000000  0.4834230000000 1.0
C      1  0.4968680000000  0.4657990000000  0.5257180000000 1.0
C      1  0.5181230000000  0.4675380000000  0.5037000000000 1.0
C      1  0.5412950000000  0.5645540000000  0.4723990000000 1.0
C      1  0.4529980000000  0.5676090000000  0.4848100000000 1.0
C      1  0.5004010000000  0.5629480000000  0.5487480000000 1.0
C      1  0.4163740000000  0.5037540000000  0.4967650000000 1.0
C      1  0.5367480000000  0.5057310000000  0.5712980000000 1.0
C      1  0.5445370000000  0.5059080000000  0.4273030000000 1.0
C      1  0.5468400000000  0.5164080000000  0.4865720000000 1.0
C      1  0.4627730000000  0.5253400000000  0.4548290000000 1.0
C      1  0.4811350000000  0.5128000000000  0.5439540000000 1.0
C      1  0.5608720000000  0.5057920000000  0.5540090000000 1.0
C      1  0.5167880000000  0.5057450000000  0.4177970000000 1.0
C      1  0.4214330000000  0.5064100000000  0.5257200000000 1.0
C      1  0.5846190000000  0.5020970000000  0.4773120000000 1.0
C      1  0.4356820000000  0.4997360000000  0.4382800000000 1.0
C      1  0.4784440000000  0.5063660000000  0.5847610000000 1.0
C      1  0.5137720000000  0.4965390000000  0.4607220000000 1.0
C      1  0.4577800000000  0.4952460000000  0.5054010000000 1.0
C      1  0.5279250000000  0.4964310000000  0.5319710000000 1.0
C      1  0.5383510000000  0.5630660000000  0.5307180000000 1.0
C      1  0.5105650000000  0.5764020000000  0.4478920000000 1.0
C      1  0.4592890000000  0.5788250000000  0.5136920000000 1.0
C      1  0.4684270000000  0.5060010000000  0.4308000000000 1.0
C      1  0.4566360000000  0.5040520000000  0.5609830000000 1.0
C      1  0.5793450000000  0.5027470000000  0.5078160000000 1.0
C      1  0.4773980000000  0.4830000000000  0.4904710000000 1.0
C      1  0.4992940000000  0.4940630000000  0.5322560000000 1.0
C      1  0.5277900000000  0.4940020000000  0.4853190000000 1.0
C      1  0.5072210000000  0.4473020000000  0.4598150000000 1.0
C      1  0.4662060000000  0.4501500000000  0.5172420000000 1.0
C      1  0.5375150000000  0.4439240000000  0.5121040000000 1.0
C      1  0.4962080000000  0.5289580000000  0.5825500000000 1.0
C      1  0.5670440000000  0.5220470000000  0.4653530000000 1.0
C      1  0.4337170000000  0.5232370000000  0.4545920000000 1.0
C      1  0.5530320000000  0.5298460000000  0.4407210000000 1.0
C      1  0.4213040000000  0.5282940000000  0.4815570000000 1.0
C      1  0.5245970000000  0.5317510000000  0.5735420000000 1.0
C      1  0.5500240000000  0.5486450000000  0.4940800000000 1.0
C      1  0.4668870000000  0.5544930000000  0.4625980000000 1.0
C      1  0.4843060000000  0.5392830000000  0.5574700000000 1.0
C      1  0.5344250000000  0.5211990000000  0.5250910000000 1.0
C      1  0.5063360000000  0.5259430000000  0.4565930000000 1.0
C      1  0.4566320000000  0.5260840000000  0.5137520000000 1.0
C      1  0.5291550000000  0.4187270000000  0.4999760000000 1.0
C      1  0.4865400000000  0.4194360000000  0.4832470000000 1.0
C      1  0.4860920000000  0.4143090000000  0.5239700000000 1.0
C      1  0.4839150000000  0.4568670000000  0.5670760000000 1.0
C      1  0.5614930000000  0.4567480000000  0.4748610000000 1.0
C      1  0.4530530000000  0.4556490000000  0.4610360000000 1.0
C      1  0.5289310000000  0.5559840000000  0.5561000000000 1.0
C      1  0.5311340000000  0.5482570000000  0.4501910000000 1.0
C      1  0.4378210000000  0.5460730000000  0.4968420000000 1.0
C      1  0.5393550000000  0.4594370000000  0.4556270000000 1.0
C      1  0.4454670000000  0.4578580000000  0.4895610000000 1.0
C      1  0.5091940000000  0.4598120000000  0.5538610000000 1.0
C      1  0.4461400000000  0.4765290000000  0.5513380000000 1.0
C      1  0.5727800000000  0.4768350000000  0.5196270000000 1.0
C      1  0.4815450000000  0.4772620000000  0.4303800000000 1.0
C      1  0.4789590000000  0.4548260000000  0.4471700000000 1.0
C      1  0.4621830000000  0.4535870000000  0.5468150000000 1.0
C      1  0.5636880000000  0.4537450000000  0.5045680000000 1.0
C      1  0.4916740000000  0.4806510000000  0.5855890000000 1.0
C      1  0.5757850000000  0.4789150000000  0.4612040000000 1.0
C      1  0.4310830000000  0.4761920000000  0.4543330000000 1.0
C      1  0.5130250000000  0.5342180000000  0.5095800000000 1.0
C      1  0.4991990000000  0.5352470000000  0.4845750000000 1.0
C      1  0.4847560000000  0.5353150000000  0.5079000000000 1.0
C      1  0.5528030000000  0.4809780000000  0.5412320000000 1.0
C      1  0.5095370000000  0.4828540000000  0.4342220000000 1.0
C      1  0.4376240000000  0.4825050000000  0.5243320000000 1.0
C      1  0.4875480000000  0.5709680000000  0.4626150000000 1.0
C      1  0.4806240000000  0.5715620000000  0.5311540000000 1.0
C      1  0.5342880000000  0.5703590000000  0.5044240000000 1.0
C      1  0.5124860000000  0.4204100000000  0.4743310000000 1.0
C      1  0.4674610000000  0.4229380000000  0.5044850000000 1.0
C      1  0.5125360000000  0.4138540000000  0.5216760000000 1.0
C      1  0.5183130000000  0.4807350000000  0.5729290000000 1.0
C      1  0.5535720000000  0.4799980000000  0.4405520000000 1.0
C      1  0.4249600000000  0.4780710000000  0.4834330000000 1.0
C      1  0.4941410000000  0.5209540000000  0.4287800000000 1.0
C      1  0.4416350000000  0.5214340000000  0.5400250000000 1.0
C      1  0.5641140000000  0.5195010000000  0.5278840000000 1.0
END
