TITL C-2441163-1170-894 0.0938842861175608 125000 -14001.9790966303 0 0 116 (C1) n - 1
REM
REM in /home/bkarasulu/work/CARBON/AIRSS/Generating-Clusters/ReaxFF-fromJPCA2015/Units_Real/with-SteepDescent/Higher-Symm
REM
REM
REM
REM
REM
REM ./C.cell (1df0a924f5614ab8850e4351716899ee)
REM
REM compiler GCC version 9.2.1 20190827 (Red Hat 9.2.1-1)
REM options -cpp -mtune=generic -march=x86-64 -g -O0 -fpre-include=/usr/include/finclude/math-vector-fortran.h
REM seed -113007372 -825441171 193624178 -178049256 -1385399852 1679809030 -1322598125 -166994524 1917416425 1008017392 -982408805 1676793176 53286228 740170578 606053186 -122775456 -1966684748 -1715082138 1435576067 1569764552 1547213316 1799324122 -660911232 306335147 449241464 -45447546 -2119094402 584498540 1997952122 -1011863006 39661189 -367343853 2022945094
REM
CELL 1.54180   50.00000   50.00000   50.00000   90.00000   90.00000   90.00000
LATT -1
SFAC C  
C      1  0.4831820000000  0.5250520000000  0.4814340000000 1.0
C      1  0.4702040000000  0.4974770000000  0.4815710000000 1.0
C      1  0.4896990000000  0.4734000000000  0.4767250000000 1.0
C      1  0.5168640000000  0.4754840000000  0.4882690000000 1.0
C      1  0.5301180000000  0.5023600000000  0.4866720000000 1.0
C      1  0.5125500000000  0.5265630000000  0.4869250000000 1.0
C      1  0.5109280000000  0.5267450000000  0.5167200000000 1.0
C      1  0.5289800000000  0.5026840000000  0.5161640000000 1.0
C      1  0.5170350000000  0.4761350000000  0.5175100000000 1.0
C      1  0.4880440000000  0.4793900000000  0.5283390000000 1.0
C      1  0.4707970000000  0.4979540000000  0.5113030000000 1.0
C      1  0.4802650000000  0.5257030000000  0.5124540000000 1.0
C      1  0.4536340000000  0.4938870000000  0.4459660000000 1.0
C      1  0.4907970000000  0.4707180000000  0.4345740000000 1.0
C      1  0.5329730000000  0.4684410000000  0.4422750000000 1.0
C      1  0.5464770000000  0.5082020000000  0.4392730000000 1.0
C      1  0.5169850000000  0.5457750000000  0.4415020000000 1.0
C      1  0.4734480000000  0.5344060000000  0.4444840000000 1.0
C      1  0.5478310000000  0.4906810000000  0.5639760000000 1.0
C      1  0.5115960000000  0.4700410000000  0.5695600000000 1.0
C      1  0.4724950000000  0.4644300000000  0.5609550000000 1.0
C      1  0.4535650000000  0.5054490000000  0.5702300000000 1.0
C      1  0.4829880000000  0.5428570000000  0.5669210000000 1.0
C      1  0.5270570000000  0.5270360000000  0.5542920000000 1.0
C      1  0.5467000000000  0.4200500000000  0.4581880000000 1.0
C      1  0.5867360000000  0.5082460000000  0.4525120000000 1.0
C      1  0.5401560000000  0.5807170000000  0.4516740000000 1.0
C      1  0.4524720000000  0.5738650000000  0.4507980000000 1.0
C      1  0.4110750000000  0.4924800000000  0.4535240000000 1.0
C      1  0.4586250000000  0.4207110000000  0.4513150000000 1.0
C      1  0.4491390000000  0.4279810000000  0.5506190000000 1.0
C      1  0.4124030000000  0.5041020000000  0.5531690000000 1.0
C      1  0.4593910000000  0.5801440000000  0.5510720000000 1.0
C      1  0.5503360000000  0.5737910000000  0.5498220000000 1.0
C      1  0.5884900000000  0.4940630000000  0.5504360000000 1.0
C      1  0.5383100000000  0.4195070000000  0.5492530000000 1.0
C      1  0.4294750000000  0.5066530000000  0.4364260000000 1.0
C      1  0.4513110000000  0.4425020000000  0.4347350000000 1.0
C      1  0.5259150000000  0.4270360000000  0.4401910000000 1.0
C      1  0.5709230000000  0.4948120000000  0.4314610000000 1.0
C      1  0.5416770000000  0.5585070000000  0.4327980000000 1.0
C      1  0.4687740000000  0.5606260000000  0.4311350000000 1.0
C      1  0.5716600000000  0.5064900000000  0.5704180000000 1.0
C      1  0.5420500000000  0.4414100000000  0.5655440000000 1.0
C      1  0.4664480000000  0.4404040000000  0.5720410000000 1.0
C      1  0.4292990000000  0.4928390000000  0.5744210000000 1.0
C      1  0.4591980000000  0.5574580000000  0.5698270000000 1.0
C      1  0.5230150000000  0.5711270000000  0.5597880000000 1.0
C      1  0.4200140000000  0.4629330000000  0.4512110000000 1.0
C      1  0.4903740000000  0.4215190000000  0.4533130000000 1.0
C      1  0.5682580000000  0.4423240000000  0.4535400000000 1.0
C      1  0.5763370000000  0.5349000000000  0.4550550000000 1.0
C      1  0.5126770000000  0.5862430000000  0.4543880000000 1.0
C      1  0.4229910000000  0.5625930000000  0.4467140000000 1.0
C      1  0.5779030000000  0.4653310000000  0.5486880000000 1.0
C      1  0.5073320000000  0.4122510000000  0.5504250000000 1.0
C      1  0.4310340000000  0.4494220000000  0.5473980000000 1.0
C      1  0.4181480000000  0.5325230000000  0.5493480000000 1.0
C      1  0.4855790000000  0.5943110000000  0.5538320000000 1.0
C      1  0.5687610000000  0.5491060000000  0.5494330000000 1.0
C      1  0.5455190000000  0.4850520000000  0.4252450000000 1.0
C      1  0.5363050000000  0.5313900000000  0.4274970000000 1.0
C      1  0.4926440000000  0.5453500000000  0.4276120000000 1.0
C      1  0.4561910000000  0.5163570000000  0.4322800000000 1.0
C      1  0.4610400000000  0.4688350000000  0.4302540000000 1.0
C      1  0.5143920000000  0.4502070000000  0.4294040000000 1.0
C      1  0.4547860000000  0.4789520000000  0.5778260000000 1.0
C      1  0.4620340000000  0.5302180000000  0.5787980000000 1.0
C      1  0.5111100000000  0.5466640000000  0.5691040000000 1.0
C      1  0.5448550000000  0.5162110000000  0.5741120000000 1.0
C      1  0.5395170000000  0.4660630000000  0.5773450000000 1.0
C      1  0.4932350000000  0.4497750000000  0.5750310000000 1.0
C      1  0.5444630000000  0.4365280000000  0.4843380000000 1.0
C      1  0.5876880000000  0.5026440000000  0.4813560000000 1.0
C      1  0.5446140000000  0.5783670000000  0.4801380000000 1.0
C      1  0.4692430000000  0.5704990000000  0.4749370000000 1.0
C      1  0.4096820000000  0.5006340000000  0.4810120000000 1.0
C      1  0.4560410000000  0.4209760000000  0.4804420000000 1.0
C      1  0.4550700000000  0.4239100000000  0.5218060000000 1.0
C      1  0.4237610000000  0.4951060000000  0.5269780000000 1.0
C      1  0.4533220000000  0.5784490000000  0.5222800000000 1.0
C      1  0.5488580000000  0.5784180000000  0.5211340000000 1.0
C      1  0.5900860000000  0.4997630000000  0.5219760000000 1.0
C      1  0.5455160000000  0.4187860000000  0.5200340000000 1.0
C      1  0.4395270000000  0.4705250000000  0.5312360000000 1.0
C      1  0.4973840000000  0.4316620000000  0.5314750000000 1.0
C      1  0.5538200000000  0.4698120000000  0.5320010000000 1.0
C      1  0.5490800000000  0.5329220000000  0.5344470000000 1.0
C      1  0.5034670000000  0.5758160000000  0.5379590000000 1.0
C      1  0.4437460000000  0.5312260000000  0.5314550000000 1.0
C      1  0.5513960000000  0.4634900000000  0.4647030000000 1.0
C      1  0.4954540000000  0.4431590000000  0.4741000000000 1.0
C      1  0.4443870000000  0.4621660000000  0.4690680000000 1.0
C      1  0.4305210000000  0.5421290000000  0.4651260000000 1.0
C      1  0.4964510000000  0.5693860000000  0.4663360000000 1.0
C      1  0.5559140000000  0.5275620000000  0.4725460000000 1.0
C      1  0.4206980000000  0.5259910000000  0.4858230000000 1.0
C      1  0.4390060000000  0.4337220000000  0.4998730000000 1.0
C      1  0.5295450000000  0.4151810000000  0.4956330000000 1.0
C      1  0.5867590000000  0.4808410000000  0.4998910000000 1.0
C      1  0.5625900000000  0.5656330000000  0.4986670000000 1.0
C      1  0.4734520000000  0.5815100000000  0.5015740000000 1.0
C      1  0.5864090000000  0.5215460000000  0.5030330000000 1.0
C      1  0.5632880000000  0.4363130000000  0.5061650000000 1.0
C      1  0.4743440000000  0.4131410000000  0.5023120000000 1.0
C      1  0.4132180000000  0.4831250000000  0.5022860000000 1.0
C      1  0.4379870000000  0.5564830000000  0.5186470000000 1.0
C      1  0.5273140000000  0.5866420000000  0.5023270000000 1.0
C      1  0.5615730000000  0.4659070000000  0.5041430000000 1.0
C      1  0.5610980000000  0.5366970000000  0.5008910000000 1.0
C      1  0.4412670000000  0.5348810000000  0.5029230000000 1.0
C      1  0.5011860000000  0.4260780000000  0.4999060000000 1.0
C      1  0.5009690000000  0.5741820000000  0.5083790000000 1.0
C      1  0.4333370000000  0.4621930000000  0.4996160000000 1.0
C      1  0.5006900000000  0.4924820000000  0.5522300000000 1.0
C      1  0.4975290000000  0.4937170000000  0.4501870000000 1.0
END
