TITL C-2441159-1093-704 0.0109741472125202 125000 -13267.0752247263 0 0 91 (C1) n - 1
REM
REM in /home/bkarasulu/work/CARBON/AIRSS/Generating-Clusters/ReaxFF-fromJPCA2015/Units_Real/with-SteepDescent/Higher-Symm
REM
REM
REM
REM
REM
REM ./C.cell (1df0a924f5614ab8850e4351716899ee)
REM
REM compiler GCC version 9.2.1 20190827 (Red Hat 9.2.1-1)
REM options -cpp -mtune=generic -march=x86-64 -g -O0 -fpre-include=/usr/include/finclude/math-vector-fortran.h
REM seed 1038486587 223804087 1904567269 -1331847853 -1717630425 -104425040 2069122565 -1164723594 -119901759 1474518647 1810099510 -619466236 -815893439 877486660 -2038736909 -504867248 -1063086323 1269400506 -181283250 -644872916 -396420474 -1866094644 -2003606258 -2047635802 1033946918 -37337706 -535807010 173977361 963656767 -635615217 -1111236455 -51097188 1439858788
REM
CELL 1.54180   50.00000   50.00000   50.00000   90.00000   90.00000   90.00000
LATT -1
SFAC C  
C      1  0.5899480000000  0.5330810000000  0.5040760000000 1.0
C      1  0.4280950000000  0.5602110000000  0.5040020000000 1.0
C      1  0.4859450000000  0.4055230000000  0.5046870000000 1.0
C      1  0.4580890000000  0.4369660000000  0.5244850000000 1.0
C      1  0.5839280000000  0.4964550000000  0.5329230000000 1.0
C      1  0.4622330000000  0.5807210000000  0.5372800000000 1.0
C      1  0.4358440000000  0.4522920000000  0.5362310000000 1.0
C      1  0.5751750000000  0.4680900000000  0.5342640000000 1.0
C      1  0.4907850000000  0.5756420000000  0.5349590000000 1.0
C      1  0.4485760000000  0.4698080000000  0.5567640000000 1.0
C      1  0.5553800000000  0.4686270000000  0.5563790000000 1.0
C      1  0.5001700000000  0.5566680000000  0.5545800000000 1.0
C      1  0.4730160000000  0.4531050000000  0.5041060000000 1.0
C      1  0.5383590000000  0.4932560000000  0.4942140000000 1.0
C      1  0.4801710000000  0.5385850000000  0.4908100000000 1.0
C      1  0.5856070000000  0.5145050000000  0.4803470000000 1.0
C      1  0.4422430000000  0.5677840000000  0.4795890000000 1.0
C      1  0.4713300000000  0.4129730000000  0.4798870000000 1.0
C      1  0.4561990000000  0.5072610000000  0.4680190000000 1.0
C      1  0.5128200000000  0.4579960000000  0.4671840000000 1.0
C      1  0.5297060000000  0.5353670000000  0.4708530000000 1.0
C      1  0.4774770000000  0.4687400000000  0.5583700000000 1.0
C      1  0.5417950000000  0.4948100000000  0.5605490000000 1.0
C      1  0.4827150000000  0.5335350000000  0.5576440000000 1.0
C      1  0.4957890000000  0.4697120000000  0.5104260000000 1.0
C      1  0.5310130000000  0.5140840000000  0.5157610000000 1.0
C      1  0.4684960000000  0.5211530000000  0.5107890000000 1.0
C      1  0.5406060000000  0.5239750000000  0.4260460000000 1.0
C      1  0.4566100000000  0.5225640000000  0.4239870000000 1.0
C      1  0.5008720000000  0.4470570000000  0.4260570000000 1.0
C      1  0.5691440000000  0.4907680000000  0.4827540000000 1.0
C      1  0.4718740000000  0.5658320000000  0.4823160000000 1.0
C      1  0.4619320000000  0.4411090000000  0.4795710000000 1.0
C      1  0.4507440000000  0.5024620000000  0.4960420000000 1.0
C      1  0.5182160000000  0.4693120000000  0.4936320000000 1.0
C      1  0.5270370000000  0.5389730000000  0.5006100000000 1.0
C      1  0.5268640000000  0.4524680000000  0.4418140000000 1.0
C      1  0.5240150000000  0.5440720000000  0.4433240000000 1.0
C      1  0.4492390000000  0.4970000000000  0.4414100000000 1.0
C      1  0.5053840000000  0.5755300000000  0.5112800000000 1.0
C      1  0.4278490000000  0.4641500000000  0.5119220000000 1.0
C      1  0.5662350000000  0.4546810000000  0.5108810000000 1.0
C      1  0.5130030000000  0.5752520000000  0.4861740000000 1.0
C      1  0.4259450000000  0.4729270000000  0.4863800000000 1.0
C      1  0.5578010000000  0.4430410000000  0.4886190000000 1.0
C      1  0.5477200000000  0.5636820000000  0.5362330000000 1.0
C      1  0.4197370000000  0.5089670000000  0.5335370000000 1.0
C      1  0.5330950000000  0.4259340000000  0.5311340000000 1.0
C      1  0.4894420000000  0.4428390000000  0.5634040000000 1.0
C      1  0.5579530000000  0.5188990000000  0.5655480000000 1.0
C      1  0.4547990000000  0.5396300000000  0.5623900000000 1.0
C      1  0.4501590000000  0.4680860000000  0.4400290000000 1.0
C      1  0.5505550000000  0.4703390000000  0.4416970000000 1.0
C      1  0.4982030000000  0.5576900000000  0.4390510000000 1.0
C      1  0.4466330000000  0.5652020000000  0.5540380000000 1.0
C      1  0.4780900000000  0.4148080000000  0.5598130000000 1.0
C      1  0.5850510000000  0.5149300000000  0.5555500000000 1.0
C      1  0.4916470000000  0.4755120000000  0.4558540000000 1.0
C      1  0.5258050000000  0.5072230000000  0.4709260000000 1.0
C      1  0.4794530000000  0.5213430000000  0.4688880000000 1.0
C      1  0.4939900000000  0.4859670000000  0.5379590000000 1.0
C      1  0.5215970000000  0.5021760000000  0.5406430000000 1.0
C      1  0.4810340000000  0.5137330000000  0.5360060000000 1.0
C      1  0.5513350000000  0.5466600000000  0.5594010000000 1.0
C      1  0.4324040000000  0.5216440000000  0.5570110000000 1.0
C      1  0.5150060000000  0.4418520000000  0.5479400000000 1.0
C      1  0.5347130000000  0.4256710000000  0.5019420000000 1.0
C      1  0.5454670000000  0.5618600000000  0.5066410000000 1.0
C      1  0.4221610000000  0.5084930000000  0.5037390000000 1.0
C      1  0.4781710000000  0.4667740000000  0.4314180000000 1.0
C      1  0.5458310000000  0.4964170000000  0.4323460000000 1.0
C      1  0.4780740000000  0.5405520000000  0.4290660000000 1.0
C      1  0.5763480000000  0.5390870000000  0.4646820000000 1.0
C      1  0.4269930000000  0.5469210000000  0.4643050000000 1.0
C      1  0.4959510000000  0.4076910000000  0.4638740000000 1.0
C      1  0.5431280000000  0.4424880000000  0.5545300000000 1.0
C      1  0.5276240000000  0.5608370000000  0.5565870000000 1.0
C      1  0.4300140000000  0.4926290000000  0.5560350000000 1.0
C      1  0.4385950000000  0.5376380000000  0.4399880000000 1.0
C      1  0.4974480000000  0.4238550000000  0.4413730000000 1.0
C      1  0.5636520000000  0.5326640000000  0.4401630000000 1.0
C      1  0.4937490000000  0.5740430000000  0.4647270000000 1.0
C      1  0.4412640000000  0.4576910000000  0.4665850000000 1.0
C      1  0.5641560000000  0.4657630000000  0.4692380000000 1.0
C      1  0.5708700000000  0.5518770000000  0.4925090000000 1.0
C      1  0.4185600000000  0.5356830000000  0.4917480000000 1.0
C      1  0.5116110000000  0.4112630000000  0.4918030000000 1.0
C      1  0.4715710000000  0.4117400000000  0.5309820000000 1.0
C      1  0.5981740000000  0.5213940000000  0.5299580000000 1.0
C      1  0.4366580000000  0.5717050000000  0.5290780000000 1.0
C      1  0.4991160000000  0.5033860000000  0.4621330000000 1.0
END
