TITL C-2441165-58-962 0.0641568386950294 125000 -27837.4226557391 0 0 189 (C1) n - 1
REM
REM in /home/bkarasulu/work/CARBON/AIRSS/Generating-Clusters/ReaxFF-fromJPCA2015/Units_Real/with-SteepDescent/Higher-Symm
REM
REM
REM
REM
REM
REM ./C.cell (1df0a924f5614ab8850e4351716899ee)
REM
REM compiler GCC version 9.2.1 20190827 (Red Hat 9.2.1-1)
REM options -cpp -mtune=generic -march=x86-64 -g -O0 -fpre-include=/usr/include/finclude/math-vector-fortran.h
REM seed -614118879 -1045026896 785087624 1743997686 4913393 1630073556 66377566 2136575127 -499313368 -1537703758 -880747336 -1133989917 1574883207 -838189631 -1529182412 147528532 -1625582562 1089592220 -161768138 -257940164 535389662 -1698843831 -436901591 1099358541 1388677383 -1053769886 -1006568461 954086344 -369410628 -1020127574 265788393 -1929740973 -1211912534
REM
CELL 1.54180   50.00000   50.00000   50.00000   90.00000   90.00000   90.00000
LATT -1
SFAC C  
C      1  0.4231210000000  0.4952360000000  0.4246850000000 1.0
C      1  0.4458630000000  0.4464000000000  0.4240870000000 1.0
C      1  0.4924040000000  0.4202660000000  0.4283060000000 1.0
C      1  0.5401470000000  0.4415340000000  0.4159350000000 1.0
C      1  0.5773970000000  0.4788890000000  0.4235810000000 1.0
C      1  0.5724360000000  0.5319670000000  0.4259430000000 1.0
C      1  0.5357400000000  0.5706580000000  0.4234460000000 1.0
C      1  0.4826900000000  0.5758460000000  0.4239690000000 1.0
C      1  0.4381090000000  0.5467750000000  0.4234290000000 1.0
C      1  0.4767960000000  0.5380770000000  0.5312580000000 1.0
C      1  0.4585350000000  0.5156860000000  0.5325490000000 1.0
C      1  0.4575660000000  0.4870390000000  0.5311540000000 1.0
C      1  0.4763770000000  0.4656220000000  0.5326250000000 1.0
C      1  0.5038920000000  0.4647210000000  0.5283300000000 1.0
C      1  0.5277840000000  0.4778270000000  0.5334730000000 1.0
C      1  0.5319880000000  0.5044840000000  0.5424380000000 1.0
C      1  0.5287100000000  0.5296640000000  0.5291220000000 1.0
C      1  0.5047990000000  0.5453350000000  0.5309860000000 1.0
C      1  0.4613820000000  0.6039100000000  0.5528630000000 1.0
C      1  0.4026310000000  0.5546290000000  0.5534130000000 1.0
C      1  0.3911550000000  0.4780230000000  0.5526240000000 1.0
C      1  0.4330150000000  0.4139240000000  0.5545310000000 1.0
C      1  0.5013860000000  0.3986020000000  0.5656970000000 1.0
C      1  0.5631950000000  0.4203160000000  0.5639290000000 1.0
C      1  0.5989070000000  0.4805040000000  0.5619050000000 1.0
C      1  0.5887700000000  0.5452600000000  0.5630200000000 1.0
C      1  0.5379010000000  0.6033760000000  0.5530090000000 1.0
C      1  0.5292260000000  0.3958240000000  0.5634190000000 1.0
C      1  0.5849090000000  0.4396990000000  0.5626470000000 1.0
C      1  0.6071440000000  0.5072690000000  0.5585720000000 1.0
C      1  0.5736490000000  0.5701770000000  0.5628340000000 1.0
C      1  0.5105380000000  0.6027000000000  0.5608920000000 1.0
C      1  0.4412060000000  0.5855840000000  0.5613980000000 1.0
C      1  0.3996900000000  0.5269960000000  0.5607840000000 1.0
C      1  0.4071980000000  0.4553370000000  0.5598970000000 1.0
C      1  0.4598480000000  0.4066530000000  0.5606000000000 1.0
C      1  0.4352750000000  0.5192200000000  0.4139000000000 1.0
C      1  0.4379390000000  0.4724040000000  0.4137730000000 1.0
C      1  0.4727720000000  0.4394170000000  0.4160460000000 1.0
C      1  0.5223860000000  0.4226320000000  0.4263480000000 1.0
C      1  0.5577730000000  0.4615790000000  0.4078810000000 1.0
C      1  0.5702830000000  0.5058910000000  0.4142540000000 1.0
C      1  0.5507780000000  0.5479830000000  0.4140860000000 1.0
C      1  0.5083880000000  0.5681900000000  0.4133110000000 1.0
C      1  0.4632550000000  0.5570070000000  0.4133170000000 1.0
C      1  0.5967220000000  0.4451280000000  0.5187990000000 1.0
C      1  0.6160270000000  0.5215660000000  0.5200300000000 1.0
C      1  0.5721780000000  0.5846310000000  0.5195390000000 1.0
C      1  0.4993990000000  0.6152330000000  0.5195850000000 1.0
C      1  0.4260450000000  0.5876080000000  0.5199230000000 1.0
C      1  0.3863090000000  0.5187890000000  0.5206620000000 1.0
C      1  0.4030690000000  0.4418880000000  0.5196450000000 1.0
C      1  0.4632660000000  0.3948120000000  0.5208480000000 1.0
C      1  0.5363950000000  0.3935140000000  0.5223260000000 1.0
C      1  0.5855080000000  0.5601290000000  0.4694190000000 1.0
C      1  0.5266750000000  0.6007200000000  0.4692050000000 1.0
C      1  0.4556160000000  0.5945930000000  0.4688500000000 1.0
C      1  0.4046130000000  0.5437260000000  0.4684680000000 1.0
C      1  0.3991320000000  0.4724100000000  0.4685870000000 1.0
C      1  0.4415710000000  0.4162770000000  0.4687490000000 1.0
C      1  0.5064400000000  0.3899810000000  0.4688100000000 1.0
C      1  0.5653000000000  0.4363220000000  0.4672390000000 1.0
C      1  0.6079880000000  0.4914810000000  0.4650610000000 1.0
C      1  0.4455480000000  0.5166230000000  0.4922780000000 1.0
C      1  0.4512100000000  0.4678250000000  0.4919530000000 1.0
C      1  0.4738410000000  0.4512130000000  0.4940920000000 1.0
C      1  0.5250570000000  0.4465550000000  0.4988500000000 1.0
C      1  0.5421660000000  0.4708660000000  0.4951510000000 1.0
C      1  0.5577920000000  0.5018180000000  0.4955760000000 1.0
C      1  0.5333690000000  0.5450460000000  0.4896950000000 1.0
C      1  0.5072030000000  0.5576310000000  0.4912860000000 1.0
C      1  0.4602210000000  0.5413430000000  0.4914800000000 1.0
C      1  0.4637960000000  0.3998150000000  0.4679080000000 1.0
C      1  0.5340100000000  0.3952290000000  0.4699230000000 1.0
C      1  0.5920690000000  0.4489840000000  0.4645760000000 1.0
C      1  0.6067490000000  0.5197600000000  0.4678050000000 1.0
C      1  0.5688200000000  0.5822360000000  0.4684030000000 1.0
C      1  0.4999130000000  0.6067780000000  0.4684160000000 1.0
C      1  0.4309360000000  0.5825260000000  0.4678650000000 1.0
C      1  0.3943850000000  0.5180180000000  0.4685130000000 1.0
C      1  0.4073340000000  0.4460380000000  0.4674580000000 1.0
C      1  0.5944490000000  0.5542970000000  0.4947530000000 1.0
C      1  0.5373490000000  0.6025170000000  0.4946380000000 1.0
C      1  0.4624300000000  0.6032950000000  0.4942650000000 1.0
C      1  0.4043490000000  0.5547230000000  0.4949320000000 1.0
C      1  0.3921250000000  0.4805490000000  0.4941480000000 1.0
C      1  0.4305340000000  0.4173310000000  0.4938500000000 1.0
C      1  0.4975990000000  0.3875080000000  0.4961170000000 1.0
C      1  0.5641930000000  0.4210500000000  0.4937650000000 1.0
C      1  0.6108960000000  0.4804990000000  0.4920090000000 1.0
C      1  0.5027590000000  0.4572020000000  0.5899950000000 1.0
C      1  0.5288080000000  0.4665110000000  0.5904670000000 1.0
C      1  0.5451240000000  0.4901490000000  0.5902120000000 1.0
C      1  0.5412870000000  0.5178930000000  0.5894430000000 1.0
C      1  0.5181400000000  0.5350830000000  0.5900660000000 1.0
C      1  0.4892450000000  0.5367740000000  0.5893500000000 1.0
C      1  0.4667410000000  0.5204430000000  0.5893370000000 1.0
C      1  0.4617070000000  0.4931730000000  0.5893180000000 1.0
C      1  0.4760520000000  0.4678630000000  0.5899460000000 1.0
C      1  0.5093640000000  0.4720810000000  0.4073200000000 1.0
C      1  0.5358830000000  0.4775140000000  0.3949510000000 1.0
C      1  0.5453810000000  0.5049600000000  0.3973820000000 1.0
C      1  0.5320950000000  0.5306540000000  0.3979270000000 1.0
C      1  0.5054090000000  0.5421880000000  0.3982000000000 1.0
C      1  0.4773590000000  0.5347360000000  0.3983970000000 1.0
C      1  0.4599920000000  0.5114560000000  0.3985270000000 1.0
C      1  0.4614300000000  0.4823020000000  0.3979680000000 1.0
C      1  0.4826470000000  0.4624720000000  0.3998120000000 1.0
C      1  0.5424760000000  0.5789680000000  0.4526540000000 1.0
C      1  0.4819480000000  0.5867480000000  0.4536100000000 1.0
C      1  0.4303580000000  0.5556210000000  0.4520730000000 1.0
C      1  0.4114390000000  0.4963680000000  0.4535800000000 1.0
C      1  0.4336210000000  0.4401320000000  0.4523920000000 1.0
C      1  0.4868550000000  0.4020050000000  0.4500410000000 1.0
C      1  0.5336530000000  0.4201240000000  0.4547280000000 1.0
C      1  0.5934450000000  0.4722370000000  0.4469570000000 1.0
C      1  0.5824480000000  0.5332170000000  0.4552790000000 1.0
C      1  0.4362190000000  0.4767240000000  0.5145950000000 1.0
C      1  0.4693550000000  0.4394730000000  0.5204380000000 1.0
C      1  0.5138040000000  0.4354800000000  0.5233620000000 1.0
C      1  0.5537070000000  0.4632950000000  0.5232120000000 1.0
C      1  0.5737080000000  0.5041480000000  0.5192370000000 1.0
C      1  0.5500010000000  0.5405880000000  0.5124930000000 1.0
C      1  0.5059410000000  0.5704010000000  0.5168540000000 1.0
C      1  0.4644310000000  0.5583770000000  0.5145770000000 1.0
C      1  0.4335930000000  0.5183230000000  0.5180220000000 1.0
C      1  0.4472790000000  0.4191230000000  0.5173300000000 1.0
C      1  0.5075720000000  0.3991240000000  0.5211790000000 1.0
C      1  0.5683950000000  0.4378260000000  0.5171470000000 1.0
C      1  0.6015340000000  0.4965550000000  0.5155150000000 1.0
C      1  0.5747400000000  0.5561010000000  0.5151900000000 1.0
C      1  0.5212980000000  0.5955190000000  0.5176180000000 1.0
C      1  0.4555040000000  0.5868640000000  0.5169080000000 1.0
C      1  0.4099300000000  0.5365220000000  0.5186630000000 1.0
C      1  0.4073530000000  0.4711860000000  0.5165780000000 1.0
C      1  0.5417040000000  0.4436720000000  0.5689370000000 1.0
C      1  0.5681210000000  0.4853030000000  0.5677500000000 1.0
C      1  0.5619970000000  0.5296710000000  0.5685910000000 1.0
C      1  0.5247090000000  0.5581350000000  0.5747790000000 1.0
C      1  0.4814350000000  0.5604550000000  0.5759930000000 1.0
C      1  0.4459380000000  0.5343250000000  0.5764380000000 1.0
C      1  0.4372850000000  0.4910730000000  0.5752860000000 1.0
C      1  0.4585610000000  0.4517780000000  0.5740530000000 1.0
C      1  0.4991540000000  0.4310320000000  0.5702650000000 1.0
C      1  0.4260090000000  0.5163610000000  0.5680060000000 1.0
C      1  0.4343890000000  0.4645000000000  0.5669110000000 1.0
C      1  0.4726190000000  0.4332100000000  0.5598810000000 1.0
C      1  0.5206400000000  0.4354880000000  0.5516960000000 1.0
C      1  0.5619520000000  0.4600640000000  0.5571690000000 1.0
C      1  0.5599780000000  0.5063560000000  0.5477080000000 1.0
C      1  0.5496670000000  0.5548600000000  0.5647540000000 1.0
C      1  0.5039340000000  0.5750760000000  0.5675170000000 1.0
C      1  0.4541810000000  0.5606020000000  0.5693800000000 1.0
C      1  0.5165100000000  0.4349040000000  0.4743190000000 1.0
C      1  0.5493090000000  0.4616140000000  0.4683660000000 1.0
C      1  0.5613850000000  0.5125510000000  0.4706120000000 1.0
C      1  0.5394270000000  0.5500180000000  0.4624990000000 1.0
C      1  0.4962970000000  0.5627150000000  0.4658940000000 1.0
C      1  0.4569020000000  0.5470240000000  0.4638350000000 1.0
C      1  0.4381150000000  0.5056070000000  0.4669280000000 1.0
C      1  0.4452650000000  0.4663710000000  0.4638930000000 1.0
C      1  0.4904670000000  0.4465360000000  0.4712880000000 1.0
C      1  0.4830330000000  0.3905160000000  0.5432900000000 1.0
C      1  0.5525480000000  0.3977430000000  0.5482920000000 1.0
C      1  0.6032170000000  0.4549950000000  0.5458610000000 1.0
C      1  0.6111880000000  0.5326980000000  0.5478180000000 1.0
C      1  0.5642130000000  0.5936300000000  0.5466990000000 1.0
C      1  0.4864580000000  0.6151750000000  0.5459370000000 1.0
C      1  0.4151340000000  0.5791140000000  0.5461820000000 1.0
C      1  0.3836370000000  0.5045390000000  0.5466000000000 1.0
C      1  0.4104870000000  0.4288590000000  0.5451770000000 1.0
C      1  0.4696740000000  0.3875590000000  0.4940630000000 1.0
C      1  0.5482590000000  0.3972190000000  0.4955140000000 1.0
C      1  0.6047880000000  0.4525080000000  0.4910130000000 1.0
C      1  0.6119860000000  0.5329350000000  0.4932820000000 1.0
C      1  0.5640560000000  0.5954740000000  0.4937590000000 1.0
C      1  0.4873140000000  0.6152220000000  0.4932740000000 1.0
C      1  0.4160570000000  0.5813330000000  0.4931180000000 1.0
C      1  0.3843170000000  0.5071650000000  0.4937990000000 1.0
C      1  0.4069730000000  0.4314600000000  0.4926480000000 1.0
C      1  0.5394640000000  0.5044040000000  0.4535760000000 1.0
C      1  0.5266670000000  0.5293880000000  0.4479430000000 1.0
C      1  0.5001990000000  0.5390980000000  0.4503760000000 1.0
C      1  0.4740620000000  0.5296460000000  0.4494050000000 1.0
C      1  0.4614800000000  0.5050870000000  0.4503410000000 1.0
C      1  0.4665900000000  0.4785890000000  0.4497520000000 1.0
C      1  0.4897390000000  0.4653670000000  0.4506680000000 1.0
C      1  0.5115220000000  0.4712850000000  0.4352920000000 1.0
C      1  0.5354100000000  0.4771800000000  0.4490080000000 1.0
END
