TITL C-2441163-1170-1379 0.00112131883413566 125000 -11324.992681385 0 0 76 (C1) n - 1
REM
REM in /home/bkarasulu/work/CARBON/AIRSS/Generating-Clusters/ReaxFF-fromJPCA2015/Units_Real/with-SteepDescent/Higher-Symm
REM
REM
REM
REM
REM
REM ./C.cell (1df0a924f5614ab8850e4351716899ee)
REM
REM compiler GCC version 9.2.1 20190827 (Red Hat 9.2.1-1)
REM options -cpp -mtune=generic -march=x86-64 -g -O0 -fpre-include=/usr/include/finclude/math-vector-fortran.h
REM seed -1640204590 -1103803427 372191475 -1399592374 -1519897966 1763146073 1834066538 443390232 1184188766 -1814895883 -1524209562 -1785306252 792233383 1905054725 -1869988046 -2026371551 111032137 -1333243840 713806180 1843545893 1792925824 -1266371855 1703893333 1457090625 1873067473 -146003502 -2063118411 -1900166634 161238971 2051011359 -1075165527 404968359 1429516989
REM
CELL 1.54180   50.00000   50.00000   50.00000   90.00000   90.00000   90.00000
LATT -1
SFAC C  
C      1  0.5307850000000  0.5670090000000  0.5132360000000 1.0
C      1  0.4748700000000  0.5628010000000  0.5181740000000 1.0
C      1  0.4971030000000  0.5757980000000  0.4603060000000 1.0
C      1  0.5293300000000  0.4368090000000  0.5138610000000 1.0
C      1  0.4710660000000  0.4326290000000  0.5190350000000 1.0
C      1  0.4945670000000  0.4330900000000  0.4661240000000 1.0
C      1  0.4362470000000  0.5384830000000  0.5252390000000 1.0
C      1  0.5101120000000  0.5384060000000  0.4311650000000 1.0
C      1  0.5549430000000  0.5396970000000  0.5439050000000 1.0
C      1  0.4352270000000  0.4625750000000  0.5256970000000 1.0
C      1  0.5093270000000  0.4647210000000  0.4320680000000 1.0
C      1  0.5544530000000  0.4623470000000  0.5455060000000 1.0
C      1  0.5315830000000  0.4442500000000  0.5419090000000 1.0
C      1  0.4454210000000  0.4423690000000  0.5074130000000 1.0
C      1  0.5161410000000  0.4408720000000  0.4474790000000 1.0
C      1  0.5338720000000  0.5594820000000  0.5419340000000 1.0
C      1  0.4477410000000  0.5582050000000  0.5064650000000 1.0
C      1  0.5180750000000  0.5621030000000  0.4457600000000 1.0
C      1  0.4449320000000  0.4450610000000  0.4773200000000 1.0
C      1  0.5423260000000  0.4435220000000  0.4601370000000 1.0
C      1  0.5058310000000  0.4461710000000  0.5579140000000 1.0
C      1  0.4474110000000  0.5559530000000  0.4773670000000 1.0
C      1  0.5439680000000  0.5593300000000  0.4605710000000 1.0
C      1  0.5080440000000  0.5577520000000  0.5575160000000 1.0
C      1  0.5172080000000  0.5397840000000  0.5059000000000 1.0
C      1  0.4917000000000  0.5371440000000  0.5173050000000 1.0
C      1  0.4881380000000  0.5571250000000  0.4778360000000 1.0
C      1  0.5289760000000  0.4618100000000  0.4983040000000 1.0
C      1  0.4864410000000  0.4575730000000  0.5105830000000 1.0
C      1  0.4909390000000  0.4577090000000  0.4842400000000 1.0
C      1  0.5794480000000  0.5155800000000  0.4983700000000 1.0
C      1  0.4721840000000  0.5172580000000  0.5618090000000 1.0
C      1  0.4580640000000  0.5160350000000  0.4437550000000 1.0
C      1  0.5786860000000  0.4858990000000  0.4986890000000 1.0
C      1  0.4711650000000  0.4867670000000  0.5648500000000 1.0
C      1  0.4581010000000  0.4864530000000  0.4442920000000 1.0
C      1  0.5351570000000  0.5166520000000  0.5053440000000 1.0
C      1  0.4792250000000  0.5093850000000  0.5152010000000 1.0
C      1  0.4895750000000  0.5294970000000  0.4713660000000 1.0
C      1  0.5344690000000  0.4877050000000  0.5112560000000 1.0
C      1  0.4814290000000  0.4811440000000  0.5251740000000 1.0
C      1  0.4906230000000  0.4831610000000  0.4730580000000 1.0
C      1  0.5476640000000  0.4778420000000  0.5699070000000 1.0
C      1  0.4165000000000  0.4775030000000  0.5080140000000 1.0
C      1  0.5352980000000  0.4776960000000  0.4321390000000 1.0
C      1  0.5478690000000  0.5247770000000  0.5686950000000 1.0
C      1  0.4164120000000  0.5240620000000  0.5078090000000 1.0
C      1  0.5352370000000  0.5240110000000  0.4331460000000 1.0
C      1  0.5542720000000  0.4686800000000  0.4524620000000 1.0
C      1  0.5195810000000  0.4872230000000  0.5788420000000 1.0
C      1  0.4221160000000  0.4866150000000  0.4789900000000 1.0
C      1  0.5544890000000  0.5329430000000  0.4535110000000 1.0
C      1  0.5196990000000  0.5163890000000  0.5780950000000 1.0
C      1  0.4219740000000  0.5155940000000  0.4790670000000 1.0
C      1  0.4857200000000  0.5257170000000  0.4427640000000 1.0
C      1  0.5598730000000  0.5275860000000  0.5164460000000 1.0
C      1  0.4582030000000  0.5226290000000  0.5370920000000 1.0
C      1  0.4867100000000  0.4799710000000  0.4443600000000 1.0
C      1  0.5605750000000  0.4782750000000  0.5205740000000 1.0
C      1  0.4582160000000  0.4751980000000  0.5412730000000 1.0
C      1  0.4850560000000  0.4338770000000  0.5431520000000 1.0
C      1  0.4669280000000  0.4316900000000  0.4655120000000 1.0
C      1  0.5453690000000  0.4395130000000  0.4891380000000 1.0
C      1  0.4866500000000  0.5683420000000  0.5423920000000 1.0
C      1  0.4685330000000  0.5724270000000  0.4654450000000 1.0
C      1  0.5423280000000  0.5667280000000  0.4881690000000 1.0
C      1  0.4403760000000  0.4716630000000  0.4631300000000 1.0
C      1  0.5702510000000  0.4859920000000  0.4697140000000 1.0
C      1  0.4968180000000  0.4721990000000  0.5704800000000 1.0
C      1  0.4406980000000  0.5306820000000  0.4632200000000 1.0
C      1  0.5710840000000  0.5152950000000  0.4693100000000 1.0
C      1  0.4974080000000  0.5318220000000  0.5690620000000 1.0
C      1  0.5282430000000  0.5014710000000  0.4298920000000 1.0
C      1  0.4194630000000  0.5007700000000  0.5221330000000 1.0
C      1  0.5579620000000  0.5010780000000  0.5597620000000 1.0
C      1  0.4841020000000  0.5068740000000  0.4866760000000 1.0
END
