TITL C-2441168-9922-992 0.039249952466721 125000 -25621.1031565216 0 0 174 (C1) n - 1
REM
REM in /home/bkarasulu/work/CARBON/AIRSS/Generating-Clusters/ReaxFF-fromJPCA2015/Units_Real/with-SteepDescent/Higher-Symm
REM
REM
REM
REM
REM
REM ./C.cell (1df0a924f5614ab8850e4351716899ee)
REM
REM compiler GCC version 9.2.1 20190827 (Red Hat 9.2.1-1)
REM options -cpp -mtune=generic -march=x86-64 -g -O0 -fpre-include=/usr/include/finclude/math-vector-fortran.h
REM seed -1508494060 -1531344557 -1499947372 1303851884 1239575868 327357122 1246726274 -172273259 -1577896654 -1422631971 -592719750 -592450733 343157942 1040499755 37843231 973907404 -918321507 659841796 -1916900500 653507717 -953655636 1085532222 199567867 273097268 1733879506 1947929229 -877025822 51152142 1714482434 925716829 119603166 -407372424 -294956995
REM
CELL 1.54180   50.00000   50.00000   50.00000   90.00000   90.00000   90.00000
LATT -1
SFAC C  
C      1  0.5464830000000  0.4361000000000  0.4419580000000 1.0
C      1  0.5597630000000  0.4367870000000  0.5468420000000 1.0
C      1  0.4516070000000  0.4373890000000  0.5587930000000 1.0
C      1  0.4406580000000  0.4373570000000  0.4525720000000 1.0
C      1  0.4509960000000  0.5622100000000  0.4409860000000 1.0
C      1  0.4418150000000  0.5631170000000  0.5475500000000 1.0
C      1  0.5481340000000  0.5622530000000  0.5591500000000 1.0
C      1  0.5586020000000  0.5623890000000  0.4501920000000 1.0
C      1  0.5577250000000  0.5113320000000  0.5958470000000 1.0
C      1  0.4169330000000  0.5183450000000  0.5698970000000 1.0
C      1  0.4420300000000  0.5109950000000  0.4043820000000 1.0
C      1  0.5963090000000  0.5107920000000  0.4421720000000 1.0
C      1  0.4426220000000  0.4882270000000  0.5950300000000 1.0
C      1  0.5833100000000  0.4816090000000  0.5698060000000 1.0
C      1  0.5689000000000  0.4812720000000  0.4186110000000 1.0
C      1  0.4168960000000  0.4817070000000  0.4296100000000 1.0
C      1  0.4725150000000  0.5815300000000  0.4388840000000 1.0
C      1  0.5597280000000  0.5810600000000  0.4722110000000 1.0
C      1  0.5255700000000  0.5807560000000  0.5606370000000 1.0
C      1  0.4414260000000  0.5823570000000  0.5256160000000 1.0
C      1  0.5239250000000  0.4176690000000  0.4415180000000 1.0
C      1  0.4390590000000  0.4172650000000  0.4738820000000 1.0
C      1  0.4744680000000  0.4194150000000  0.5601120000000 1.0
C      1  0.5605990000000  0.4179230000000  0.5243790000000 1.0
C      1  0.4845090000000  0.5019530000000  0.4640940000000 1.0
C      1  0.5352530000000  0.5006940000000  0.4844890000000 1.0
C      1  0.5150210000000  0.5012090000000  0.5349940000000 1.0
C      1  0.4646270000000  0.5006310000000  0.5143200000000 1.0
C      1  0.5142930000000  0.4984590000000  0.4639470000000 1.0
C      1  0.4644890000000  0.4981160000000  0.4846110000000 1.0
C      1  0.4852260000000  0.4988020000000  0.5349710000000 1.0
C      1  0.5356560000000  0.4985940000000  0.5143490000000 1.0
C      1  0.5665450000000  0.4599520000000  0.5839270000000 1.0
C      1  0.4145700000000  0.4643300000000  0.5628370000000 1.0
C      1  0.4347730000000  0.4600130000000  0.4156080000000 1.0
C      1  0.5829530000000  0.4597940000000  0.4355490000000 1.0
C      1  0.4340930000000  0.5399150000000  0.5837010000000 1.0
C      1  0.5853460000000  0.5356570000000  0.5637830000000 1.0
C      1  0.5640560000000  0.5350700000000  0.4139720000000 1.0
C      1  0.4137020000000  0.5356130000000  0.4368630000000 1.0
C      1  0.5797340000000  0.5520110000000  0.4333590000000 1.0
C      1  0.5657710000000  0.5524150000000  0.5796930000000 1.0
C      1  0.4197970000000  0.5592990000000  0.5657710000000 1.0
C      1  0.4336390000000  0.5512070000000  0.4212910000000 1.0
C      1  0.4195900000000  0.4410020000000  0.4331700000000 1.0
C      1  0.4339280000000  0.4475610000000  0.5791300000000 1.0
C      1  0.5811470000000  0.4407950000000  0.5658260000000 1.0
C      1  0.5654730000000  0.4403860000000  0.4206290000000 1.0
C      1  0.4953970000000  0.5316910000000  0.5658650000000 1.0
C      1  0.4323870000000  0.5306110000000  0.4957270000000 1.0
C      1  0.5039460000000  0.5337320000000  0.4355590000000 1.0
C      1  0.5658370000000  0.5328240000000  0.5040960000000 1.0
C      1  0.5056050000000  0.4678150000000  0.5661540000000 1.0
C      1  0.5673620000000  0.4690010000000  0.4954510000000 1.0
C      1  0.4945940000000  0.4691590000000  0.4326650000000 1.0
C      1  0.4348360000000  0.4666140000000  0.5034870000000 1.0
C      1  0.5056020000000  0.5501970000000  0.4114510000000 1.0
C      1  0.5887180000000  0.5504960000000  0.5054190000000 1.0
C      1  0.4919370000000  0.5484220000000  0.5893700000000 1.0
C      1  0.4101790000000  0.5497050000000  0.4957800000000 1.0
C      1  0.4932320000000  0.4511810000000  0.4097400000000 1.0
C      1  0.4106350000000  0.4506510000000  0.5038580000000 1.0
C      1  0.5083720000000  0.4511110000000  0.5896440000000 1.0
C      1  0.5902460000000  0.4512560000000  0.4932130000000 1.0
C      1  0.6000300000000  0.4658230000000  0.5207190000000 1.0
C      1  0.4828930000000  0.4647270000000  0.6017740000000 1.0
C      1  0.4003930000000  0.4665280000000  0.4782160000000 1.0
C      1  0.5205450000000  0.4651940000000  0.4003530000000 1.0
C      1  0.3997300000000  0.5339640000000  0.5213840000000 1.0
C      1  0.5171160000000  0.5344870000000  0.6017770000000 1.0
C      1  0.6015770000000  0.5351990000000  0.4819780000000 1.0
C      1  0.4819230000000  0.5348490000000  0.3990990000000 1.0
C      1  0.5159960000000  0.6033170000000  0.5137170000000 1.0
C      1  0.4865630000000  0.6055230000000  0.5143590000000 1.0
C      1  0.4863200000000  0.6060840000000  0.4849880000000 1.0
C      1  0.5151420000000  0.6031490000000  0.4844600000000 1.0
C      1  0.4845000000000  0.3961000000000  0.5162660000000 1.0
C      1  0.5138310000000  0.3949500000000  0.5158890000000 1.0
C      1  0.5129860000000  0.3932650000000  0.4865950000000 1.0
C      1  0.4841090000000  0.3924450000000  0.4873070000000 1.0
C      1  0.4715950000000  0.4808620000000  0.4451700000000 1.0
C      1  0.5530800000000  0.4793570000000  0.4731470000000 1.0
C      1  0.5277550000000  0.4797990000000  0.5536990000000 1.0
C      1  0.4464640000000  0.4793130000000  0.5256220000000 1.0
C      1  0.5258990000000  0.5199150000000  0.4457920000000 1.0
C      1  0.4453320000000  0.5194220000000  0.4729190000000 1.0
C      1  0.4737170000000  0.5200680000000  0.5528350000000 1.0
C      1  0.5539150000000  0.5201090000000  0.5258290000000 1.0
C      1  0.5940840000000  0.4630900000000  0.4624180000000 1.0
C      1  0.5394750000000  0.4630330000000  0.5943240000000 1.0
C      1  0.4038630000000  0.4606470000000  0.5354740000000 1.0
C      1  0.4619980000000  0.4628650000000  0.4054350000000 1.0
C      1  0.4033570000000  0.5398640000000  0.4644040000000 1.0
C      1  0.4610050000000  0.5364850000000  0.5941890000000 1.0
C      1  0.5960720000000  0.5404090000000  0.5365790000000 1.0
C      1  0.5367040000000  0.5396640000000  0.4036870000000 1.0
C      1  0.5145470000000  0.5523220000000  0.5256570000000 1.0
C      1  0.4768130000000  0.5512530000000  0.5048200000000 1.0
C      1  0.4808270000000  0.5544670000000  0.4767260000000 1.0
C      1  0.5242690000000  0.5515440000000  0.4868770000000 1.0
C      1  0.4881300000000  0.4488090000000  0.5233930000000 1.0
C      1  0.5268110000000  0.4474030000000  0.5137930000000 1.0
C      1  0.5043370000000  0.4481260000000  0.4775150000000 1.0
C      1  0.4763070000000  0.4443460000000  0.4803300000000 1.0
C      1  0.5743650000000  0.4234230000000  0.4990940000000 1.0
C      1  0.5003300000000  0.4231390000000  0.5735110000000 1.0
C      1  0.4259780000000  0.4219190000000  0.4996030000000 1.0
C      1  0.4995750000000  0.4229140000000  0.4250500000000 1.0
C      1  0.4257680000000  0.5780480000000  0.5007770000000 1.0
C      1  0.4997930000000  0.5764510000000  0.5736310000000 1.0
C      1  0.5727050000000  0.5784150000000  0.4984260000000 1.0
C      1  0.4989700000000  0.5786960000000  0.4266750000000 1.0
C      1  0.5489340000000  0.4619850000000  0.4067960000000 1.0
C      1  0.5946940000000  0.4626450000000  0.5492730000000 1.0
C      1  0.4540550000000  0.4619370000000  0.5967700000000 1.0
C      1  0.4054800000000  0.4628580000000  0.4497050000000 1.0
C      1  0.4526950000000  0.5375220000000  0.4028450000000 1.0
C      1  0.4058060000000  0.5374710000000  0.5498980000000 1.0
C      1  0.5459170000000  0.5374750000000  0.5972820000000 1.0
C      1  0.5976740000000  0.5373760000000  0.4528430000000 1.0
C      1  0.4729570000000  0.5823480000000  0.4696600000000 1.0
C      1  0.5291390000000  0.5793080000000  0.4737920000000 1.0
C      1  0.5257350000000  0.5799690000000  0.5293620000000 1.0
C      1  0.4717710000000  0.5806030000000  0.5237450000000 1.0
C      1  0.5235580000000  0.4178300000000  0.4720740000000 1.0
C      1  0.4699730000000  0.4157600000000  0.4725830000000 1.0
C      1  0.4750930000000  0.4203740000000  0.5292500000000 1.0
C      1  0.5295850000000  0.4190490000000  0.5247240000000 1.0
C      1  0.3982050000000  0.4850240000000  0.5309060000000 1.0
C      1  0.4627350000000  0.4904200000000  0.3979230000000 1.0
C      1  0.6022320000000  0.4904370000000  0.4631980000000 1.0
C      1  0.5379860000000  0.4902190000000  0.6024620000000 1.0
C      1  0.6017780000000  0.5160390000000  0.5305920000000 1.0
C      1  0.5306310000000  0.5152770000000  0.3984120000000 1.0
C      1  0.3979830000000  0.5154220000000  0.4693070000000 1.0
C      1  0.4624420000000  0.5091950000000  0.6019330000000 1.0
C      1  0.4551610000000  0.4648960000000  0.5487120000000 1.0
C      1  0.4504700000000  0.4646680000000  0.4554160000000 1.0
C      1  0.5416760000000  0.4624590000000  0.4535020000000 1.0
C      1  0.5496960000000  0.4640570000000  0.5442060000000 1.0
C      1  0.5453050000000  0.5345180000000  0.5493320000000 1.0
C      1  0.5489550000000  0.5347250000000  0.4541660000000 1.0
C      1  0.4553280000000  0.5354960000000  0.4513840000000 1.0
C      1  0.4529830000000  0.5365410000000  0.5426970000000 1.0
C      1  0.4875030000000  0.5071470000000  0.3943180000000 1.0
C      1  0.6061470000000  0.5073730000000  0.4877240000000 1.0
C      1  0.5130840000000  0.5065260000000  0.6065600000000 1.0
C      1  0.3928900000000  0.5061970000000  0.5146730000000 1.0
C      1  0.5146780000000  0.4934530000000  0.3933770000000 1.0
C      1  0.3929950000000  0.4938680000000  0.4852310000000 1.0
C      1  0.4871300000000  0.4927230000000  0.6063830000000 1.0
C      1  0.6073990000000  0.4939480000000  0.5149600000000 1.0
C      1  0.5167790000000  0.4115880000000  0.5539970000000 1.0
C      1  0.4465830000000  0.4121120000000  0.5162110000000 1.0
C      1  0.4823600000000  0.4103570000000  0.4426100000000 1.0
C      1  0.5526960000000  0.4158020000000  0.4827730000000 1.0
C      1  0.4840880000000  0.5865700000000  0.5522440000000 1.0
C      1  0.5547490000000  0.5890260000000  0.5172170000000 1.0
C      1  0.5167970000000  0.5898380000000  0.4454470000000 1.0
C      1  0.4444480000000  0.5895480000000  0.4839420000000 1.0
C      1  0.4559160000000  0.4679880000000  0.4825670000000 1.0
C      1  0.5145740000000  0.4695210000000  0.4549440000000 1.0
C      1  0.5462780000000  0.4687150000000  0.5168810000000 1.0
C      1  0.4834580000000  0.4692000000000  0.5454830000000 1.0
C      1  0.5456350000000  0.5308890000000  0.4824850000000 1.0
C      1  0.4826590000000  0.5317720000000  0.4559330000000 1.0
C      1  0.4546060000000  0.5297530000000  0.5153560000000 1.0
C      1  0.5171580000000  0.5310460000000  0.5456570000000 1.0
C      1  0.4214320000000  0.4903030000000  0.5749760000000 1.0
C      1  0.4210400000000  0.5095420000000  0.4245650000000 1.0
C      1  0.5760360000000  0.5090000000000  0.4210810000000 1.0
C      1  0.5789920000000  0.5094650000000  0.5757560000000 1.0
C      1  0.5052510000000  0.5423720000000  0.5041650000000 1.0
C      1  0.5053580000000  0.4560830000000  0.5043560000000 1.0
END
