TITL C-2441163-1170-1481 0.00542505387413188 125000 -8283.28646629458 0 0 56 (C1) n - 1
REM
REM in /home/bkarasulu/work/CARBON/AIRSS/Generating-Clusters/ReaxFF-fromJPCA2015/Units_Real/with-SteepDescent/Higher-Symm
REM
REM
REM
REM
REM
REM ./C.cell (1df0a924f5614ab8850e4351716899ee)
REM
REM compiler GCC version 9.2.1 20190827 (Red Hat 9.2.1-1)
REM options -cpp -mtune=generic -march=x86-64 -g -O0 -fpre-include=/usr/include/finclude/math-vector-fortran.h
REM seed -15760202 -578505755 -1460882949 -812850873 53580949 1125707771 1994596127 -1368134200 -43303189 -648386704 -138817677 -34349425 -324129016 1916526305 1362710787 -856669458 -874181320 -1430733831 893609175 -1840010659 -159051058 -961765635 -1856878713 809860727 -1561601506 1992965972 1591787882 -193640288 -389168010 -854987401 -848600074 1607476561 -1233175383
REM
CELL 1.54180   50.00000   50.00000   50.00000   90.00000   90.00000   90.00000
LATT -1
SFAC C  
C      1  0.4905770000000  0.5068090000000  0.4944810000000 1.0
C      1  0.5125390000000  0.5094760000000  0.4760450000000 1.0
C      1  0.5072500000000  0.5059930000000  0.5178810000000 1.0
C      1  0.5432620000000  0.5440770000000  0.4988320000000 1.0
C      1  0.4752820000000  0.5455030000000  0.5443730000000 1.0
C      1  0.4761430000000  0.5441120000000  0.4595970000000 1.0
C      1  0.4199200000000  0.5071010000000  0.4963290000000 1.0
C      1  0.5435840000000  0.5068220000000  0.4371200000000 1.0
C      1  0.5328620000000  0.5063530000000  0.5705220000000 1.0
C      1  0.4738000000000  0.5602260000000  0.4844940000000 1.0
C      1  0.5233120000000  0.5596560000000  0.4844180000000 1.0
C      1  0.4978490000000  0.5581350000000  0.5288130000000 1.0
C      1  0.4315520000000  0.4811760000000  0.5016870000000 1.0
C      1  0.5322130000000  0.4797820000000  0.4379800000000 1.0
C      1  0.5356150000000  0.4802390000000  0.5569270000000 1.0
C      1  0.5313180000000  0.4430500000000  0.4717640000000 1.0
C      1  0.5069240000000  0.4438150000000  0.5411260000000 1.0
C      1  0.4595440000000  0.4445150000000  0.4859220000000 1.0
C      1  0.5316850000000  0.4458100000000  0.5250140000000 1.0
C      1  0.4596610000000  0.4452930000000  0.5153110000000 1.0
C      1  0.5054940000000  0.4439980000000  0.4577580000000 1.0
C      1  0.4363460000000  0.5192020000000  0.5559420000000 1.0
C      1  0.4906500000000  0.5171060000000  0.4247760000000 1.0
C      1  0.5636980000000  0.5178960000000  0.5302040000000 1.0
C      1  0.4490060000000  0.5482150000000  0.4902120000000 1.0
C      1  0.5264440000000  0.5484540000000  0.4572600000000 1.0
C      1  0.5195940000000  0.5449920000000  0.5427270000000 1.0
C      1  0.4850600000000  0.4336630000000  0.5244510000000 1.0
C      1  0.4845570000000  0.4334060000000  0.4758430000000 1.0
C      1  0.5267670000000  0.4333620000000  0.4989550000000 1.0
C      1  0.5430120000000  0.4685170000000  0.4632040000000 1.0
C      1  0.5082920000000  0.4693810000000  0.5547600000000 1.0
C      1  0.4499180000000  0.4715840000000  0.4793860000000 1.0
C      1  0.5041900000000  0.4678960000000  0.4414160000000 1.0
C      1  0.5458020000000  0.4706480000000  0.5299300000000 1.0
C      1  0.4466390000000  0.4694200000000  0.5253190000000 1.0
C      1  0.4790480000000  0.4807330000000  0.4495060000000 1.0
C      1  0.5517060000000  0.4858460000000  0.5055790000000 1.0
C      1  0.4648240000000  0.4849360000000  0.5415820000000 1.0
C      1  0.5340880000000  0.4899920000000  0.4814840000000 1.0
C      1  0.4940040000000  0.4880730000000  0.5364650000000 1.0
C      1  0.4751170000000  0.4859190000000  0.4781200000000 1.0
C      1  0.5031770000000  0.5304900000000  0.4519700000000 1.0
C      1  0.5330780000000  0.5270770000000  0.5232680000000 1.0
C      1  0.4480820000000  0.5388260000000  0.5446430000000 1.0
C      1  0.5496270000000  0.5303860000000  0.4541110000000 1.0
C      1  0.5122820000000  0.5275050000000  0.5656160000000 1.0
C      1  0.4343160000000  0.5279640000000  0.4787290000000 1.0
C      1  0.4541610000000  0.5264440000000  0.4552540000000 1.0
C      1  0.5612800000000  0.5297830000000  0.4818320000000 1.0
C      1  0.4826440000000  0.5254330000000  0.5638500000000 1.0
C      1  0.4602290000000  0.5046650000000  0.5634260000000 1.0
C      1  0.4671220000000  0.5059170000000  0.4364910000000 1.0
C      1  0.5699100000000  0.5096970000000  0.5027740000000 1.0
C      1  0.4988270000000  0.5635300000000  0.5004280000000 1.0
C      1  0.4986670000000  0.4253410000000  0.5000040000000 1.0
END
