TITL C-2441162-9305-1465 0.242453012954813 125000 -23453.8839351499 0 0 196 (C1) n - 1
REM
REM in /home/bkarasulu/work/CARBON/AIRSS/Generating-Clusters/ReaxFF-fromJPCA2015/Units_Real/with-SteepDescent/Higher-Symm
REM
REM
REM
REM
REM
REM ./C.cell (1df0a924f5614ab8850e4351716899ee)
REM
REM compiler GCC version 9.2.1 20190827 (Red Hat 9.2.1-1)
REM options -cpp -mtune=generic -march=x86-64 -g -O0 -fpre-include=/usr/include/finclude/math-vector-fortran.h
REM seed 220636639 -256430562 -955079825 -201653660 1109431841 1512787564 -636764355 1239955841 -1327026227 1620776840 1885952122 -160423060 204559390 -77387522 713233932 1642445326 -493388640 214113582 -881518090 862875733 -1643184949 364706252 1779418916 -964107392 -2095824820 167510480 -533633905 1692161492 -1483943045 1481473487 1570377367 902548391 -870748435
REM
CELL 1.54180   50.00000   50.00000   50.00000   90.00000   90.00000   90.00000
LATT -1
SFAC C  
C      1  0.5997590000000  0.4949170000000  0.4685180000000 1.0
C      1  0.5996060000000  0.4727090000000  0.4845030000000 1.0
C      1  0.5995500000000  0.4711620000000  0.5117150000000 1.0
C      1  0.6000710000000  0.4915750000000  0.5299220000000 1.0
C      1  0.6011840000000  0.5184400000000  0.5250340000000 1.0
C      1  0.6006070000000  0.5314550000000  0.5012360000000 1.0
C      1  0.6006100000000  0.5211100000000  0.4761280000000 1.0
C      1  0.4709880000000  0.4389540000000  0.5865840000000 1.0
C      1  0.4695690000000  0.5293130000000  0.6009490000000 1.0
C      1  0.4708130000000  0.5968030000000  0.5371930000000 1.0
C      1  0.4700130000000  0.5916370000000  0.4480090000000 1.0
C      1  0.4701860000000  0.5160200000000  0.3942980000000 1.0
C      1  0.4693300000000  0.4289010000000  0.4224250000000 1.0
C      1  0.4693950000000  0.3936670000000  0.5075600000000 1.0
C      1  0.4347560000000  0.5534670000000  0.5697350000000 1.0
C      1  0.4241210000000  0.5826140000000  0.5066130000000 1.0
C      1  0.4226110000000  0.5545800000000  0.4397390000000 1.0
C      1  0.4224890000000  0.4864070000000  0.4182590000000 1.0
C      1  0.4219690000000  0.4292400000000  0.4611120000000 1.0
C      1  0.4217290000000  0.4233340000000  0.5317010000000 1.0
C      1  0.4237510000000  0.4807190000000  0.5769050000000 1.0
C      1  0.5208310000000  0.5197940000000  0.4233340000000 1.0
C      1  0.5206210000000  0.4516570000000  0.4340520000000 1.0
C      1  0.5173990000000  0.4222230000000  0.4963090000000 1.0
C      1  0.5176430000000  0.4491220000000  0.5645700000000 1.0
C      1  0.5179300000000  0.5184930000000  0.5796100000000 1.0
C      1  0.5207810000000  0.5719640000000  0.5373210000000 1.0
C      1  0.5176890000000  0.5799370000000  0.4610470000000 1.0
C      1  0.4091500000000  0.5055960000000  0.4347510000000 1.0
C      1  0.4100810000000  0.4552960000000  0.4582650000000 1.0
C      1  0.4086150000000  0.4352770000000  0.5094290000000 1.0
C      1  0.4109770000000  0.4693640000000  0.5539560000000 1.0
C      1  0.4097480000000  0.5241490000000  0.5547010000000 1.0
C      1  0.4111200000000  0.5610690000000  0.5205710000000 1.0
C      1  0.4097060000000  0.5515640000000  0.4655240000000 1.0
C      1  0.5565170000000  0.5877300000000  0.4481010000000 1.0
C      1  0.5484920000000  0.5080400000000  0.3962250000000 1.0
C      1  0.5617590000000  0.4342280000000  0.4280090000000 1.0
C      1  0.5464400000000  0.3988410000000  0.5111820000000 1.0
C      1  0.5486680000000  0.4478460000000  0.5893090000000 1.0
C      1  0.5479250000000  0.5365520000000  0.5982670000000 1.0
C      1  0.5504580000000  0.5968490000000  0.5322420000000 1.0
C      1  0.5311790000000  0.5907470000000  0.4384460000000 1.0
C      1  0.5186570000000  0.5075430000000  0.3954220000000 1.0
C      1  0.5345740000000  0.4271250000000  0.4280210000000 1.0
C      1  0.5181630000000  0.3967130000000  0.5162500000000 1.0
C      1  0.5196460000000  0.4469440000000  0.5937260000000 1.0
C      1  0.5186900000000  0.5403140000000  0.5992860000000 1.0
C      1  0.5222820000000  0.6024660000000  0.5334130000000 1.0
C      1  0.5493860000000  0.4766710000000  0.5902040000000 1.0
C      1  0.5509880000000  0.5587100000000  0.5799030000000 1.0
C      1  0.5496090000000  0.5944500000000  0.5027520000000 1.0
C      1  0.5474400000000  0.5670290000000  0.4287110000000 1.0
C      1  0.5480570000000  0.4805210000000  0.4065390000000 1.0
C      1  0.5446450000000  0.4164730000000  0.4533320000000 1.0
C      1  0.5520640000000  0.4082840000000  0.5386880000000 1.0
C      1  0.4671260000000  0.5390260000000  0.4344930000000 1.0
C      1  0.4699770000000  0.4733440000000  0.4285560000000 1.0
C      1  0.4648220000000  0.4265940000000  0.4754650000000 1.0
C      1  0.4687120000000  0.4349910000000  0.5410540000000 1.0
C      1  0.4681010000000  0.4900780000000  0.5773720000000 1.0
C      1  0.4609920000000  0.5561970000000  0.5561020000000 1.0
C      1  0.4683110000000  0.5759260000000  0.4897480000000 1.0
C      1  0.4734260000000  0.6038010000000  0.4954460000000 1.0
C      1  0.4711890000000  0.5598300000000  0.4142770000000 1.0
C      1  0.4752580000000  0.4728280000000  0.4007270000000 1.0
C      1  0.4708080000000  0.4031580000000  0.4598450000000 1.0
C      1  0.4746380000000  0.4077470000000  0.5494480000000 1.0
C      1  0.4747510000000  0.4802760000000  0.6034230000000 1.0
C      1  0.4744750000000  0.5684790000000  0.5795510000000 1.0
C      1  0.4516560000000  0.5245830000000  0.4792330000000 1.0
C      1  0.4427470000000  0.4990800000000  0.4667560000000 1.0
C      1  0.4521660000000  0.4740760000000  0.4804690000000 1.0
C      1  0.4420390000000  0.4663640000000  0.5075590000000 1.0
C      1  0.4527600000000  0.4855150000000  0.5281850000000 1.0
C      1  0.4452400000000  0.5154770000000  0.5289140000000 1.0
C      1  0.4418520000000  0.5332880000000  0.5052490000000 1.0
C      1  0.4600700000000  0.5283550000000  0.5498500000000 1.0
C      1  0.4577220000000  0.5605970000000  0.5134530000000 1.0
C      1  0.4583210000000  0.5475340000000  0.4594920000000 1.0
C      1  0.4570060000000  0.4974950000000  0.4373890000000 1.0
C      1  0.4575900000000  0.4496110000000  0.4621810000000 1.0
C      1  0.4547280000000  0.4386320000000  0.5161240000000 1.0
C      1  0.4593450000000  0.4724150000000  0.5586130000000 1.0
C      1  0.4799570000000  0.4855020000000  0.5192090000000 1.0
C      1  0.4919320000000  0.5075590000000  0.5215800000000 1.0
C      1  0.4876790000000  0.5282620000000  0.5087830000000 1.0
C      1  0.4797920000000  0.5249980000000  0.4827150000000 1.0
C      1  0.4908770000000  0.5020920000000  0.4689490000000 1.0
C      1  0.4812960000000  0.4765920000000  0.4775210000000 1.0
C      1  0.4938900000000  0.4673780000000  0.5017870000000 1.0
C      1  0.4423030000000  0.5310040000000  0.5877250000000 1.0
C      1  0.4454740000000  0.5853450000000  0.5274670000000 1.0
C      1  0.4427670000000  0.5741620000000  0.4540330000000 1.0
C      1  0.4429950000000  0.5098730000000  0.4106850000000 1.0
C      1  0.4426940000000  0.4380250000000  0.4381160000000 1.0
C      1  0.4428930000000  0.4108620000000  0.5103710000000 1.0
C      1  0.4432180000000  0.4533300000000  0.5742830000000 1.0
C      1  0.5523980000000  0.4655460000000  0.4968380000000 1.0
C      1  0.5519910000000  0.4768060000000  0.5238000000000 1.0
C      1  0.5564570000000  0.4998410000000  0.5381610000000 1.0
C      1  0.5547810000000  0.5258210000000  0.5227030000000 1.0
C      1  0.5517290000000  0.5327990000000  0.4916420000000 1.0
C      1  0.5535790000000  0.5130810000000  0.4693960000000 1.0
C      1  0.5528380000000  0.4824930000000  0.4719210000000 1.0
C      1  0.5109590000000  0.4513870000000  0.4058070000000 1.0
C      1  0.5087720000000  0.4010030000000  0.4759310000000 1.0
C      1  0.5119140000000  0.4205480000000  0.5612700000000 1.0
C      1  0.5111610000000  0.4994420000000  0.5998610000000 1.0
C      1  0.5105290000000  0.5766220000000  0.5623290000000 1.0
C      1  0.5114110000000  0.6003940000000  0.4793390000000 1.0
C      1  0.5095760000000  0.5451440000000  0.4108520000000 1.0
C      1  0.5285610000000  0.5643440000000  0.4023310000000 1.0
C      1  0.5310000000000  0.4629050000000  0.3879310000000 1.0
C      1  0.5279840000000  0.3897460000000  0.4578870000000 1.0
C      1  0.5330370000000  0.3995680000000  0.5608590000000 1.0
C      1  0.5330930000000  0.4856450000000  0.6144130000000 1.0
C      1  0.5317200000000  0.5809490000000  0.5837720000000 1.0
C      1  0.5333150000000  0.6172430000000  0.4890760000000 1.0
C      1  0.5140150000000  0.5098460000000  0.5344000000000 1.0
C      1  0.5263390000000  0.5279360000000  0.5202730000000 1.0
C      1  0.5227170000000  0.5308370000000  0.4937500000000 1.0
C      1  0.5239630000000  0.5113500000000  0.4731730000000 1.0
C      1  0.5242730000000  0.4838190000000  0.4764110000000 1.0
C      1  0.5205660000000  0.4736430000000  0.5013960000000 1.0
C      1  0.5232510000000  0.4806120000000  0.5286250000000 1.0
C      1  0.5381400000000  0.4777680000000  0.4348450000000 1.0
C      1  0.5374990000000  0.4348420000000  0.4770760000000 1.0
C      1  0.5433840000000  0.4372960000000  0.5363950000000 1.0
C      1  0.5472430000000  0.4954920000000  0.5656290000000 1.0
C      1  0.5414870000000  0.5484080000000  0.5509070000000 1.0
C      1  0.5370220000000  0.5690060000000  0.4965280000000 1.0
C      1  0.5362160000000  0.5454710000000  0.4507840000000 1.0
C      1  0.4241810000000  0.5742480000000  0.4775000000000 1.0
C      1  0.4233290000000  0.5288710000000  0.4249520000000 1.0
C      1  0.4234100000000  0.4604080000000  0.4322540000000 1.0
C      1  0.4223260000000  0.4198950000000  0.4892150000000 1.0
C      1  0.4239430000000  0.4424480000000  0.5545870000000 1.0
C      1  0.4249270000000  0.5099310000000  0.5765820000000 1.0
C      1  0.4142390000000  0.5519520000000  0.5482540000000 1.0
C      1  0.4105050000000  0.5010690000000  0.4671100000000 1.0
C      1  0.4049400000000  0.4750870000000  0.4781330000000 1.0
C      1  0.4101640000000  0.4672520000000  0.5055710000000 1.0
C      1  0.4050040000000  0.4838530000000  0.5292610000000 1.0
C      1  0.4093260000000  0.5114710000000  0.5291470000000 1.0
C      1  0.4115820000000  0.5324080000000  0.5062510000000 1.0
C      1  0.4045440000000  0.5268960000000  0.4793620000000 1.0
C      1  0.5557720000000  0.5225680000000  0.4203990000000 1.0
C      1  0.5597840000000  0.4589400000000  0.4370780000000 1.0
C      1  0.5573720000000  0.4199120000000  0.4930910000000 1.0
C      1  0.5588480000000  0.4458730000000  0.5608900000000 1.0
C      1  0.5602970000000  0.5159900000000  0.5811480000000 1.0
C      1  0.5602300000000  0.5704900000000  0.5393850000000 1.0
C      1  0.5542120000000  0.5677020000000  0.4699800000000 1.0
C      1  0.5032190000000  0.5186870000000  0.5586840000000 1.0
C      1  0.5064950000000  0.5701340000000  0.5125610000000 1.0
C      1  0.5034300000000  0.5571230000000  0.4521460000000 1.0
C      1  0.5042470000000  0.5013530000000  0.4400640000000 1.0
C      1  0.5039080000000  0.4401790000000  0.4542570000000 1.0
C      1  0.4980600000000  0.4396210000000  0.5071860000000 1.0
C      1  0.5059570000000  0.4688480000000  0.5489950000000 1.0
C      1  0.4776890000000  0.5124910000000  0.5639130000000 1.0
C      1  0.4850310000000  0.5529710000000  0.5239640000000 1.0
C      1  0.4829800000000  0.5541180000000  0.4741710000000 1.0
C      1  0.4796320000000  0.5145730000000  0.4329980000000 1.0
C      1  0.4829970000000  0.4611110000000  0.4531690000000 1.0
C      1  0.4743500000000  0.4327860000000  0.4994010000000 1.0
C      1  0.4805920000000  0.4578930000000  0.5502960000000 1.0
C      1  0.4846220000000  0.5891520000000  0.5622900000000 1.0
C      1  0.4836770000000  0.6078030000000  0.4681900000000 1.0
C      1  0.4841030000000  0.5409820000000  0.3963340000000 1.0
C      1  0.4827820000000  0.4446440000000  0.4021620000000 1.0
C      1  0.4828130000000  0.3894710000000  0.4823500000000 1.0
C      1  0.4856690000000  0.4167920000000  0.5750740000000 1.0
C      1  0.4851800000000  0.5061110000000  0.6106780000000 1.0
C      1  0.4882540000000  0.4184660000000  0.4412130000000 1.0
C      1  0.4906280000000  0.3944010000000  0.5267840000000 1.0
C      1  0.4904290000000  0.4548480000000  0.5991650000000 1.0
C      1  0.4897080000000  0.5492740000000  0.5957940000000 1.0
C      1  0.4951070000000  0.5986700000000  0.5180500000000 1.0
C      1  0.4877280000000  0.5753990000000  0.4328530000000 1.0
C      1  0.4909490000000  0.4968470000000  0.3910270000000 1.0
C      1  0.5896650000000  0.5383470000000  0.4565720000000 1.0
C      1  0.5895120000000  0.4912760000000  0.4430960000000 1.0
C      1  0.5901940000000  0.4498400000000  0.4725740000000 1.0
C      1  0.5896060000000  0.4470810000000  0.5219540000000 1.0
C      1  0.5912290000000  0.4847060000000  0.5555790000000 1.0
C      1  0.5917590000000  0.5335680000000  0.5467140000000 1.0
C      1  0.5909990000000  0.5576260000000  0.5024470000000 1.0
C      1  0.5839050000000  0.5574780000000  0.5313270000000 1.0
C      1  0.5822150000000  0.5592860000000  0.4748570000000 1.0
C      1  0.5796500000000  0.5184860000000  0.4357560000000 1.0
C      1  0.5842280000000  0.4623490000000  0.4457930000000 1.0
C      1  0.5822460000000  0.4341210000000  0.4960080000000 1.0
C      1  0.5831430000000  0.4570410000000  0.5491540000000 1.0
C      1  0.5849250000000  0.5122370000000  0.5661350000000 1.0
END
