TITL C-2441164-471-727 0.0397617710722275 125000 -26068.3689971684 0 0 175 (C1) n - 1
REM
REM in /home/bkarasulu/work/CARBON/AIRSS/Generating-Clusters/ReaxFF-fromJPCA2015/Units_Real/with-SteepDescent/Higher-Symm
REM
REM
REM
REM
REM
REM ./C.cell (1df0a924f5614ab8850e4351716899ee)
REM
REM compiler GCC version 9.2.1 20190827 (Red Hat 9.2.1-1)
REM options -cpp -mtune=generic -march=x86-64 -g -O0 -fpre-include=/usr/include/finclude/math-vector-fortran.h
REM seed -1863919797 -2100168342 1090566116 316424477 173377149 1114918102 -1087555571 1318649414 464587070 1507629893 1356068902 265195125 1253167021 2135267131 -1011941189 2042612692 -440860515 594396542 -824507876 1268208608 -1324791641 491467192 -1327826319 984677556 2494842 -646123114 -1501231784 -365531945 -2093605626 1600419462 -430102163 -1890733683 1093986428
REM
CELL 1.54180   50.00000   50.00000   50.00000   90.00000   90.00000   90.00000
LATT -1
SFAC C  
C      1  0.4355640000000  0.5889890000000  0.5079620000000 1.0
C      1  0.4709510000000  0.5950510000000  0.5499060000000 1.0
C      1  0.5236200000000  0.5856910000000  0.5519070000000 1.0
C      1  0.5658270000000  0.5884540000000  0.5259340000000 1.0
C      1  0.5537290000000  0.5871180000000  0.4788300000000 1.0
C      1  0.5095270000000  0.5838300000000  0.4389300000000 1.0
C      1  0.4583420000000  0.5893440000000  0.4584300000000 1.0
C      1  0.5511720000000  0.4961980000000  0.5917120000000 1.0
C      1  0.6063130000000  0.4837700000000  0.5168210000000 1.0
C      1  0.5776770000000  0.4861120000000  0.4298970000000 1.0
C      1  0.4963690000000  0.4839160000000  0.3904430000000 1.0
C      1  0.4162300000000  0.4879180000000  0.4408000000000 1.0
C      1  0.3878580000000  0.4873830000000  0.5324320000000 1.0
C      1  0.4581730000000  0.4864460000000  0.6034920000000 1.0
C      1  0.5564290000000  0.4777010000000  0.4724030000000 1.0
C      1  0.5110320000000  0.4794600000000  0.4391490000000 1.0
C      1  0.4650640000000  0.4784990000000  0.4573070000000 1.0
C      1  0.4416380000000  0.4792190000000  0.4997000000000 1.0
C      1  0.4752920000000  0.4747100000000  0.5413460000000 1.0
C      1  0.5170100000000  0.4805440000000  0.5646250000000 1.0
C      1  0.5565130000000  0.4787510000000  0.5236470000000 1.0
C      1  0.4893550000000  0.5210770000000  0.5507220000000 1.0
C      1  0.5324720000000  0.5201160000000  0.5391050000000 1.0
C      1  0.5472680000000  0.5204890000000  0.4975140000000 1.0
C      1  0.5415030000000  0.5166280000000  0.4483590000000 1.0
C      1  0.4922190000000  0.5223570000000  0.4572000000000 1.0
C      1  0.4440770000000  0.5177670000000  0.4699880000000 1.0
C      1  0.4590240000000  0.5187510000000  0.5167500000000 1.0
C      1  0.5317860000000  0.5443050000000  0.5005180000000 1.0
C      1  0.5175160000000  0.5603170000000  0.4802510000000 1.0
C      1  0.4910930000000  0.5518360000000  0.4672610000000 1.0
C      1  0.4738450000000  0.5605850000000  0.4924450000000 1.0
C      1  0.4713850000000  0.5438750000000  0.5158780000000 1.0
C      1  0.4922650000000  0.5472510000000  0.5359080000000 1.0
C      1  0.5210900000000  0.5425860000000  0.5263910000000 1.0
C      1  0.4908650000000  0.4563630000000  0.5220570000000 1.0
C      1  0.5216890000000  0.4443910000000  0.5269460000000 1.0
C      1  0.5361680000000  0.4440520000000  0.5006110000000 1.0
C      1  0.5162760000000  0.4511200000000  0.4765760000000 1.0
C      1  0.4926250000000  0.4407240000000  0.4639490000000 1.0
C      1  0.4754680000000  0.4264270000000  0.4827640000000 1.0
C      1  0.4756720000000  0.4322780000000  0.5119080000000 1.0
C      1  0.5404110000000  0.4911180000000  0.4031320000000 1.0
C      1  0.4489710000000  0.4876680000000  0.4027090000000 1.0
C      1  0.3944670000000  0.4931410000000  0.4827010000000 1.0
C      1  0.4162900000000  0.4863370000000  0.5740790000000 1.0
C      1  0.5044000000000  0.4876670000000  0.6101610000000 1.0
C      1  0.5848650000000  0.4896690000000  0.5584310000000 1.0
C      1  0.6057500000000  0.4889750000000  0.4691500000000 1.0
C      1  0.5970790000000  0.4414700000000  0.4878170000000 1.0
C      1  0.5448000000000  0.4468900000000  0.4323250000000 1.0
C      1  0.4618000000000  0.4436560000000  0.3997070000000 1.0
C      1  0.4225810000000  0.4467660000000  0.4721180000000 1.0
C      1  0.4188060000000  0.4526480000000  0.5388980000000 1.0
C      1  0.4844340000000  0.4510820000000  0.5868440000000 1.0
C      1  0.5532230000000  0.4509480000000  0.5631570000000 1.0
C      1  0.4309360000000  0.4132880000000  0.5158310000000 1.0
C      1  0.4492020000000  0.4226800000000  0.5671530000000 1.0
C      1  0.5049090000000  0.4146900000000  0.5792230000000 1.0
C      1  0.5883920000000  0.4369560000000  0.5331300000000 1.0
C      1  0.5782650000000  0.4217480000000  0.4539550000000 1.0
C      1  0.4991390000000  0.4218240000000  0.4170600000000 1.0
C      1  0.4464720000000  0.4245970000000  0.4342590000000 1.0
C      1  0.4551300000000  0.5838170000000  0.4861970000000 1.0
C      1  0.4525770000000  0.5943120000000  0.5296160000000 1.0
C      1  0.4956710000000  0.5790920000000  0.5463070000000 1.0
C      1  0.5415870000000  0.5987710000000  0.5326040000000 1.0
C      1  0.5499950000000  0.5992400000000  0.5045660000000 1.0
C      1  0.5343560000000  0.5781210000000  0.4559720000000 1.0
C      1  0.4845870000000  0.5774910000000  0.4520480000000 1.0
C      1  0.4543590000000  0.3970750000000  0.5053290000000 1.0
C      1  0.4782930000000  0.4051050000000  0.5224290000000 1.0
C      1  0.5302920000000  0.4159510000000  0.5301160000000 1.0
C      1  0.5514020000000  0.4177680000000  0.5020590000000 1.0
C      1  0.5418820000000  0.4083290000000  0.4728290000000 1.0
C      1  0.5177970000000  0.3938630000000  0.4729590000000 1.0
C      1  0.4551630000000  0.4057370000000  0.4771660000000 1.0
C      1  0.5497490000000  0.5065810000000  0.5219690000000 1.0
C      1  0.5500870000000  0.5062690000000  0.4741640000000 1.0
C      1  0.5141060000000  0.5082200000000  0.4447970000000 1.0
C      1  0.4676190000000  0.5071340000000  0.4568790000000 1.0
C      1  0.4442110000000  0.5071110000000  0.4964770000000 1.0
C      1  0.4705540000000  0.5030690000000  0.5389220000000 1.0
C      1  0.5139120000000  0.5077970000000  0.5551770000000 1.0
C      1  0.4298170000000  0.4735820000000  0.4188090000000 1.0
C      1  0.3926080000000  0.4756770000000  0.5064130000000 1.0
C      1  0.4357340000000  0.4711340000000  0.5904400000000 1.0
C      1  0.5276430000000  0.4801080000000  0.5942890000000 1.0
C      1  0.5878490000000  0.4707760000000  0.5358230000000 1.0
C      1  0.5840090000000  0.4755810000000  0.4562360000000 1.0
C      1  0.5175150000000  0.4741980000000  0.4072680000000 1.0
C      1  0.5526500000000  0.4202480000000  0.4463750000000 1.0
C      1  0.4717850000000  0.4212910000000  0.4165150000000 1.0
C      1  0.4358880000000  0.4196930000000  0.4599350000000 1.0
C      1  0.4333520000000  0.4274620000000  0.5424710000000 1.0
C      1  0.4782130000000  0.4230670000000  0.5802720000000 1.0
C      1  0.5420740000000  0.4238300000000  0.5599550000000 1.0
C      1  0.5794470000000  0.4270540000000  0.5057280000000 1.0
C      1  0.5868810000000  0.5553750000000  0.5014530000000 1.0
C      1  0.5483870000000  0.5590670000000  0.4369760000000 1.0
C      1  0.4786500000000  0.5532000000000  0.4139100000000 1.0
C      1  0.4222980000000  0.5583650000000  0.4674440000000 1.0
C      1  0.4255100000000  0.5524390000000  0.5409180000000 1.0
C      1  0.4862230000000  0.5689100000000  0.5851690000000 1.0
C      1  0.5547920000000  0.5462850000000  0.5706330000000 1.0
C      1  0.4235660000000  0.5136330000000  0.5678700000000 1.0
C      1  0.4945670000000  0.5145390000000  0.6034360000000 1.0
C      1  0.5888820000000  0.5168800000000  0.5467690000000 1.0
C      1  0.6024450000000  0.5182070000000  0.4713100000000 1.0
C      1  0.5284850000000  0.5196150000000  0.4033640000000 1.0
C      1  0.4531900000000  0.5153650000000  0.4047930000000 1.0
C      1  0.3989200000000  0.5199390000000  0.4959400000000 1.0
C      1  0.4121590000000  0.5274420000000  0.5447840000000 1.0
C      1  0.4656950000000  0.5134990000000  0.5967220000000 1.0
C      1  0.5437900000000  0.5248540000000  0.5877970000000 1.0
C      1  0.6004110000000  0.5300060000000  0.4977890000000 1.0
C      1  0.5676950000000  0.5136600000000  0.4344820000000 1.0
C      1  0.4781600000000  0.5284250000000  0.3998280000000 1.0
C      1  0.4269200000000  0.5150140000000  0.4467190000000 1.0
C      1  0.5775770000000  0.5621640000000  0.5278240000000 1.0
C      1  0.5752500000000  0.5686990000000  0.4775710000000 1.0
C      1  0.5065110000000  0.5632400000000  0.4185740000000 1.0
C      1  0.4379880000000  0.5707180000000  0.4469000000000 1.0
C      1  0.4212890000000  0.5635670000000  0.5144000000000 1.0
C      1  0.4618390000000  0.5753940000000  0.5731430000000 1.0
C      1  0.5349920000000  0.5677900000000  0.5723270000000 1.0
C      1  0.5367680000000  0.4644280000000  0.5429850000000 1.0
C      1  0.5539160000000  0.4661820000000  0.4986330000000 1.0
C      1  0.5324860000000  0.4639190000000  0.4550340000000 1.0
C      1  0.4874680000000  0.4641280000000  0.4486220000000 1.0
C      1  0.4470860000000  0.4649400000000  0.4761680000000 1.0
C      1  0.4189740000000  0.4659960000000  0.5130070000000 1.0
C      1  0.4907250000000  0.4681320000000  0.5643960000000 1.0
C      1  0.5170970000000  0.5321120000000  0.5971000000000 1.0
C      1  0.6027580000000  0.5123160000000  0.5213070000000 1.0
C      1  0.5875460000000  0.5297250000000  0.4486190000000 1.0
C      1  0.5021620000000  0.5129730000000  0.3935220000000 1.0
C      1  0.4379800000000  0.5295350000000  0.4239610000000 1.0
C      1  0.3956850000000  0.5145670000000  0.5240010000000 1.0
C      1  0.4464180000000  0.5280630000000  0.5789720000000 1.0
C      1  0.4156470000000  0.4279380000000  0.4957630000000 1.0
C      1  0.4423070000000  0.4456750000000  0.5800610000000 1.0
C      1  0.5289190000000  0.4090290000000  0.5797410000000 1.0
C      1  0.5967050000000  0.4204930000000  0.5503800000000 1.0
C      1  0.6055490000000  0.4269430000000  0.4607350000000 1.0
C      1  0.5265580000000  0.4267060000000  0.4142900000000 1.0
C      1  0.4372100000000  0.4454540000000  0.4155280000000 1.0
C      1  0.4703250000000  0.4708270000000  0.3931000000000 1.0
C      1  0.4057650000000  0.4745340000000  0.4636900000000 1.0
C      1  0.4018560000000  0.4722250000000  0.5532360000000 1.0
C      1  0.4812660000000  0.4696140000000  0.6092770000000 1.0
C      1  0.5657130000000  0.4757880000000  0.5756590000000 1.0
C      1  0.6072090000000  0.4694370000000  0.4913150000000 1.0
C      1  0.5576260000000  0.4709140000000  0.4155410000000 1.0
C      1  0.5127390000000  0.5609190000000  0.5911200000000 1.0
C      1  0.5753410000000  0.5427870000000  0.5497170000000 1.0
C      1  0.5734940000000  0.5551150000000  0.4512250000000 1.0
C      1  0.5309960000000  0.5459020000000  0.4170610000000 1.0
C      1  0.4521400000000  0.5544450000000  0.4263750000000 1.0
C      1  0.4107120000000  0.5476780000000  0.4909090000000 1.0
C      1  0.4447100000000  0.5528770000000  0.5642630000000 1.0
C      1  0.5074610000000  0.3812140000000  0.5003130000000 1.0
C      1  0.5002690000000  0.4929610000000  0.4948770000000 1.0
C      1  0.4977430000000  0.3048260000000  0.5015150000000 1.0
C      1  0.4990460000000  0.6022660000000  0.4992630000000 1.0
C      1  0.4996380000000  0.5187050000000  0.4912230000000 1.0
C      1  0.5002680000000  0.3291030000000  0.5014740000000 1.0
C      1  0.4997840000000  0.6759000000000  0.5004110000000 1.0
C      1  0.4984440000000  0.6504440000000  0.5008230000000 1.0
C      1  0.4982180000000  0.6267230000000  0.5006180000000 1.0
C      1  0.4998090000000  0.5767800000000  0.4978340000000 1.0
C      1  0.5012550000000  0.4687390000000  0.4968580000000 1.0
C      1  0.5036770000000  0.3543120000000  0.5010560000000 1.0
C      1  0.5068110000000  0.3984510000000  0.5244990000000 1.0
C      1  0.5014090000000  0.7000610000000  0.4997910000000 1.0
END
