TITL C-2441162-9305-991 0.0282563161904909 125000 -11085.6969132585 0 0 80 (C1) n - 1
REM
REM in /home/bkarasulu/work/CARBON/AIRSS/Generating-Clusters/ReaxFF-fromJPCA2015/Units_Real/with-SteepDescent/Higher-Symm
REM
REM
REM
REM
REM
REM ./C.cell (1df0a924f5614ab8850e4351716899ee)
REM
REM compiler GCC version 9.2.1 20190827 (Red Hat 9.2.1-1)
REM options -cpp -mtune=generic -march=x86-64 -g -O0 -fpre-include=/usr/include/finclude/math-vector-fortran.h
REM seed -1672875362 -61686258 1966872446 834329954 -1981780898 -168030976 750313916 -422540720 304345508 -1033323777 -1414641686 -62143853 -2104809412 1062099233 -837699772 -1850224260 -1343367567 543300439 1615431695 265467672 208438288 1992781404 1310230754 -213648196 1796574851 -838689315 1985868908 -669272576 -1639414911 -1711454054 -2019538828 -1153292928 43921976
REM
CELL 1.54180   50.00000   50.00000   50.00000   90.00000   90.00000   90.00000
LATT -1
SFAC C  
C      1  0.4812590000000  0.5088090000000  0.4728410000000 1.0
C      1  0.5221720000000  0.5051140000000  0.4689830000000 1.0
C      1  0.5001380000000  0.4883230000000  0.4730260000000 1.0
C      1  0.4878540000000  0.5065150000000  0.5311080000000 1.0
C      1  0.5166160000000  0.5108500000000  0.5285290000000 1.0
C      1  0.4934530000000  0.4787310000000  0.5336930000000 1.0
C      1  0.5731760000000  0.5050430000000  0.4782870000000 1.0
C      1  0.4696310000000  0.4353120000000  0.4778270000000 1.0
C      1  0.4568920000000  0.5623900000000  0.4808700000000 1.0
C      1  0.5764130000000  0.5065340000000  0.5237070000000 1.0
C      1  0.4666640000000  0.4301470000000  0.5240630000000 1.0
C      1  0.4583030000000  0.5607760000000  0.5239530000000 1.0
C      1  0.4153780000000  0.5008110000000  0.4866510000000 1.0
C      1  0.5420750000000  0.5730000000000  0.4853120000000 1.0
C      1  0.5424090000000  0.4265280000000  0.4879020000000 1.0
C      1  0.4167690000000  0.5014460000000  0.5156000000000 1.0
C      1  0.5428050000000  0.5725670000000  0.5146930000000 1.0
C      1  0.5413400000000  0.4276440000000  0.5168590000000 1.0
C      1  0.4355790000000  0.5467650000000  0.4879520000000 1.0
C      1  0.5712570000000  0.5309500000000  0.4839510000000 1.0
C      1  0.4924780000000  0.4241440000000  0.4857070000000 1.0
C      1  0.4365680000000  0.5454650000000  0.5182940000000 1.0
C      1  0.5714310000000  0.5315270000000  0.5142090000000 1.0
C      1  0.4915540000000  0.4223840000000  0.5157300000000 1.0
C      1  0.5051460000000  0.5328470000000  0.4360200000000 1.0
C      1  0.5219510000000  0.4724910000000  0.4382830000000 1.0
C      1  0.4711530000000  0.4896130000000  0.4338190000000 1.0
C      1  0.5052880000000  0.5311950000000  0.5688650000000 1.0
C      1  0.5236520000000  0.4801420000000  0.5671880000000 1.0
C      1  0.4700210000000  0.4885520000000  0.5700240000000 1.0
C      1  0.4356430000000  0.5192770000000  0.4761330000000 1.0
C      1  0.5466070000000  0.5452940000000  0.4731170000000 1.0
C      1  0.5162140000000  0.4398900000000  0.4768490000000 1.0
C      1  0.4374690000000  0.5180620000000  0.5260320000000 1.0
C      1  0.5473860000000  0.5452690000000  0.5236170000000 1.0
C      1  0.5150980000000  0.4373340000000  0.5271070000000 1.0
C      1  0.4435150000000  0.4360710000000  0.4838510000000 1.0
C      1  0.4717220000000  0.5842560000000  0.4874340000000 1.0
C      1  0.5863850000000  0.4819420000000  0.4859530000000 1.0
C      1  0.4418050000000  0.4346620000000  0.5144370000000 1.0
C      1  0.4719760000000  0.5828940000000  0.5174870000000 1.0
C      1  0.5861260000000  0.4830690000000  0.5159860000000 1.0
C      1  0.5098770000000  0.4664960000000  0.4899780000000 1.0
C      1  0.4601400000000  0.5069640000000  0.4876110000000 1.0
C      1  0.5261220000000  0.5270730000000  0.4859470000000 1.0
C      1  0.5085970000000  0.4641090000000  0.5167050000000 1.0
C      1  0.4625660000000  0.5081360000000  0.5147230000000 1.0
C      1  0.5255640000000  0.5302140000000  0.5133280000000 1.0
C      1  0.5723320000000  0.4574830000000  0.5159380000000 1.0
C      1  0.4262790000000  0.4592060000000  0.5153950000000 1.0
C      1  0.5013120000000  0.5842210000000  0.5156960000000 1.0
C      1  0.5726780000000  0.4554710000000  0.4868610000000 1.0
C      1  0.4254700000000  0.4592850000000  0.4862400000000 1.0
C      1  0.5014310000000  0.5848260000000  0.4863200000000 1.0
C      1  0.4688290000000  0.4433270000000  0.5435210000000 1.0
C      1  0.4682000000000  0.5517940000000  0.5434890000000 1.0
C      1  0.5615580000000  0.5025060000000  0.5416680000000 1.0
C      1  0.4735100000000  0.4493500000000  0.4591760000000 1.0
C      1  0.4667220000000  0.5535140000000  0.4613100000000 1.0
C      1  0.5633460000000  0.5000850000000  0.4574690000000 1.0
C      1  0.5559950000000  0.4417520000000  0.4670250000000 1.0
C      1  0.4236000000000  0.4810000000000  0.4661730000000 1.0
C      1  0.5205000000000  0.5759920000000  0.4652560000000 1.0
C      1  0.5543880000000  0.4452710000000  0.5366140000000 1.0
C      1  0.4241400000000  0.4808580000000  0.5351050000000 1.0
C      1  0.5215370000000  0.5750170000000  0.5353630000000 1.0
C      1  0.4457170000000  0.4906530000000  0.4474710000000 1.0
C      1  0.5242750000000  0.5516250000000  0.4489970000000 1.0
C      1  0.5325470000000  0.4496110000000  0.4506250000000 1.0
C      1  0.4448860000000  0.4912330000000  0.5552700000000 1.0
C      1  0.5181600000000  0.5528200000000  0.5559430000000 1.0
C      1  0.5333070000000  0.4563720000000  0.5540370000000 1.0
C      1  0.5351760000000  0.5026430000000  0.5502840000000 1.0
C      1  0.4816610000000  0.4649540000000  0.5556290000000 1.0
C      1  0.4803590000000  0.5299480000000  0.5546630000000 1.0
C      1  0.5377660000000  0.4968290000000  0.4459990000000 1.0
C      1  0.4891420000000  0.4680580000000  0.4439000000000 1.0
C      1  0.4799340000000  0.5304090000000  0.4540430000000 1.0
C      1  0.4996840000000  0.4979730000000  0.5724770000000 1.0
C      1  0.4986070000000  0.5054000000000  0.4264760000000 1.0
END
