TITL C-2441164-471-1359 0.0433915615465322 125000 -16392.7602402215 0 0 116 (C1) n - 1
REM
REM in /home/bkarasulu/work/CARBON/AIRSS/Generating-Clusters/ReaxFF-fromJPCA2015/Units_Real/with-SteepDescent/Higher-Symm
REM
REM
REM
REM
REM
REM ./C.cell (1df0a924f5614ab8850e4351716899ee)
REM
REM compiler GCC version 9.2.1 20190827 (Red Hat 9.2.1-1)
REM options -cpp -mtune=generic -march=x86-64 -g -O0 -fpre-include=/usr/include/finclude/math-vector-fortran.h
REM seed -642543634 1532654497 -937413069 -563920359 501226140 1757074837 -747711857 551047480 1421909858 -1782516813 -1299743009 2022124344 222683064 -274502105 2073626529 -1172548775 1452147397 436377491 -1450118999 314671718 632136170 -1604902690 618388228 2099177847 -554299573 -611156945 1309960711 958518365 629159895 282230242 1409373214 1496840516 1664071657
REM
CELL 1.54180   50.00000   50.00000   50.00000   90.00000   90.00000   90.00000
LATT -1
SFAC C  
C      1  0.5863170000000  0.5112990000000  0.4704830000000 1.0
C      1  0.5770590000000  0.4823590000000  0.4694820000000 1.0
C      1  0.5866200000000  0.4706560000000  0.4952480000000 1.0
C      1  0.5779940000000  0.4736160000000  0.5233850000000 1.0
C      1  0.5890810000000  0.5032380000000  0.5329090000000 1.0
C      1  0.5899790000000  0.5250960000000  0.5166460000000 1.0
C      1  0.5789480000000  0.5335740000000  0.4876850000000 1.0
C      1  0.5038580000000  0.4387260000000  0.4296590000000 1.0
C      1  0.5069430000000  0.4084470000000  0.5044900000000 1.0
C      1  0.5084210000000  0.4487890000000  0.5730130000000 1.0
C      1  0.5021920000000  0.5237980000000  0.5822520000000 1.0
C      1  0.5060370000000  0.5850840000000  0.5340700000000 1.0
C      1  0.5079080000000  0.5816260000000  0.4523530000000 1.0
C      1  0.5047350000000  0.5142220000000  0.4123900000000 1.0
C      1  0.4934520000000  0.5391000000000  0.4699910000000 1.0
C      1  0.5068070000000  0.5123920000000  0.4636130000000 1.0
C      1  0.4924650000000  0.4668640000000  0.4865130000000 1.0
C      1  0.5055940000000  0.4625700000000  0.5117770000000 1.0
C      1  0.4954380000000  0.4762560000000  0.5367360000000 1.0
C      1  0.5071170000000  0.5031280000000  0.5333680000000 1.0
C      1  0.4937950000000  0.5390370000000  0.4999780000000 1.0
C      1  0.5326220000000  0.4874770000000  0.5903910000000 1.0
C      1  0.5297930000000  0.5601690000000  0.5673020000000 1.0
C      1  0.5350490000000  0.5837850000000  0.4931030000000 1.0
C      1  0.5324200000000  0.5524650000000  0.4220240000000 1.0
C      1  0.5343680000000  0.4751200000000  0.4190850000000 1.0
C      1  0.5298530000000  0.4149960000000  0.4630570000000 1.0
C      1  0.5377660000000  0.4290240000000  0.5400270000000 1.0
C      1  0.4368780000000  0.4261880000000  0.4953930000000 1.0
C      1  0.4382660000000  0.4560500000000  0.5492730000000 1.0
C      1  0.4390600000000  0.5035320000000  0.5687030000000 1.0
C      1  0.4388800000000  0.5643370000000  0.5317470000000 1.0
C      1  0.4396860000000  0.5668200000000  0.4703580000000 1.0
C      1  0.4376510000000  0.5261120000000  0.4388510000000 1.0
C      1  0.4375540000000  0.4593430000000  0.4417000000000 1.0
C      1  0.4520220000000  0.5047360000000  0.4236770000000 1.0
C      1  0.4501990000000  0.4329490000000  0.4434990000000 1.0
C      1  0.4525890000000  0.4149340000000  0.5178720000000 1.0
C      1  0.4540990000000  0.4585830000000  0.5736760000000 1.0
C      1  0.4494010000000  0.5307180000000  0.5706190000000 1.0
C      1  0.4526120000000  0.5862270000000  0.5183040000000 1.0
C      1  0.4540260000000  0.5709650000000  0.4456390000000 1.0
C      1  0.4500720000000  0.5570190000000  0.5578130000000 1.0
C      1  0.4543220000000  0.5843420000000  0.4891540000000 1.0
C      1  0.4533830000000  0.5483550000000  0.4275280000000 1.0
C      1  0.4512980000000  0.4755540000000  0.4213000000000 1.0
C      1  0.4519280000000  0.4210180000000  0.4700950000000 1.0
C      1  0.4544980000000  0.4318570000000  0.5415130000000 1.0
C      1  0.4536460000000  0.4848660000000  0.5861690000000 1.0
C      1  0.5340760000000  0.4629140000000  0.5046330000000 1.0
C      1  0.5481090000000  0.4843340000000  0.5211040000000 1.0
C      1  0.5359470000000  0.5123610000000  0.5359720000000 1.0
C      1  0.5409890000000  0.5353900000000  0.5185100000000 1.0
C      1  0.5491030000000  0.5276950000000  0.4927200000000 1.0
C      1  0.5334000000000  0.5038650000000  0.4601140000000 1.0
C      1  0.5455360000000  0.4827770000000  0.4752230000000 1.0
C      1  0.5553640000000  0.4942260000000  0.5739660000000 1.0
C      1  0.5542750000000  0.5527940000000  0.5542420000000 1.0
C      1  0.5563760000000  0.5656350000000  0.4848150000000 1.0
C      1  0.5551890000000  0.5399020000000  0.4352740000000 1.0
C      1  0.5566140000000  0.4715930000000  0.4373560000000 1.0
C      1  0.5537140000000  0.4288290000000  0.4721500000000 1.0
C      1  0.5591170000000  0.4495760000000  0.5405000000000 1.0
C      1  0.5063640000000  0.5410730000000  0.4149410000000 1.0
C      1  0.5062630000000  0.4630940000000  0.4180780000000 1.0
C      1  0.5054660000000  0.4110040000000  0.4772410000000 1.0
C      1  0.5101400000000  0.4324160000000  0.5517290000000 1.0
C      1  0.5055150000000  0.4988250000000  0.5917670000000 1.0
C      1  0.5041780000000  0.5704150000000  0.5575070000000 1.0
C      1  0.5090790000000  0.5881900000000  0.4787640000000 1.0
C      1  0.4386640000000  0.4677760000000  0.4702790000000 1.0
C      1  0.4325350000000  0.4517790000000  0.5079230000000 1.0
C      1  0.4388370000000  0.4856470000000  0.5452640000000 1.0
C      1  0.4310930000000  0.5173860000000  0.5208860000000 1.0
C      1  0.4396310000000  0.5439100000000  0.5102900000000 1.0
C      1  0.4378180000000  0.5368910000000  0.4686660000000 1.0
C      1  0.4395390000000  0.4954100000000  0.4634150000000 1.0
C      1  0.4648980000000  0.4606320000000  0.4848880000000 1.0
C      1  0.4535430000000  0.4697910000000  0.5090410000000 1.0
C      1  0.4649870000000  0.4888570000000  0.5305960000000 1.0
C      1  0.4674450000000  0.5180190000000  0.5346680000000 1.0
C      1  0.4684850000000  0.5376380000000  0.5140490000000 1.0
C      1  0.4652540000000  0.5286680000000  0.4724530000000 1.0
C      1  0.4668150000000  0.5024250000000  0.4642580000000 1.0
C      1  0.4810970000000  0.5028670000000  0.4230120000000 1.0
C      1  0.4795320000000  0.4297340000000  0.4409530000000 1.0
C      1  0.4821180000000  0.4119800000000  0.5182770000000 1.0
C      1  0.4856240000000  0.4639640000000  0.5682240000000 1.0
C      1  0.4788830000000  0.5295490000000  0.5645390000000 1.0
C      1  0.4821240000000  0.5892960000000  0.5190970000000 1.0
C      1  0.4852510000000  0.5657400000000  0.4478130000000 1.0
C      1  0.5494430000000  0.5110200000000  0.4362130000000 1.0
C      1  0.5531260000000  0.4456320000000  0.4469140000000 1.0
C      1  0.5496520000000  0.4363280000000  0.5003010000000 1.0
C      1  0.5566210000000  0.4656040000000  0.5637120000000 1.0
C      1  0.5487900000000  0.5215130000000  0.5627850000000 1.0
C      1  0.5518420000000  0.5614740000000  0.5265120000000 1.0
C      1  0.5548320000000  0.5613200000000  0.4565880000000 1.0
C      1  0.4842240000000  0.4266560000000  0.5414070000000 1.0
C      1  0.4829160000000  0.4833120000000  0.5881660000000 1.0
C      1  0.4791460000000  0.5579040000000  0.5621550000000 1.0
C      1  0.4837890000000  0.5885170000000  0.4915630000000 1.0
C      1  0.4826440000000  0.5520470000000  0.4236240000000 1.0
C      1  0.4808760000000  0.4763680000000  0.4174060000000 1.0
C      1  0.4808180000000  0.4181100000000  0.4661000000000 1.0
C      1  0.5325970000000  0.5742050000000  0.4410970000000 1.0
C      1  0.5315750000000  0.5029700000000  0.4137920000000 1.0
C      1  0.5292640000000  0.4293000000000  0.4387280000000 1.0
C      1  0.5335110000000  0.4161520000000  0.5142660000000 1.0
C      1  0.5332510000000  0.4598350000000  0.5816670000000 1.0
C      1  0.5282540000000  0.5348370000000  0.5802880000000 1.0
C      1  0.5322290000000  0.5837440000000  0.5215820000000 1.0
C      1  0.4164400000000  0.5021610000000  0.5082330000000 1.0
C      1  0.5475180000000  0.4995330000000  0.4971310000000 1.0
C      1  0.5008320000000  0.5125710000000  0.5072920000000 1.0
C      1  0.4931180000000  0.4948660000000  0.4820490000000 1.0
END
