TITL C-2441164-471-1341 0.0824992398246571 125000 -21578.5385784714 0 0 155 (C1) n - 1
REM
REM in /home/bkarasulu/work/CARBON/AIRSS/Generating-Clusters/ReaxFF-fromJPCA2015/Units_Real/with-SteepDescent/Higher-Symm
REM
REM
REM
REM
REM
REM ./C.cell (1df0a924f5614ab8850e4351716899ee)
REM
REM compiler GCC version 9.2.1 20190827 (Red Hat 9.2.1-1)
REM options -cpp -mtune=generic -march=x86-64 -g -O0 -fpre-include=/usr/include/finclude/math-vector-fortran.h
REM seed 547353969 2016058620 2027155273 1967868797 -1627390608 691656393 1768859409 -1005273088 -77976531 159235485 -124168868 1232661186 162918961 376628948 788830943 -663925194 -470773325 299426636 791231598 481249657 1077458291 761687145 -2023766508 -2006953686 -292909135 1350370503 511983383 1388103416 1350006624 -1387492142 1095212550 425199471 -2093415493
REM
CELL 1.54180   50.00000   50.00000   50.00000   90.00000   90.00000   90.00000
LATT -1
SFAC C  
C      1  0.5034580000000  0.4928780000000  0.4490950000000 1.0
C      1  0.5290600000000  0.4849350000000  0.4782390000000 1.0
C      1  0.5450750000000  0.4740560000000  0.5019170000000 1.0
C      1  0.5412420000000  0.4900690000000  0.5317660000000 1.0
C      1  0.5103460000000  0.4891820000000  0.5477070000000 1.0
C      1  0.4859690000000  0.4796680000000  0.5328180000000 1.0
C      1  0.4653620000000  0.4925190000000  0.5156330000000 1.0
C      1  0.4601990000000  0.4909320000000  0.4849200000000 1.0
C      1  0.4767620000000  0.4803500000000  0.4584440000000 1.0
C      1  0.5534230000000  0.5691010000000  0.4402360000000 1.0
C      1  0.5789410000000  0.5683720000000  0.4876340000000 1.0
C      1  0.5685130000000  0.5669010000000  0.5383090000000 1.0
C      1  0.5243980000000  0.5663920000000  0.5728380000000 1.0
C      1  0.4716590000000  0.5684430000000  0.5731650000000 1.0
C      1  0.4336260000000  0.5633310000000  0.5359580000000 1.0
C      1  0.4238090000000  0.5659080000000  0.4842210000000 1.0
C      1  0.4496390000000  0.5700190000000  0.4372990000000 1.0
C      1  0.5018920000000  0.5683410000000  0.4242840000000 1.0
C      1  0.4743160000000  0.4498710000000  0.4873860000000 1.0
C      1  0.4861630000000  0.4528890000000  0.4649270000000 1.0
C      1  0.5121000000000  0.4337080000000  0.4576680000000 1.0
C      1  0.5352120000000  0.4339830000000  0.4764180000000 1.0
C      1  0.5327170000000  0.4480860000000  0.5032100000000 1.0
C      1  0.5254640000000  0.4367540000000  0.5284810000000 1.0
C      1  0.5030210000000  0.4415030000000  0.5441500000000 1.0
C      1  0.4811540000000  0.4523850000000  0.5333620000000 1.0
C      1  0.4674810000000  0.4393420000000  0.5115650000000 1.0
C      1  0.4316690000000  0.4975890000000  0.4264860000000 1.0
C      1  0.4948610000000  0.4992260000000  0.3980340000000 1.0
C      1  0.5625060000000  0.4965640000000  0.4225160000000 1.0
C      1  0.6034130000000  0.4958270000000  0.4790970000000 1.0
C      1  0.5883850000000  0.4963090000000  0.5478760000000 1.0
C      1  0.5392720000000  0.4962930000000  0.5933160000000 1.0
C      1  0.4688070000000  0.4947570000000  0.5968890000000 1.0
C      1  0.4115830000000  0.4896460000000  0.5495440000000 1.0
C      1  0.3937590000000  0.4978480000000  0.4822920000000 1.0
C      1  0.4695860000000  0.5944110000000  0.5373850000000 1.0
C      1  0.4533290000000  0.5917880000000  0.5006480000000 1.0
C      1  0.4561890000000  0.5984460000000  0.4721440000000 1.0
C      1  0.4817630000000  0.5926560000000  0.4585480000000 1.0
C      1  0.5221730000000  0.5902160000000  0.4612800000000 1.0
C      1  0.5452660000000  0.5977360000000  0.4776310000000 1.0
C      1  0.5442900000000  0.5925440000000  0.5068550000000 1.0
C      1  0.5196220000000  0.5922660000000  0.5360290000000 1.0
C      1  0.4962050000000  0.6010530000000  0.5497770000000 1.0
C      1  0.4862120000000  0.5269410000000  0.3979730000000 1.0
C      1  0.5551950000000  0.5236760000000  0.4129650000000 1.0
C      1  0.6010000000000  0.5246060000000  0.4714120000000 1.0
C      1  0.5926370000000  0.5228230000000  0.5399570000000 1.0
C      1  0.5461450000000  0.5246140000000  0.5899070000000 1.0
C      1  0.4767300000000  0.5234030000000  0.5982820000000 1.0
C      1  0.4288950000000  0.5059880000000  0.5674910000000 1.0
C      1  0.4004110000000  0.5233860000000  0.4939850000000 1.0
C      1  0.4235790000000  0.5251260000000  0.4294230000000 1.0
C      1  0.5428740000000  0.4787860000000  0.4148710000000 1.0
C      1  0.5844840000000  0.4805790000000  0.4633070000000 1.0
C      1  0.5987830000000  0.4771790000000  0.5313260000000 1.0
C      1  0.5563030000000  0.4766730000000  0.5803070000000 1.0
C      1  0.4904410000000  0.4764320000000  0.5963490000000 1.0
C      1  0.4370470000000  0.4622110000000  0.5725960000000 1.0
C      1  0.3955190000000  0.4796440000000  0.5046280000000 1.0
C      1  0.4198070000000  0.4760210000000  0.4404340000000 1.0
C      1  0.4764460000000  0.4781310000000  0.4043770000000 1.0
C      1  0.5959340000000  0.4812830000000  0.5028170000000 1.0
C      1  0.5627920000000  0.4865440000000  0.5532980000000 1.0
C      1  0.5150670000000  0.4808890000000  0.5806060000000 1.0
C      1  0.4471850000000  0.4877120000000  0.5799220000000 1.0
C      1  0.4003330000000  0.4972610000000  0.5265350000000 1.0
C      1  0.4108620000000  0.4795360000000  0.4664570000000 1.0
C      1  0.4580600000000  0.4813050000000  0.4280310000000 1.0
C      1  0.5140110000000  0.4830160000000  0.4194000000000 1.0
C      1  0.5652390000000  0.4974870000000  0.4508930000000 1.0
C      1  0.4689840000000  0.5281930000000  0.4604180000000 1.0
C      1  0.4961970000000  0.5200560000000  0.4477240000000 1.0
C      1  0.5458370000000  0.5072740000000  0.4701840000000 1.0
C      1  0.5498890000000  0.5244940000000  0.4942430000000 1.0
C      1  0.5413170000000  0.5186890000000  0.5264020000000 1.0
C      1  0.5132120000000  0.5182940000000  0.5470090000000 1.0
C      1  0.4836980000000  0.5270540000000  0.5446150000000 1.0
C      1  0.4595680000000  0.5193790000000  0.5267490000000 1.0
C      1  0.4500260000000  0.5166030000000  0.4801540000000 1.0
C      1  0.5816250000000  0.5385070000000  0.4915240000000 1.0
C      1  0.5649840000000  0.5359320000000  0.5422980000000 1.0
C      1  0.5208420000000  0.5360190000000  0.5752590000000 1.0
C      1  0.4663550000000  0.5390930000000  0.5732450000000 1.0
C      1  0.4339480000000  0.5341920000000  0.5310180000000 1.0
C      1  0.4223420000000  0.5357480000000  0.4784470000000 1.0
C      1  0.4509110000000  0.5408120000000  0.4326070000000 1.0
C      1  0.5044310000000  0.5376740000000  0.4234750000000 1.0
C      1  0.5659550000000  0.5440710000000  0.4329540000000 1.0
C      1  0.4811630000000  0.4028120000000  0.4725300000000 1.0
C      1  0.5056760000000  0.4037420000000  0.4645430000000 1.0
C      1  0.5324670000000  0.4009850000000  0.4794190000000 1.0
C      1  0.5345720000000  0.4026950000000  0.5063400000000 1.0
C      1  0.5308900000000  0.4049410000000  0.5347830000000 1.0
C      1  0.5001460000000  0.3985120000000  0.5456770000000 1.0
C      1  0.4774060000000  0.3982560000000  0.5311070000000 1.0
C      1  0.4553120000000  0.4108960000000  0.5121010000000 1.0
C      1  0.4556970000000  0.4024950000000  0.4807280000000 1.0
C      1  0.4752390000000  0.5683030000000  0.5237460000000 1.0
C      1  0.4653940000000  0.5652160000000  0.5000790000000 1.0
C      1  0.4760330000000  0.5482610000000  0.4812960000000 1.0
C      1  0.4916640000000  0.5650730000000  0.4665210000000 1.0
C      1  0.5185320000000  0.5619000000000  0.4693090000000 1.0
C      1  0.5302120000000  0.5453810000000  0.4892790000000 1.0
C      1  0.5333660000000  0.5651520000000  0.5098650000000 1.0
C      1  0.5182760000000  0.5639090000000  0.5322300000000 1.0
C      1  0.4939830000000  0.5503450000000  0.5316910000000 1.0
C      1  0.4583980000000  0.5323750000000  0.4033290000000 1.0
C      1  0.5281440000000  0.5277420000000  0.4042870000000 1.0
C      1  0.5910500000000  0.5344140000000  0.4456700000000 1.0
C      1  0.6024830000000  0.5303420000000  0.5134050000000 1.0
C      1  0.5689750000000  0.5317190000000  0.5734180000000 1.0
C      1  0.5042680000000  0.5306430000000  0.6016460000000 1.0
C      1  0.4353210000000  0.5341890000000  0.5734700000000 1.0
C      1  0.4078480000000  0.5235700000000  0.5211690000000 1.0
C      1  0.4065280000000  0.5332660000000  0.4508480000000 1.0
C      1  0.4980720000000  0.4603400000000  0.4114960000000 1.0
C      1  0.5543730000000  0.4566760000000  0.4249860000000 1.0
C      1  0.5758600000000  0.4673920000000  0.4882750000000 1.0
C      1  0.5853970000000  0.4542820000000  0.5418860000000 1.0
C      1  0.5342800000000  0.4565780000000  0.5815410000000 1.0
C      1  0.4754210000000  0.4549710000000  0.5884760000000 1.0
C      1  0.4168450000000  0.4616730000000  0.5529760000000 1.0
C      1  0.4128880000000  0.4614490000000  0.4885570000000 1.0
C      1  0.4408520000000  0.4583790000000  0.4350270000000 1.0
C      1  0.4476250000000  0.4311500000000  0.4411410000000 1.0
C      1  0.4986710000000  0.4319840000000  0.4164040000000 1.0
C      1  0.5530980000000  0.4315950000000  0.4359800000000 1.0
C      1  0.5802170000000  0.4359630000000  0.4848040000000 1.0
C      1  0.5752710000000  0.4286650000000  0.5415350000000 1.0
C      1  0.5316740000000  0.4295750000000  0.5736110000000 1.0
C      1  0.4726470000000  0.4308720000000  0.5783070000000 1.0
C      1  0.4280270000000  0.4366020000000  0.5427620000000 1.0
C      1  0.4230170000000  0.4342320000000  0.4901690000000 1.0
C      1  0.4362140000000  0.5800360000000  0.4616790000000 1.0
C      1  0.4764130000000  0.5808580000000  0.4319870000000 1.0
C      1  0.5267240000000  0.5801960000000  0.4334810000000 1.0
C      1  0.5648490000000  0.5805840000000  0.4651230000000 1.0
C      1  0.5708460000000  0.5804090000000  0.5125250000000 1.0
C      1  0.5498670000000  0.5758310000000  0.5596340000000 1.0
C      1  0.4985280000000  0.5808810000000  0.5714090000000 1.0
C      1  0.4518120000000  0.5782710000000  0.5544000000000 1.0
C      1  0.4286050000000  0.5772910000000  0.5102900000000 1.0
C      1  0.5013290000000  0.4222650000000  0.5649420000000 1.0
C      1  0.4452850000000  0.4354700000000  0.5674500000000 1.0
C      1  0.4282330000000  0.4238680000000  0.5171340000000 1.0
C      1  0.4376460000000  0.4212350000000  0.4683080000000 1.0
C      1  0.4721420000000  0.4241040000000  0.4265460000000 1.0
C      1  0.5238140000000  0.4298470000000  0.4323260000000 1.0
C      1  0.5608730000000  0.4269580000000  0.4646110000000 1.0
C      1  0.5821770000000  0.4256970000000  0.5113490000000 1.0
C      1  0.5505730000000  0.4177340000000  0.5559310000000 1.0
C      1  0.4931380000000  0.5172640000000  0.5049880000000 1.0
C      1  0.5053610000000  0.4934470000000  0.4962040000000 1.0
END
