TITL C-2441168-9922-632 0.0443159387014121 125000 -10603.271324188 0 0 81 (C1) n - 1
REM
REM in /home/bkarasulu/work/CARBON/AIRSS/Generating-Clusters/ReaxFF-fromJPCA2015/Units_Real/with-SteepDescent/Higher-Symm
REM
REM
REM
REM
REM
REM ./C.cell (1df0a924f5614ab8850e4351716899ee)
REM
REM compiler GCC version 9.2.1 20190827 (Red Hat 9.2.1-1)
REM options -cpp -mtune=generic -march=x86-64 -g -O0 -fpre-include=/usr/include/finclude/math-vector-fortran.h
REM seed 2097293156 1499926572 -1422869937 1532390821 -917512526 1853259420 29678782 470544182 1813859963 -1130661145 2017039111 -346368889 -84066621 2135302673 -1547234552 1584795015 -865493921 1116732838 -1200892763 356828176 743362493 451263086 -701809679 -1050951854 1128678056 -751087594 985799281 566820937 -1724693936 1010063839 1354542340 1668414636 -794657056
REM
CELL 1.54180   50.00000   50.00000   50.00000   90.00000   90.00000   90.00000
LATT -1
SFAC C  
C      1  0.5780270000000  0.4626270000000  0.4854200000000 1.0
C      1  0.4197260000000  0.5353530000000  0.4852530000000 1.0
C      1  0.5776550000000  0.4564230000000  0.5109400000000 1.0
C      1  0.4192240000000  0.5332110000000  0.5108000000000 1.0
C      1  0.4181720000000  0.4597670000000  0.4883010000000 1.0
C      1  0.5792780000000  0.5361390000000  0.4860670000000 1.0
C      1  0.4168290000000  0.4596830000000  0.5117800000000 1.0
C      1  0.5783130000000  0.5440720000000  0.5112910000000 1.0
C      1  0.5159350000000  0.5615110000000  0.5387480000000 1.0
C      1  0.4837590000000  0.4378010000000  0.5455460000000 1.0
C      1  0.5136300000000  0.5632960000000  0.4588390000000 1.0
C      1  0.4843890000000  0.4368560000000  0.4541940000000 1.0
C      1  0.4868240000000  0.5624560000000  0.5403540000000 1.0
C      1  0.5120820000000  0.4364380000000  0.5471870000000 1.0
C      1  0.4849310000000  0.5631740000000  0.4593480000000 1.0
C      1  0.5127690000000  0.4361830000000  0.4521080000000 1.0
C      1  0.5283650000000  0.4588800000000  0.4422160000000 1.0
C      1  0.4706820000000  0.5443940000000  0.4417990000000 1.0
C      1  0.5309850000000  0.4555550000000  0.5583460000000 1.0
C      1  0.4703440000000  0.5446280000000  0.5564910000000 1.0
C      1  0.4689320000000  0.4570990000000  0.4410070000000 1.0
C      1  0.5294660000000  0.5423440000000  0.4443520000000 1.0
C      1  0.4672040000000  0.4559260000000  0.5586350000000 1.0
C      1  0.5312870000000  0.5452420000000  0.5591710000000 1.0
C      1  0.4717280000000  0.4793960000000  0.4233180000000 1.0
C      1  0.5310210000000  0.5209960000000  0.4237340000000 1.0
C      1  0.4695680000000  0.4802480000000  0.5735670000000 1.0
C      1  0.5307240000000  0.5193020000000  0.5740440000000 1.0
C      1  0.5308100000000  0.4800170000000  0.4227320000000 1.0
C      1  0.4721790000000  0.5206580000000  0.4234690000000 1.0
C      1  0.5296980000000  0.4782630000000  0.5767250000000 1.0
C      1  0.4713770000000  0.5215810000000  0.5736640000000 1.0
C      1  0.5722380000000  0.4767510000000  0.5290390000000 1.0
C      1  0.4323860000000  0.5195100000000  0.5305750000000 1.0
C      1  0.5690240000000  0.4826240000000  0.4671090000000 1.0
C      1  0.4348980000000  0.5201370000000  0.4670980000000 1.0
C      1  0.4309140000000  0.4800670000000  0.5259320000000 1.0
C      1  0.5714310000000  0.5248020000000  0.5299830000000 1.0
C      1  0.4329210000000  0.4795670000000  0.4745610000000 1.0
C      1  0.5701050000000  0.5165840000000  0.4674170000000 1.0
C      1  0.5246480000000  0.5695930000000  0.4865130000000 1.0
C      1  0.4716010000000  0.4433830000000  0.4798130000000 1.0
C      1  0.5247760000000  0.5535250000000  0.5120620000000 1.0
C      1  0.4715010000000  0.4443490000000  0.5197070000000 1.0
C      1  0.4780660000000  0.5575950000000  0.4895360000000 1.0
C      1  0.5205250000000  0.4420400000000  0.4789010000000 1.0
C      1  0.4678200000000  0.5604850000000  0.5183470000000 1.0
C      1  0.5202460000000  0.4422780000000  0.5205130000000 1.0
C      1  0.5530120000000  0.4604850000000  0.5415830000000 1.0
C      1  0.4515430000000  0.5415160000000  0.5345330000000 1.0
C      1  0.5508260000000  0.4650040000000  0.4577800000000 1.0
C      1  0.4486080000000  0.5428240000000  0.4594560000000 1.0
C      1  0.4505890000000  0.4585150000000  0.5351750000000 1.0
C      1  0.5529260000000  0.5427370000000  0.5418420000000 1.0
C      1  0.4514150000000  0.4583220000000  0.4642420000000 1.0
C      1  0.5522100000000  0.5337430000000  0.4574140000000 1.0
C      1  0.5361880000000  0.4995460000000  0.4433640000000 1.0
C      1  0.4556320000000  0.5000900000000  0.4374550000000 1.0
C      1  0.5393920000000  0.4974000000000  0.5562010000000 1.0
C      1  0.4565900000000  0.5019430000000  0.5571690000000 1.0
C      1  0.4923090000000  0.5316790000000  0.4882850000000 1.0
C      1  0.4958370000000  0.4612390000000  0.4843710000000 1.0
C      1  0.4966750000000  0.4620450000000  0.5144910000000 1.0
C      1  0.5077780000000  0.5305440000000  0.5119960000000 1.0
C      1  0.4728370000000  0.5035720000000  0.5326400000000 1.0
C      1  0.5262130000000  0.4972720000000  0.5285740000000 1.0
C      1  0.4677050000000  0.5034450000000  0.4637460000000 1.0
C      1  0.5254170000000  0.4997680000000  0.4715620000000 1.0
C      1  0.5158350000000  0.5003460000000  0.4090700000000 1.0
C      1  0.5149690000000  0.4996410000000  0.5886470000000 1.0
C      1  0.5639150000000  0.5007620000000  0.5119710000000 1.0
C      1  0.4391470000000  0.4933900000000  0.5004900000000 1.0
C      1  0.5005960000000  0.5827850000000  0.4948250000000 1.0
C      1  0.5172070000000  0.4206870000000  0.4998860000000 1.0
C      1  0.4963430000000  0.5109870000000  0.4681940000000 1.0
C      1  0.5007790000000  0.5104560000000  0.5323110000000 1.0
C      1  0.5374140000000  0.4989910000000  0.4995760000000 1.0
C      1  0.4669920000000  0.5010580000000  0.5045510000000 1.0
C      1  0.4887200000000  0.5001430000000  0.5821880000000 1.0
C      1  0.4898880000000  0.4998830000000  0.4160890000000 1.0
C      1  0.4915230000000  0.4859090000000  0.4993110000000 1.0
END
