TITL C-2441166-8118-1333 0.050899641419078 125000 -23962.8902625793 0 0 168 (C1) n - 1
REM
REM in /home/bkarasulu/work/CARBON/AIRSS/Generating-Clusters/ReaxFF-fromJPCA2015/Units_Real/with-SteepDescent/Higher-Symm
REM
REM
REM
REM
REM
REM ./C.cell (1df0a924f5614ab8850e4351716899ee)
REM
REM compiler GCC version 9.2.1 20190827 (Red Hat 9.2.1-1)
REM options -cpp -mtune=generic -march=x86-64 -g -O0 -fpre-include=/usr/include/finclude/math-vector-fortran.h
REM seed 1962304223 -1042934067 1570354984 1408259955 -493877840 123775058 -1508144205 -1061657085 -1122587287 -147309968 471588111 -1579352159 951506714 118872726 1848912141 657509804 -1029198003 -1418335471 722391280 -1429599837 1696482508 -1848885178 -332185403 -791728874 1668035246 -944265015 -1706753138 606073033 -1042765696 584262935 -193547217 747041006 1740758251
REM
CELL 1.54180   50.00000   50.00000   50.00000   90.00000   90.00000   90.00000
LATT -1
SFAC C  
C      1  0.4306260000000  0.4319540000000  0.5432560000000 1.0
C      1  0.4491630000000  0.5279880000000  0.5032960000000 1.0
C      1  0.4571620000000  0.5358800000000  0.4099260000000 1.0
C      1  0.5187420000000  0.5131960000000  0.5295950000000 1.0
C      1  0.5415980000000  0.4879850000000  0.4909830000000 1.0
C      1  0.5514450000000  0.4652690000000  0.5802530000000 1.0
C      1  0.4638850000000  0.4554480000000  0.4174170000000 1.0
C      1  0.4810850000000  0.4123220000000  0.5663780000000 1.0
C      1  0.5233290000000  0.5810980000000  0.5801490000000 1.0
C      1  0.4391850000000  0.4704540000000  0.4216890000000 1.0
C      1  0.5283950000000  0.6038820000000  0.5371910000000 1.0
C      1  0.4540400000000  0.4447860000000  0.4936260000000 1.0
C      1  0.5951240000000  0.4798720000000  0.4767550000000 1.0
C      1  0.4585420000000  0.5259710000000  0.5319830000000 1.0
C      1  0.4584180000000  0.6007700000000  0.5100320000000 1.0
C      1  0.5100390000000  0.4527050000000  0.5645230000000 1.0
C      1  0.5677740000000  0.5782500000000  0.5162560000000 1.0
C      1  0.4729400000000  0.5149260000000  0.4630900000000 1.0
C      1  0.4780640000000  0.3897280000000  0.4947500000000 1.0
C      1  0.4059410000000  0.4378100000000  0.4936090000000 1.0
C      1  0.4610130000000  0.4320910000000  0.4325310000000 1.0
C      1  0.5442970000000  0.5396650000000  0.3989020000000 1.0
C      1  0.5574180000000  0.5425680000000  0.5852760000000 1.0
C      1  0.5484770000000  0.5162750000000  0.5953320000000 1.0
C      1  0.4002350000000  0.4667790000000  0.4954950000000 1.0
C      1  0.4754740000000  0.4574170000000  0.5088700000000 1.0
C      1  0.5324040000000  0.5977090000000  0.4880020000000 1.0
C      1  0.4971100000000  0.5858950000000  0.5688670000000 1.0
C      1  0.5536060000000  0.5309840000000  0.5020130000000 1.0
C      1  0.4863510000000  0.4958880000000  0.4489820000000 1.0
C      1  0.5231900000000  0.5274600000000  0.6065790000000 1.0
C      1  0.5908540000000  0.5086660000000  0.4770570000000 1.0
C      1  0.4955940000000  0.5170710000000  0.6091670000000 1.0
C      1  0.5050380000000  0.5043790000000  0.4298650000000 1.0
C      1  0.4994790000000  0.4070430000000  0.4639600000000 1.0
C      1  0.4534470000000  0.3964470000000  0.5061500000000 1.0
C      1  0.4999920000000  0.4902180000000  0.6093210000000 1.0
C      1  0.5438880000000  0.4277510000000  0.5463310000000 1.0
C      1  0.5663130000000  0.4680520000000  0.4302140000000 1.0
C      1  0.5292780000000  0.5536070000000  0.5914280000000 1.0
C      1  0.5012010000000  0.4530170000000  0.4402900000000 1.0
C      1  0.5164390000000  0.5627790000000  0.5148630000000 1.0
C      1  0.5319250000000  0.5746470000000  0.4620970000000 1.0
C      1  0.4343270000000  0.4989930000000  0.4189020000000 1.0
C      1  0.4070220000000  0.4971470000000  0.5608700000000 1.0
C      1  0.4911070000000  0.5858050000000  0.4344740000000 1.0
C      1  0.5584420000000  0.5682940000000  0.4544740000000 1.0
C      1  0.4481690000000  0.5467900000000  0.4600600000000 1.0
C      1  0.5753990000000  0.4192490000000  0.4796800000000 1.0
C      1  0.5655110000000  0.4430810000000  0.4645520000000 1.0
C      1  0.4855090000000  0.5593870000000  0.5665450000000 1.0
C      1  0.5451640000000  0.5979780000000  0.5132480000000 1.0
C      1  0.4252790000000  0.5703470000000  0.5319750000000 1.0
C      1  0.4827360000000  0.5772510000000  0.4744040000000 1.0
C      1  0.5165570000000  0.4773960000000  0.5535230000000 1.0
C      1  0.4543440000000  0.4134030000000  0.5538440000000 1.0
C      1  0.4411800000000  0.5315140000000  0.5535190000000 1.0
C      1  0.5491670000000  0.4080700000000  0.5251630000000 1.0
C      1  0.4464840000000  0.5213000000000  0.5786280000000 1.0
C      1  0.4721470000000  0.4314440000000  0.5861270000000 1.0
C      1  0.4918280000000  0.5753560000000  0.5235440000000 1.0
C      1  0.5857440000000  0.4804540000000  0.4479290000000 1.0
C      1  0.5381950000000  0.5834420000000  0.5554520000000 1.0
C      1  0.4101110000000  0.5115520000000  0.4650140000000 1.0
C      1  0.4394960000000  0.5895960000000  0.4631200000000 1.0
C      1  0.4192300000000  0.5276050000000  0.4959260000000 1.0
C      1  0.5417250000000  0.5207900000000  0.4557080000000 1.0
C      1  0.4976770000000  0.4474030000000  0.4889740000000 1.0
C      1  0.5613170000000  0.5118280000000  0.5530990000000 1.0
C      1  0.5859580000000  0.4839150000000  0.5263320000000 1.0
C      1  0.4699100000000  0.5517910000000  0.4804740000000 1.0
C      1  0.5191910000000  0.4033280000000  0.5229990000000 1.0
C      1  0.5260060000000  0.5492640000000  0.4100100000000 1.0
C      1  0.4771510000000  0.4403930000000  0.5303060000000 1.0
C      1  0.5773110000000  0.5491970000000  0.5643070000000 1.0
C      1  0.5232240000000  0.4696290000000  0.4541290000000 1.0
C      1  0.4826830000000  0.4526610000000  0.5546790000000 1.0
C      1  0.5899730000000  0.5540280000000  0.4781840000000 1.0
C      1  0.5265950000000  0.4091160000000  0.4554900000000 1.0
C      1  0.4419560000000  0.4757820000000  0.5618300000000 1.0
C      1  0.5586400000000  0.4408210000000  0.4361710000000 1.0
C      1  0.5804840000000  0.5539020000000  0.4495840000000 1.0
C      1  0.5826300000000  0.5641390000000  0.5369340000000 1.0
C      1  0.4849430000000  0.5415410000000  0.4081200000000 1.0
C      1  0.5701280000000  0.4205950000000  0.5087440000000 1.0
C      1  0.5135940000000  0.4951000000000  0.4895920000000 1.0
C      1  0.4248270000000  0.5640300000000  0.4620890000000 1.0
C      1  0.5297810000000  0.4446330000000  0.5257330000000 1.0
C      1  0.5424420000000  0.4573780000000  0.4776090000000 1.0
C      1  0.5034920000000  0.4849460000000  0.4682300000000 1.0
C      1  0.4711260000000  0.5599720000000  0.5401080000000 1.0
C      1  0.3995880000000  0.4842480000000  0.4715720000000 1.0
C      1  0.4360850000000  0.5951280000000  0.4912820000000 1.0
C      1  0.5894230000000  0.5088830000000  0.4480890000000 1.0
C      1  0.4337860000000  0.4380640000000  0.4491160000000 1.0
C      1  0.5657860000000  0.5572680000000  0.4958240000000 1.0
C      1  0.5452670000000  0.4859910000000  0.4131660000000 1.0
C      1  0.4612710000000  0.5039710000000  0.4900560000000 1.0
C      1  0.5552980000000  0.5181630000000  0.4116550000000 1.0
C      1  0.5034910000000  0.4632070000000  0.6066100000000 1.0
C      1  0.5092920000000  0.5409040000000  0.5669210000000 1.0
C      1  0.4078490000000  0.4744610000000  0.5225670000000 1.0
C      1  0.5328680000000  0.5329770000000  0.5467670000000 1.0
C      1  0.4172360000000  0.5768160000000  0.5045380000000 1.0
C      1  0.5119770000000  0.5957360000000  0.4517310000000 1.0
C      1  0.5348920000000  0.5606660000000  0.5368000000000 1.0
C      1  0.4517470000000  0.5820420000000  0.5333180000000 1.0
C      1  0.4796150000000  0.4956160000000  0.3943910000000 1.0
C      1  0.4977240000000  0.5155500000000  0.4045110000000 1.0
C      1  0.4457200000000  0.4817180000000  0.4806760000000 1.0
C      1  0.5309640000000  0.4965610000000  0.4399320000000 1.0
C      1  0.5853120000000  0.4439090000000  0.5158290000000 1.0
C      1  0.4850250000000  0.4501830000000  0.4647300000000 1.0
C      1  0.4763620000000  0.4887760000000  0.5105220000000 1.0
C      1  0.5244260000000  0.4426180000000  0.4970340000000 1.0
C      1  0.5339040000000  0.4711290000000  0.5346860000000 1.0
C      1  0.5353590000000  0.3874460000000  0.4725250000000 1.0
C      1  0.5606010000000  0.3958530000000  0.4750490000000 1.0
C      1  0.5070600000000  0.4283760000000  0.4247620000000 1.0
C      1  0.4676420000000  0.5900490000000  0.4535020000000 1.0
C      1  0.4064120000000  0.5256410000000  0.5233150000000 1.0
C      1  0.4993080000000  0.5004920000000  0.5488250000000 1.0
C      1  0.5349250000000  0.4232360000000  0.4310510000000 1.0
C      1  0.5883500000000  0.5259710000000  0.5512390000000 1.0
C      1  0.4952430000000  0.5182970000000  0.5692420000000 1.0
C      1  0.4759120000000  0.4594280000000  0.5934880000000 1.0
C      1  0.4692600000000  0.4729210000000  0.5670840000000 1.0
C      1  0.5194010000000  0.4732880000000  0.4048300000000 1.0
C      1  0.5655200000000  0.5046840000000  0.5261210000000 1.0
C      1  0.4402210000000  0.5390720000000  0.4332490000000 1.0
C      1  0.4222080000000  0.4247160000000  0.4729560000000 1.0
C      1  0.4834610000000  0.6093160000000  0.4977150000000 1.0
C      1  0.3969590000000  0.5000020000000  0.5346010000000 1.0
C      1  0.5996290000000  0.5331050000000  0.4961760000000 1.0
C      1  0.5254730000000  0.4535050000000  0.5890770000000 1.0
C      1  0.5625340000000  0.4476880000000  0.5596370000000 1.0
C      1  0.5062300000000  0.4085390000000  0.5467070000000 1.0
C      1  0.4670190000000  0.4131460000000  0.5274040000000 1.0
C      1  0.5198660000000  0.5418370000000  0.4648460000000 1.0
C      1  0.4289860000000  0.4969730000000  0.5784260000000 1.0
C      1  0.4474580000000  0.4171260000000  0.4859590000000 1.0
C      1  0.5017470000000  0.5613520000000  0.4201520000000 1.0
C      1  0.4565300000000  0.4578990000000  0.4685020000000 1.0
C      1  0.5004800000000  0.5969890000000  0.5415270000000 1.0
C      1  0.5948560000000  0.5397010000000  0.5251020000000 1.0
C      1  0.5684710000000  0.5267050000000  0.4378480000000 1.0
C      1  0.4845400000000  0.4150780000000  0.4389060000000 1.0
C      1  0.4906510000000  0.5367240000000  0.4652070000000 1.0
C      1  0.5413020000000  0.4932430000000  0.5198250000000 1.0
C      1  0.5071830000000  0.6098760000000  0.4796080000000 1.0
C      1  0.4223890000000  0.5170990000000  0.4383130000000 1.0
C      1  0.4543420000000  0.5091080000000  0.4009460000000 1.0
C      1  0.5820150000000  0.4583190000000  0.5411020000000 1.0
C      1  0.5574260000000  0.5113530000000  0.4798160000000 1.0
C      1  0.4184810000000  0.5436990000000  0.5424730000000 1.0
C      1  0.4908300000000  0.4698390000000  0.4040230000000 1.0
C      1  0.4252490000000  0.4853030000000  0.4622460000000 1.0
C      1  0.4283180000000  0.4612190000000  0.5399500000000 1.0
C      1  0.4116350000000  0.5551640000000  0.4865780000000 1.0
C      1  0.4720770000000  0.4992380000000  0.5366030000000 1.0
C      1  0.5046670000000  0.5172150000000  0.5051900000000 1.0
C      1  0.5058300000000  0.3940340000000  0.4924070000000 1.0
C      1  0.5910600000000  0.4687570000000  0.5023110000000 1.0
C      1  0.4208790000000  0.4636580000000  0.4427730000000 1.0
C      1  0.5556960000000  0.4943360000000  0.5774950000000 1.0
C      1  0.4739320000000  0.5246400000000  0.5868870000000 1.0
C      1  0.4123950000000  0.4263920000000  0.5211110000000 1.0
C      1  0.5226430000000  0.5394280000000  0.4962330000000 1.0
END
