TITL C-2441167-4473-341 0.132172728781249 125000 -21958.7863979816 0 0 172 (C1) n - 1
REM
REM in /home/bkarasulu/work/CARBON/AIRSS/Generating-Clusters/ReaxFF-fromJPCA2015/Units_Real/with-SteepDescent/Higher-Symm
REM
REM
REM
REM
REM
REM ./C.cell (1df0a924f5614ab8850e4351716899ee)
REM
REM compiler GCC version 9.2.1 20190827 (Red Hat 9.2.1-1)
REM options -cpp -mtune=generic -march=x86-64 -g -O0 -fpre-include=/usr/include/finclude/math-vector-fortran.h
REM seed -1792124523 -2079921033 868118109 1365552155 1173333329 322891630 1408056461 1705598748 -1200616899 709417043 -188844812 -138244134 -1498680796 1605414604 972514308 86118525 -1490535316 569643519 -2048212626 -1025240017 -658089220 24072203 -543078395 -1249179348 -1311184382 -1196356077 1613400668 1655813904 308789797 2017693179 968082827 1067189290 949360881
REM
CELL 1.54180   50.00000   50.00000   50.00000   90.00000   90.00000   90.00000
LATT -1
SFAC C  
C      1  0.4672640000000  0.4798410000000  0.5004310000000 1.0
C      1  0.5002020000000  0.4618880000000  0.4849030000000 1.0
C      1  0.4874840000000  0.4945320000000  0.4662240000000 1.0
C      1  0.5375560000000  0.4867640000000  0.4999340000000 1.0
C      1  0.4691910000000  0.5097550000000  0.5017070000000 1.0
C      1  0.5296310000000  0.5151620000000  0.4959210000000 1.0
C      1  0.5052340000000  0.4684090000000  0.5125230000000 1.0
C      1  0.5074270000000  0.5391550000000  0.5230190000000 1.0
C      1  0.5012400000000  0.5304230000000  0.4805750000000 1.0
C      1  0.5159600000000  0.5010740000000  0.5350630000000 1.0
C      1  0.4870180000000  0.5017060000000  0.5311290000000 1.0
C      1  0.5153050000000  0.4975630000000  0.4621930000000 1.0
C      1  0.5756760000000  0.4469220000000  0.5471570000000 1.0
C      1  0.5469200000000  0.5769430000000  0.4501260000000 1.0
C      1  0.4490190000000  0.5479630000000  0.5739300000000 1.0
C      1  0.4257310000000  0.4468680000000  0.4523020000000 1.0
C      1  0.5763930000000  0.5507470000000  0.4524650000000 1.0
C      1  0.4251510000000  0.5479220000000  0.5491810000000 1.0
C      1  0.4541350000000  0.5773390000000  0.5475730000000 1.0
C      1  0.5530720000000  0.4258020000000  0.5441190000000 1.0
C      1  0.4493300000000  0.4240030000000  0.4512560000000 1.0
C      1  0.5497750000000  0.5479400000000  0.4230400000000 1.0
C      1  0.4524290000000  0.4530790000000  0.4227660000000 1.0
C      1  0.5492310000000  0.4528310000000  0.5758360000000 1.0
C      1  0.5924100000000  0.5393610000000  0.5498620000000 1.0
C      1  0.5510470000000  0.5999790000000  0.5336760000000 1.0
C      1  0.5349350000000  0.5485430000000  0.5999650000000 1.0
C      1  0.4025210000000  0.5359050000000  0.4507460000000 1.0
C      1  0.5973570000000  0.4534280000000  0.4731750000000 1.0
C      1  0.4006870000000  0.4649510000000  0.5489350000000 1.0
C      1  0.4502760000000  0.5980190000000  0.4656730000000 1.0
C      1  0.5428620000000  0.4007650000000  0.4672920000000 1.0
C      1  0.4509150000000  0.4041770000000  0.5389840000000 1.0
C      1  0.4646620000000  0.5515170000000  0.4027040000000 1.0
C      1  0.5351890000000  0.4504780000000  0.4029060000000 1.0
C      1  0.4642230000000  0.4481290000000  0.6004080000000 1.0
C      1  0.4567930000000  0.4883130000000  0.5739280000000 1.0
C      1  0.5535890000000  0.4580650000000  0.4729880000000 1.0
C      1  0.4892150000000  0.5739130000000  0.4582420000000 1.0
C      1  0.5423300000000  0.4897200000000  0.4242830000000 1.0
C      1  0.4598170000000  0.5125610000000  0.4348790000000 1.0
C      1  0.5446260000000  0.5126520000000  0.5726900000000 1.0
C      1  0.4275050000000  0.4555180000000  0.5144810000000 1.0
C      1  0.5686110000000  0.5394810000000  0.5123480000000 1.0
C      1  0.4258790000000  0.5430190000000  0.4894290000000 1.0
C      1  0.5168770000000  0.5734220000000  0.5443400000000 1.0
C      1  0.4863720000000  0.4381630000000  0.5360520000000 1.0
C      1  0.5191180000000  0.4286160000000  0.4479090000000 1.0
C      1  0.4887540000000  0.4913080000000  0.4188940000000 1.0
C      1  0.4188580000000  0.4876970000000  0.4916250000000 1.0
C      1  0.4886430000000  0.4089550000000  0.4835240000000 1.0
C      1  0.5115270000000  0.4915720000000  0.5813560000000 1.0
C      1  0.4874100000000  0.5078070000000  0.5803400000000 1.0
C      1  0.5119350000000  0.5084070000000  0.4177250000000 1.0
C      1  0.5930340000000  0.4803310000000  0.5134020000000 1.0
C      1  0.4193180000000  0.5122980000000  0.5072250000000 1.0
C      1  0.5763750000000  0.5150890000000  0.4951540000000 1.0
C      1  0.5047240000000  0.4244120000000  0.5169890000000 1.0
C      1  0.4932710000000  0.5814720000000  0.5130930000000 1.0
C      1  0.5078770000000  0.5807520000000  0.4883530000000 1.0
C      1  0.4860960000000  0.4372750000000  0.4798320000000 1.0
C      1  0.4801580000000  0.4803880000000  0.4433950000000 1.0
C      1  0.4440900000000  0.4769120000000  0.4841780000000 1.0
C      1  0.5207480000000  0.4462790000000  0.5172560000000 1.0
C      1  0.4847330000000  0.5538470000000  0.5181590000000 1.0
C      1  0.5169340000000  0.5537940000000  0.4832390000000 1.0
C      1  0.5210710000000  0.4827440000000  0.5563860000000 1.0
C      1  0.4808900000000  0.5174890000000  0.5540540000000 1.0
C      1  0.5197130000000  0.5168870000000  0.4433230000000 1.0
C      1  0.5610580000000  0.4797810000000  0.5144040000000 1.0
C      1  0.4455830000000  0.5188950000000  0.5155270000000 1.0
C      1  0.5527780000000  0.5185160000000  0.4801650000000 1.0
C      1  0.5061970000000  0.4472520000000  0.4068890000000 1.0
C      1  0.4087030000000  0.5073530000000  0.4469660000000 1.0
C      1  0.4470720000000  0.4082750000000  0.5105540000000 1.0
C      1  0.4923930000000  0.4463220000000  0.5907490000000 1.0
C      1  0.5067480000000  0.5535170000000  0.5916490000000 1.0
C      1  0.4934970000000  0.5545810000000  0.4089130000000 1.0
C      1  0.5891950000000  0.5103990000000  0.5540480000000 1.0
C      1  0.4077980000000  0.4934760000000  0.5534760000000 1.0
C      1  0.5849450000000  0.4872800000000  0.4508510000000 1.0
C      1  0.5487840000000  0.4082530000000  0.4936730000000 1.0
C      1  0.4473140000000  0.5903730000000  0.4938650000000 1.0
C      1  0.5540320000000  0.5917680000000  0.5051340000000 1.0
C      1  0.4704260000000  0.5246160000000  0.3915620000000 1.0
C      1  0.3895590000000  0.4723900000000  0.5222280000000 1.0
C      1  0.5137350000000  0.3942510000000  0.4748310000000 1.0
C      1  0.5271820000000  0.5219860000000  0.6105030000000 1.0
C      1  0.4706610000000  0.4765610000000  0.6108120000000 1.0
C      1  0.5291870000000  0.4767550000000  0.3881800000000 1.0
C      1  0.6066690000000  0.4784880000000  0.4856150000000 1.0
C      1  0.3891950000000  0.5295500000000  0.4769050000000 1.0
C      1  0.6079110000000  0.5335790000000  0.5248540000000 1.0
C      1  0.4783830000000  0.3947870000000  0.5348490000000 1.0
C      1  0.5239870000000  0.6108530000000  0.5273010000000 1.0
C      1  0.4766230000000  0.6108140000000  0.4718540000000 1.0
C      1  0.5637090000000  0.4983860000000  0.5570000000000 1.0
C      1  0.5553960000000  0.5628240000000  0.4999880000000 1.0
C      1  0.5009850000000  0.5588070000000  0.5635910000000 1.0
C      1  0.4372290000000  0.4991600000000  0.4462140000000 1.0
C      1  0.5627520000000  0.5024290000000  0.4401680000000 1.0
C      1  0.4373500000000  0.4979370000000  0.5551940000000 1.0
C      1  0.4452270000000  0.5614430000000  0.4998700000000 1.0
C      1  0.5604420000000  0.4385890000000  0.4946440000000 1.0
C      1  0.4427380000000  0.4350710000000  0.5007980000000 1.0
C      1  0.4990860000000  0.5563040000000  0.4379570000000 1.0
C      1  0.5026340000000  0.4480710000000  0.4355690000000 1.0
C      1  0.4995430000000  0.4411480000000  0.5623690000000 1.0
C      1  0.4732840000000  0.3963380000000  0.5046880000000 1.0
C      1  0.5009900000000  0.4742390000000  0.3973790000000 1.0
C      1  0.3985710000000  0.5012310000000  0.4738100000000 1.0
C      1  0.5226790000000  0.4033060000000  0.5038430000000 1.0
C      1  0.4742390000000  0.6005370000000  0.4999680000000 1.0
C      1  0.5273180000000  0.6023620000000  0.4995410000000 1.0
C      1  0.4983450000000  0.4728870000000  0.6009370000000 1.0
C      1  0.4997060000000  0.5267230000000  0.6014900000000 1.0
C      1  0.4989160000000  0.5279130000000  0.3978900000000 1.0
C      1  0.6039330000000  0.5046620000000  0.5300360000000 1.0
C      1  0.3977510000000  0.5000140000000  0.5268970000000 1.0
C      1  0.5943220000000  0.5020650000000  0.4751630000000 1.0
C      1  0.4260810000000  0.4511040000000  0.5435790000000 1.0
C      1  0.5486670000000  0.4244050000000  0.4480860000000 1.0
C      1  0.4440990000000  0.5602520000000  0.4223490000000 1.0
C      1  0.5746750000000  0.4586220000000  0.4535760000000 1.0
C      1  0.4276940000000  0.5508940000000  0.4452440000000 1.0
C      1  0.5684940000000  0.5561500000000  0.5575200000000 1.0
C      1  0.4391350000000  0.4270350000000  0.5562480000000 1.0
C      1  0.5476120000000  0.5745860000000  0.5477750000000 1.0
C      1  0.4413920000000  0.5769580000000  0.4464940000000 1.0
C      1  0.5511180000000  0.5417910000000  0.5760700000000 1.0
C      1  0.4505100000000  0.4380840000000  0.5781190000000 1.0
C      1  0.5509700000000  0.4418340000000  0.4259800000000 1.0
C      1  0.4518400000000  0.5067290000000  0.4074550000000 1.0
C      1  0.4004030000000  0.4522840000000  0.5016960000000 1.0
C      1  0.5011450000000  0.4055300000000  0.4459850000000 1.0
C      1  0.5471590000000  0.5016680000000  0.6003020000000 1.0
C      1  0.4507430000000  0.4966420000000  0.6006800000000 1.0
C      1  0.5489530000000  0.4976640000000  0.3976270000000 1.0
C      1  0.5914520000000  0.4389140000000  0.4977570000000 1.0
C      1  0.3993480000000  0.5494410000000  0.4981640000000 1.0
C      1  0.5955350000000  0.5508540000000  0.5038050000000 1.0
C      1  0.5020440000000  0.4024770000000  0.5505040000000 1.0
C      1  0.5044110000000  0.5997760000000  0.5475350000000 1.0
C      1  0.4966770000000  0.6008640000000  0.4509470000000 1.0
C      1  0.5502600000000  0.4753770000000  0.5909030000000 1.0
C      1  0.5900640000000  0.5528890000000  0.4760330000000 1.0
C      1  0.4772520000000  0.5917660000000  0.5497530000000 1.0
C      1  0.4495770000000  0.4783430000000  0.4114760000000 1.0
C      1  0.5519640000000  0.5253080000000  0.4067240000000 1.0
C      1  0.4479110000000  0.5248890000000  0.5909680000000 1.0
C      1  0.4092660000000  0.5521030000000  0.5257710000000 1.0
C      1  0.5932420000000  0.4507000000000  0.5238470000000 1.0
C      1  0.4099980000000  0.4478190000000  0.4756240000000 1.0
C      1  0.5240230000000  0.5927320000000  0.4481120000000 1.0
C      1  0.4747970000000  0.4131320000000  0.4457720000000 1.0
C      1  0.5279520000000  0.4117710000000  0.5503920000000 1.0
C      1  0.5255860000000  0.4546220000000  0.5589830000000 1.0
C      1  0.5596370000000  0.5268400000000  0.4555890000000 1.0
C      1  0.4565270000000  0.5579230000000  0.5260990000000 1.0
C      1  0.4755820000000  0.4540050000000  0.4404470000000 1.0
C      1  0.5263600000000  0.5438390000000  0.4408180000000 1.0
C      1  0.4755700000000  0.5450790000000  0.5590820000000 1.0
C      1  0.4416460000000  0.5243580000000  0.5421690000000 1.0
C      1  0.5603320000000  0.4732830000000  0.5426500000000 1.0
C      1  0.4417900000000  0.4719380000000  0.4565850000000 1.0
C      1  0.5437430000000  0.5587330000000  0.4738980000000 1.0
C      1  0.4576650000000  0.4372070000000  0.4764700000000 1.0
C      1  0.5465010000000  0.4418350000000  0.5206470000000 1.0
C      1  0.4781400000000  0.4669670000000  0.5256150000000 1.0
C      1  0.4754270000000  0.5204980000000  0.4722300000000 1.0
C      1  0.5282670000000  0.4722960000000  0.4733590000000 1.0
C      1  0.5316610000000  0.5257700000000  0.5250910000000 1.0
END
