TITL C-2441169-1362-811 -2.1543872836314e-08 125000 -1910.23023351345 0 0 14 (C3h) n - 1
REM
REM in /home/bkarasulu/work/CARBON/AIRSS/Generating-Clusters/ReaxFF-fromJPCA2015/Units_Real/with-SteepDescent/Higher-Symm
REM
REM
REM
REM
REM
REM ./C.cell (1df0a924f5614ab8850e4351716899ee)
REM
REM compiler GCC version 9.2.1 20190827 (Red Hat 9.2.1-1)
REM options -cpp -mtune=generic -march=x86-64 -g -O0 -fpre-include=/usr/include/finclude/math-vector-fortran.h
REM seed 462156165 -1985553895 -1165668364 1054487687 1546891043 -1382451831 -773444292 -1656345106 1037079281 772315944 248691736 1440263140 391039029 1018727195 541618953 1263904742 2038878587 625426321 -909550034 754475530 213639971 1347034910 1937759293 26729113 -1006665519 -1040168563 231649759 -1545611782 -1957262303 -1622475074 -652743505 -1895356323 -1053409699
REM
CELL 1.54180   50.00000   50.00000   50.00000   90.00000   90.00000   90.00000
LATT -1
SFAC C  
C      1  0.4817000000000  0.5249060000000  0.4908640000000 1.0
C      1  0.4817000000000  0.4776470000000  0.4849400000000 1.0
C      1  0.4817000000000  0.4961460000000  0.5288290000000 1.0
C      1  0.5107700000000  0.5249060000000  0.4908640000000 1.0
C      1  0.5107700000000  0.4776470000000  0.4849400000000 1.0
C      1  0.5107700000000  0.4961460000000  0.5288290000000 1.0
C      1  0.4811660000000  0.5536230000000  0.5024490000000 1.0
C      1  0.4811660000000  0.4733200000000  0.4542780000000 1.0
C      1  0.4811660000000  0.4717550000000  0.5479080000000 1.0
C      1  0.5113040000000  0.5536230000000  0.5024490000000 1.0
C      1  0.5113040000000  0.4733200000000  0.4542780000000 1.0
C      1  0.5113040000000  0.4717550000000  0.5479080000000 1.0
C      1  0.4713530000000  0.4995660000000  0.5015450000000 1.0
C      1  0.5211170000000  0.4995660000000  0.5015450000000 1.0
END
