TITL C-2441162-9305-1223 0.0534972106803099 125000 -19741.3176523565 0 0 143 (C1) n - 1
REM
REM in /home/bkarasulu/work/CARBON/AIRSS/Generating-Clusters/ReaxFF-fromJPCA2015/Units_Real/with-SteepDescent/Higher-Symm
REM
REM
REM
REM
REM
REM ./C.cell (1df0a924f5614ab8850e4351716899ee)
REM
REM compiler GCC version 9.2.1 20190827 (Red Hat 9.2.1-1)
REM options -cpp -mtune=generic -march=x86-64 -g -O0 -fpre-include=/usr/include/finclude/math-vector-fortran.h
REM seed -153278249 683161641 2017175973 1780459840 -833970177 -1551562465 1463908313 -784804357 142250608 1297721043 -594415586 -487059032 133834201 -244965585 -890955118 -1019843063 155363199 552426407 1499787698 386358564 -1874175369 -1306844197 -795166003 1994823169 -1463670709 -734755001 1330401997 -2029120094 -120255984 -2020815300 -152526116 1438237835 1575819109
REM
CELL 1.54180   50.00000   50.00000   50.00000   90.00000   90.00000   90.00000
LATT -1
SFAC C  
C      1  0.4885780000000  0.5804710000000  0.5620510000000 1.0
C      1  0.4297350000000  0.5414840000000  0.5568810000000 1.0
C      1  0.4300190000000  0.4746160000000  0.5596990000000 1.0
C      1  0.4754330000000  0.4243190000000  0.5609140000000 1.0
C      1  0.5422450000000  0.4369760000000  0.5576820000000 1.0
C      1  0.5810060000000  0.4937060000000  0.5629800000000 1.0
C      1  0.5524650000000  0.5560410000000  0.5603050000000 1.0
C      1  0.5211960000000  0.4462080000000  0.4138250000000 1.0
C      1  0.5511460000000  0.4919770000000  0.4055980000000 1.0
C      1  0.5405870000000  0.5311920000000  0.4045020000000 1.0
C      1  0.4939420000000  0.5511690000000  0.4083350000000 1.0
C      1  0.4574650000000  0.5344670000000  0.4053970000000 1.0
C      1  0.4461730000000  0.4850090000000  0.4049320000000 1.0
C      1  0.4824070000000  0.4521080000000  0.4056900000000 1.0
C      1  0.4278580000000  0.5328210000000  0.5313530000000 1.0
C      1  0.4356270000000  0.4743190000000  0.5293690000000 1.0
C      1  0.4813260000000  0.4265710000000  0.5324260000000 1.0
C      1  0.5419380000000  0.4467560000000  0.5292370000000 1.0
C      1  0.5772190000000  0.4983410000000  0.5339400000000 1.0
C      1  0.5438620000000  0.5607800000000  0.5325350000000 1.0
C      1  0.4806150000000  0.5813080000000  0.5354410000000 1.0
C      1  0.5140900000000  0.4640470000000  0.5111560000000 1.0
C      1  0.5476360000000  0.4916660000000  0.5246890000000 1.0
C      1  0.5316610000000  0.5138960000000  0.5122750000000 1.0
C      1  0.5202180000000  0.5397830000000  0.5226000000000 1.0
C      1  0.4668440000000  0.5228480000000  0.5151840000000 1.0
C      1  0.4498970000000  0.4996300000000  0.5116920000000 1.0
C      1  0.4857190000000  0.4598710000000  0.5243930000000 1.0
C      1  0.5699080000000  0.4560650000000  0.5338800000000 1.0
C      1  0.5829240000000  0.5276460000000  0.5335320000000 1.0
C      1  0.5300720000000  0.5859160000000  0.5375000000000 1.0
C      1  0.4536640000000  0.5756740000000  0.5322230000000 1.0
C      1  0.4087000000000  0.5123780000000  0.5322520000000 1.0
C      1  0.4421330000000  0.4452700000000  0.5321700000000 1.0
C      1  0.5069470000000  0.4132980000000  0.5334360000000 1.0
C      1  0.4606960000000  0.4391540000000  0.4202840000000 1.0
C      1  0.5213310000000  0.4234410000000  0.4320170000000 1.0
C      1  0.5670410000000  0.4758290000000  0.4231730000000 1.0
C      1  0.5648540000000  0.5406560000000  0.4177550000000 1.0
C      1  0.5083090000000  0.5716340000000  0.4210860000000 1.0
C      1  0.4464820000000  0.5527270000000  0.4237880000000 1.0
C      1  0.4252120000000  0.4918790000000  0.4215920000000 1.0
C      1  0.5208650000000  0.5340220000000  0.5941220000000 1.0
C      1  0.4933840000000  0.5243530000000  0.5951190000000 1.0
C      1  0.4754770000000  0.5001080000000  0.5955480000000 1.0
C      1  0.4738450000000  0.4714190000000  0.5920010000000 1.0
C      1  0.5010920000000  0.4597760000000  0.5858670000000 1.0
C      1  0.5335930000000  0.4758660000000  0.5847300000000 1.0
C      1  0.5392020000000  0.5103800000000  0.5865540000000 1.0
C      1  0.4169020000000  0.5449470000000  0.5083540000000 1.0
C      1  0.4147320000000  0.4661760000000  0.5092610000000 1.0
C      1  0.4744490000000  0.4096510000000  0.5080950000000 1.0
C      1  0.5539110000000  0.4273530000000  0.5097850000000 1.0
C      1  0.5972100000000  0.4958130000000  0.5101370000000 1.0
C      1  0.5543960000000  0.5730080000000  0.5064320000000 1.0
C      1  0.4828730000000  0.5950800000000  0.5111160000000 1.0
C      1  0.5288560000000  0.4830600000000  0.5554120000000 1.0
C      1  0.5258940000000  0.5111550000000  0.5603430000000 1.0
C      1  0.5059990000000  0.5265070000000  0.5459900000000 1.0
C      1  0.4808380000000  0.5338060000000  0.5690000000000 1.0
C      1  0.4623710000000  0.5089060000000  0.5705910000000 1.0
C      1  0.4799190000000  0.4827650000000  0.5433730000000 1.0
C      1  0.5015100000000  0.4743950000000  0.5598660000000 1.0
C      1  0.5017410000000  0.4535480000000  0.4859970000000 1.0
C      1  0.5498640000000  0.4815350000000  0.4974630000000 1.0
C      1  0.5461430000000  0.5083610000000  0.4859340000000 1.0
C      1  0.5057830000000  0.5482760000000  0.4970560000000 1.0
C      1  0.4775930000000  0.5432090000000  0.4975970000000 1.0
C      1  0.4609860000000  0.4867840000000  0.4897340000000 1.0
C      1  0.4748250000000  0.4620300000000  0.4961810000000 1.0
C      1  0.4083330000000  0.5083820000000  0.4812020000000 1.0
C      1  0.4378330000000  0.4342350000000  0.4817220000000 1.0
C      1  0.5109840000000  0.4224670000000  0.4827450000000 1.0
C      1  0.5701540000000  0.4604530000000  0.4850740000000 1.0
C      1  0.5739930000000  0.5277730000000  0.4828000000000 1.0
C      1  0.5191890000000  0.5511270000000  0.4709340000000 1.0
C      1  0.4592420000000  0.5652990000000  0.4829320000000 1.0
C      1  0.5534970000000  0.5143350000000  0.4199830000000 1.0
C      1  0.5181000000000  0.5431650000000  0.4203000000000 1.0
C      1  0.4746370000000  0.5415930000000  0.4266240000000 1.0
C      1  0.4425830000000  0.5108840000000  0.4061520000000 1.0
C      1  0.4645730000000  0.4713950000000  0.4210960000000 1.0
C      1  0.5004480000000  0.4554830000000  0.4238280000000 1.0
C      1  0.5366850000000  0.4716790000000  0.4231690000000 1.0
C      1  0.5955110000000  0.4757560000000  0.4890790000000 1.0
C      1  0.5697670000000  0.5587680000000  0.4872740000000 1.0
C      1  0.5062370000000  0.5963510000000  0.4947100000000 1.0
C      1  0.4290110000000  0.5602470000000  0.4868660000000 1.0
C      1  0.4073960000000  0.4804250000000  0.4855840000000 1.0
C      1  0.4593310000000  0.4151450000000  0.4838340000000 1.0
C      1  0.5386990000000  0.4153570000000  0.4882410000000 1.0
C      1  0.5405900000000  0.5655040000000  0.4580990000000 1.0
C      1  0.4739610000000  0.5818660000000  0.4618740000000 1.0
C      1  0.4133370000000  0.5246830000000  0.4578810000000 1.0
C      1  0.4290760000000  0.4484200000000  0.4578140000000 1.0
C      1  0.5007300000000  0.4146430000000  0.4531360000000 1.0
C      1  0.5643940000000  0.4429560000000  0.4603090000000 1.0
C      1  0.5865610000000  0.5130360000000  0.4597040000000 1.0
C      1  0.4968060000000  0.5967460000000  0.4676280000000 1.0
C      1  0.4157580000000  0.5522700000000  0.4635340000000 1.0
C      1  0.4078420000000  0.4662400000000  0.4620420000000 1.0
C      1  0.4727280000000  0.4077090000000  0.4598780000000 1.0
C      1  0.5558450000000  0.4175090000000  0.4663090000000 1.0
C      1  0.5992840000000  0.4890510000000  0.4646170000000 1.0
C      1  0.5680790000000  0.5718190000000  0.4619040000000 1.0
C      1  0.4947680000000  0.5832530000000  0.4430770000000 1.0
C      1  0.4327040000000  0.5423680000000  0.4456310000000 1.0
C      1  0.4270850000000  0.4749260000000  0.4449940000000 1.0
C      1  0.4710680000000  0.4239280000000  0.4395590000000 1.0
C      1  0.5475880000000  0.4281470000000  0.4431990000000 1.0
C      1  0.5807300000000  0.4898230000000  0.4439130000000 1.0
C      1  0.5599330000000  0.5594060000000  0.4384140000000 1.0
C      1  0.5309950000000  0.5909980000000  0.5088820000000 1.0
C      1  0.4553110000000  0.5864430000000  0.5048440000000 1.0
C      1  0.3996060000000  0.5213950000000  0.5058750000000 1.0
C      1  0.4267300000000  0.4401110000000  0.5081390000000 1.0
C      1  0.5031250000000  0.4060000000000  0.5056440000000 1.0
C      1  0.5780530000000  0.4441300000000  0.5088350000000 1.0
C      1  0.5922550000000  0.5236540000000  0.5066180000000 1.0
C      1  0.5758390000000  0.4656860000000  0.5607560000000 1.0
C      1  0.5731090000000  0.5367240000000  0.5598390000000 1.0
C      1  0.5167110000000  0.5782870000000  0.5622880000000 1.0
C      1  0.4449630000000  0.5646550000000  0.5570710000000 1.0
C      1  0.4146610000000  0.4986800000000  0.5580950000000 1.0
C      1  0.4504070000000  0.4383200000000  0.5597410000000 1.0
C      1  0.5191490000000  0.4201740000000  0.5593840000000 1.0
C      1  0.4692400000000  0.5616130000000  0.5719680000000 1.0
C      1  0.4337760000000  0.5164650000000  0.5709350000000 1.0
C      1  0.4498960000000  0.4619950000000  0.5772720000000 1.0
C      1  0.4984020000000  0.4311120000000  0.5765100000000 1.0
C      1  0.5533680000000  0.4559100000000  0.5769660000000 1.0
C      1  0.5681620000000  0.5144820000000  0.5774810000000 1.0
C      1  0.5298790000000  0.5576380000000  0.5781440000000 1.0
C      1  0.4751120000000  0.5023850000000  0.4641210000000 1.0
C      1  0.4767500000000  0.4805950000000  0.4460180000000 1.0
C      1  0.5008890000000  0.4654850000000  0.4514470000000 1.0
C      1  0.5248430000000  0.4821380000000  0.4476730000000 1.0
C      1  0.5247620000000  0.5061490000000  0.4629290000000 1.0
C      1  0.5118740000000  0.5317060000000  0.4508420000000 1.0
C      1  0.4842300000000  0.5266730000000  0.4505170000000 1.0
C      1  0.5006910000000  0.5028230000000  0.4798320000000 1.0
C      1  0.5077520000000  0.4954610000000  0.5070920000000 1.0
C      1  0.4891950000000  0.5068210000000  0.5300220000000 1.0
END
