TITL C-2441168-9922-76 0.0511518427767016 125000 -16239.1643083266 0 0 119 (C1) n - 1
REM
REM in /home/bkarasulu/work/CARBON/AIRSS/Generating-Clusters/ReaxFF-fromJPCA2015/Units_Real/with-SteepDescent/Higher-Symm
REM
REM
REM
REM
REM
REM ./C.cell (1df0a924f5614ab8850e4351716899ee)
REM
REM compiler GCC version 9.2.1 20190827 (Red Hat 9.2.1-1)
REM options -cpp -mtune=generic -march=x86-64 -g -O0 -fpre-include=/usr/include/finclude/math-vector-fortran.h
REM seed -1170790381 -782882562 -1076402853 598405306 109028334 1118459211 1446945739 -364689204 -514978493 238592519 -564508166 -13505344 -730937498 686073788 1023286911 1837449898 -1950834081 1691562840 860877699 454913378 -1183709967 2069536791 -1608385300 914941831 1835760422 -1683539641 -1776092176 1472506265 -660203256 -770552224 -782028896 1155166106 1349360210
REM
CELL 1.54180   50.00000   50.00000   50.00000   90.00000   90.00000   90.00000
LATT -1
SFAC C  
C      1  0.4557360000000  0.5734830000000  0.5148180000000 1.0
C      1  0.5452000000000  0.4282190000000  0.5280380000000 1.0
C      1  0.4572120000000  0.5747510000000  0.4848660000000 1.0
C      1  0.5488140000000  0.4347030000000  0.4701030000000 1.0
C      1  0.4119380000000  0.4972640000000  0.5321840000000 1.0
C      1  0.5871150000000  0.5054290000000  0.5346780000000 1.0
C      1  0.4112340000000  0.4971260000000  0.4668270000000 1.0
C      1  0.5890250000000  0.5022390000000  0.4650920000000 1.0
C      1  0.4313610000000  0.4647090000000  0.4839680000000 1.0
C      1  0.5640980000000  0.5313280000000  0.4831050000000 1.0
C      1  0.4398860000000  0.4678550000000  0.5107910000000 1.0
C      1  0.5603460000000  0.5346800000000  0.5114400000000 1.0
C      1  0.5513090000000  0.5198460000000  0.4307020000000 1.0
C      1  0.4519240000000  0.4797830000000  0.4335060000000 1.0
C      1  0.5471760000000  0.5202480000000  0.5662750000000 1.0
C      1  0.4427070000000  0.4781560000000  0.5575800000000 1.0
C      1  0.5546550000000  0.4786710000000  0.5220690000000 1.0
C      1  0.4513200000000  0.5141950000000  0.5156570000000 1.0
C      1  0.5525030000000  0.4846980000000  0.4818490000000 1.0
C      1  0.4480120000000  0.5271640000000  0.4750230000000 1.0
C      1  0.5746270000000  0.5537750000000  0.4730490000000 1.0
C      1  0.4302560000000  0.4435610000000  0.4731810000000 1.0
C      1  0.5728140000000  0.5545850000000  0.5267890000000 1.0
C      1  0.4276780000000  0.4457010000000  0.5258480000000 1.0
C      1  0.4687520000000  0.4316780000000  0.4410370000000 1.0
C      1  0.5300270000000  0.5688330000000  0.4431890000000 1.0
C      1  0.4696680000000  0.4313510000000  0.5565590000000 1.0
C      1  0.5303810000000  0.5679700000000  0.5564370000000 1.0
C      1  0.4731830000000  0.4199540000000  0.4680580000000 1.0
C      1  0.5323220000000  0.5800180000000  0.4707010000000 1.0
C      1  0.4682600000000  0.4187270000000  0.5301270000000 1.0
C      1  0.5304810000000  0.5796000000000  0.5292900000000 1.0
C      1  0.5680180000000  0.4737750000000  0.5623580000000 1.0
C      1  0.4330390000000  0.5296950000000  0.5588990000000 1.0
C      1  0.5654730000000  0.4714970000000  0.4410160000000 1.0
C      1  0.4323220000000  0.5240370000000  0.4378000000000 1.0
C      1  0.4876130000000  0.4576090000000  0.5271220000000 1.0
C      1  0.5128450000000  0.5368020000000  0.5264520000000 1.0
C      1  0.4852470000000  0.4620310000000  0.4710260000000 1.0
C      1  0.5087550000000  0.5462630000000  0.4748720000000 1.0
C      1  0.4807020000000  0.5835630000000  0.4701150000000 1.0
C      1  0.5233870000000  0.4202550000000  0.4854720000000 1.0
C      1  0.4804770000000  0.5817180000000  0.5282860000000 1.0
C      1  0.5223250000000  0.4156020000000  0.5136930000000 1.0
C      1  0.5070370000000  0.5741120000000  0.4837870000000 1.0
C      1  0.4951870000000  0.4310180000000  0.4848570000000 1.0
C      1  0.5057400000000  0.5693580000000  0.5168610000000 1.0
C      1  0.4930060000000  0.4283610000000  0.5163150000000 1.0
C      1  0.5257570000000  0.5130670000000  0.5843490000000 1.0
C      1  0.4812690000000  0.4924030000000  0.5755410000000 1.0
C      1  0.5259650000000  0.5124490000000  0.4171560000000 1.0
C      1  0.4744640000000  0.4887530000000  0.4162490000000 1.0
C      1  0.5903280000000  0.5284330000000  0.4791100000000 1.0
C      1  0.4081850000000  0.4718760000000  0.4807540000000 1.0
C      1  0.5876960000000  0.5304850000000  0.5200250000000 1.0
C      1  0.4124280000000  0.4704310000000  0.5199110000000 1.0
C      1  0.5360740000000  0.4602110000000  0.4856200000000 1.0
C      1  0.4628060000000  0.5451080000000  0.4863120000000 1.0
C      1  0.5447170000000  0.4537890000000  0.5130680000000 1.0
C      1  0.4578000000000  0.5433610000000  0.5204920000000 1.0
C      1  0.5435740000000  0.5446240000000  0.4387290000000 1.0
C      1  0.4646750000000  0.4595470000000  0.4500940000000 1.0
C      1  0.5337430000000  0.5397970000000  0.5486440000000 1.0
C      1  0.4584110000000  0.4575140000000  0.5574730000000 1.0
C      1  0.5728960000000  0.4998260000000  0.4420310000000 1.0
C      1  0.4285750000000  0.4961860000000  0.4418740000000 1.0
C      1  0.5702090000000  0.5027090000000  0.5580370000000 1.0
C      1  0.4257060000000  0.5004540000000  0.5576390000000 1.0
C      1  0.4800380000000  0.5203010000000  0.5853420000000 1.0
C      1  0.5213610000000  0.4833790000000  0.5884320000000 1.0
C      1  0.4795210000000  0.5176520000000  0.4167050000000 1.0
C      1  0.5208320000000  0.4829720000000  0.4180900000000 1.0
C      1  0.5063920000000  0.5620610000000  0.5718310000000 1.0
C      1  0.4947030000000  0.4401820000000  0.5701310000000 1.0
C      1  0.5052700000000  0.5598940000000  0.4294310000000 1.0
C      1  0.4931060000000  0.4401950000000  0.4254010000000 1.0
C      1  0.5848960000000  0.4793120000000  0.5195920000000 1.0
C      1  0.4208540000000  0.5210290000000  0.5155940000000 1.0
C      1  0.5818340000000  0.4769330000000  0.4810610000000 1.0
C      1  0.4108920000000  0.5217960000000  0.4823110000000 1.0
C      1  0.4578060000000  0.5366740000000  0.5731050000000 1.0
C      1  0.5370040000000  0.4696740000000  0.5652700000000 1.0
C      1  0.4614170000000  0.5300600000000  0.4373990000000 1.0
C      1  0.5379750000000  0.4659440000000  0.4340030000000 1.0
C      1  0.5726550000000  0.4542160000000  0.4639260000000 1.0
C      1  0.4249820000000  0.5385860000000  0.4619310000000 1.0
C      1  0.5842550000000  0.4588570000000  0.5427200000000 1.0
C      1  0.4305110000000  0.5449280000000  0.5337160000000 1.0
C      1  0.4968650000000  0.4687960000000  0.5835300000000 1.0
C      1  0.5049220000000  0.5343230000000  0.5836510000000 1.0
C      1  0.4957590000000  0.4690380000000  0.4154490000000 1.0
C      1  0.5043220000000  0.5325490000000  0.4177220000000 1.0
C      1  0.5109010000000  0.4752350000000  0.5231850000000 1.0
C      1  0.4910200000000  0.5148040000000  0.5244990000000 1.0
C      1  0.5088860000000  0.4789800000000  0.4803690000000 1.0
C      1  0.4859100000000  0.5335420000000  0.4737820000000 1.0
C      1  0.4613170000000  0.5600650000000  0.5582520000000 1.0
C      1  0.5395910000000  0.4389040000000  0.5552660000000 1.0
C      1  0.4588980000000  0.5572850000000  0.4478490000000 1.0
C      1  0.5336800000000  0.4381760000000  0.4444570000000 1.0
C      1  0.4948280000000  0.5002680000000  0.5502780000000 1.0
C      1  0.5199290000000  0.4873590000000  0.5472950000000 1.0
C      1  0.4844380000000  0.5072970000000  0.4623740000000 1.0
C      1  0.5124620000000  0.5024070000000  0.4623500000000 1.0
C      1  0.5557310000000  0.5728940000000  0.4851190000000 1.0
C      1  0.4485810000000  0.4253300000000  0.4839920000000 1.0
C      1  0.5550050000000  0.5736480000000  0.5146270000000 1.0
C      1  0.4458090000000  0.4262680000000  0.5138670000000 1.0
C      1  0.4833740000000  0.5764680000000  0.5578200000000 1.0
C      1  0.5151940000000  0.4286440000000  0.5546780000000 1.0
C      1  0.4812900000000  0.5735230000000  0.4424080000000 1.0
C      1  0.5079250000000  0.4272760000000  0.4453560000000 1.0
C      1  0.5328150000000  0.5232400000000  0.5063740000000 1.0
C      1  0.4681330000000  0.4716500000000  0.5122160000000 1.0
C      1  0.5268050000000  0.5249500000000  0.4760710000000 1.0
C      1  0.4700550000000  0.4837090000000  0.4851820000000 1.0
C      1  0.5449330000000  0.4980010000000  0.5056090000000 1.0
C      1  0.4527400000000  0.5042660000000  0.4893190000000 1.0
C      1  0.5024410000000  0.4949940000000  0.5057630000000 1.0
END
