TITL C-2441160-1326-1047 0.082883959586933 125000 -26330.9430168264 0 0 190 (C1) n - 1
REM
REM in /home/bkarasulu/work/CARBON/AIRSS/Generating-Clusters/ReaxFF-fromJPCA2015/Units_Real/with-SteepDescent/Higher-Symm
REM
REM
REM
REM
REM
REM ./C.cell (1df0a924f5614ab8850e4351716899ee)
REM
REM compiler GCC version 9.2.1 20190827 (Red Hat 9.2.1-1)
REM options -cpp -mtune=generic -march=x86-64 -g -O0 -fpre-include=/usr/include/finclude/math-vector-fortran.h
REM seed -1706308850 -1799859541 110467366 -261264219 -1075345859 -2058872364 -461273291 -8591938 1639633703 1723141590 1257636514 1805954455 2142209184 -934592197 1347940946 -1194109774 -1286023639 -1571272330 945312359 696948571 -880597102 1087872919 -1369818357 -2037001410 2033389741 -1103720154 326909942 55508922 1221254307 -2105693340 1763850222 1812042887 1118901853
REM
CELL 1.54180   50.00000   50.00000   50.00000   90.00000   90.00000   90.00000
LATT -1
SFAC C  
C      1  0.4834180000000  0.5008650000000  0.4618830000000 1.0
C      1  0.5124460000000  0.5062820000000  0.4585540000000 1.0
C      1  0.5392690000000  0.5045430000000  0.4771960000000 1.0
C      1  0.5385990000000  0.4917250000000  0.5056790000000 1.0
C      1  0.5340690000000  0.5036150000000  0.5324160000000 1.0
C      1  0.5049060000000  0.5050440000000  0.5483360000000 1.0
C      1  0.4772030000000  0.5048890000000  0.5377050000000 1.0
C      1  0.4566330000000  0.5085740000000  0.5128560000000 1.0
C      1  0.4631850000000  0.5095000000000  0.4829680000000 1.0
C      1  0.5275790000000  0.6049770000000  0.5311800000000 1.0
C      1  0.4997630000000  0.6071000000000  0.5400240000000 1.0
C      1  0.4710580000000  0.6052670000000  0.5349280000000 1.0
C      1  0.4619980000000  0.6075990000000  0.5058710000000 1.0
C      1  0.4776850000000  0.6111530000000  0.4840080000000 1.0
C      1  0.4907090000000  0.6065030000000  0.4601480000000 1.0
C      1  0.5189700000000  0.6039230000000  0.4538060000000 1.0
C      1  0.5351070000000  0.6048900000000  0.4773130000000 1.0
C      1  0.5434730000000  0.6041860000000  0.5057470000000 1.0
C      1  0.4741770000000  0.4439980000000  0.5231040000000 1.0
C      1  0.4667070000000  0.4626330000000  0.5024810000000 1.0
C      1  0.4701770000000  0.4468970000000  0.4792070000000 1.0
C      1  0.4916150000000  0.4426410000000  0.4626010000000 1.0
C      1  0.5185160000000  0.4414710000000  0.4654080000000 1.0
C      1  0.5330000000000  0.4473420000000  0.4874230000000 1.0
C      1  0.5244820000000  0.4676650000000  0.5056310000000 1.0
C      1  0.5193900000000  0.4594320000000  0.5322820000000 1.0
C      1  0.4965340000000  0.4424430000000  0.5372280000000 1.0
C      1  0.4694220000000  0.5773540000000  0.5358340000000 1.0
C      1  0.4525160000000  0.5786260000000  0.5046090000000 1.0
C      1  0.4582340000000  0.5649200000000  0.4763030000000 1.0
C      1  0.4832510000000  0.5758230000000  0.4571840000000 1.0
C      1  0.5113930000000  0.5618040000000  0.4592030000000 1.0
C      1  0.5392120000000  0.5749520000000  0.4771210000000 1.0
C      1  0.5457570000000  0.5756230000000  0.5047060000000 1.0
C      1  0.5273060000000  0.5751230000000  0.5341800000000 1.0
C      1  0.4978960000000  0.5776820000000  0.5465340000000 1.0
C      1  0.5414040000000  0.5214290000000  0.4038610000000 1.0
C      1  0.5945650000000  0.5184090000000  0.4504000000000 1.0
C      1  0.6033450000000  0.5185240000000  0.5252940000000 1.0
C      1  0.5659030000000  0.5209500000000  0.5824670000000 1.0
C      1  0.4929590000000  0.5145520000000  0.6084210000000 1.0
C      1  0.4283310000000  0.5185760000000  0.5771180000000 1.0
C      1  0.3911700000000  0.5162510000000  0.5127120000000 1.0
C      1  0.4092890000000  0.5175670000000  0.4395230000000 1.0
C      1  0.4703490000000  0.5172760000000  0.3952840000000 1.0
C      1  0.6063910000000  0.5120620000000  0.4764110000000 1.0
C      1  0.5962660000000  0.5046690000000  0.5501790000000 1.0
C      1  0.5414310000000  0.5141070000000  0.5971400000000 1.0
C      1  0.4674670000000  0.5029610000000  0.6024620000000 1.0
C      1  0.4082230000000  0.5063100000000  0.5588090000000 1.0
C      1  0.3902200000000  0.5074920000000  0.4846650000000 1.0
C      1  0.4264550000000  0.5061030000000  0.4178510000000 1.0
C      1  0.4972450000000  0.5066180000000  0.3896170000000 1.0
C      1  0.5653340000000  0.5080010000000  0.4146290000000 1.0
C      1  0.4540120000000  0.5480690000000  0.4263400000000 1.0
C      1  0.5117400000000  0.5674260000000  0.4078830000000 1.0
C      1  0.5597850000000  0.5486100000000  0.4500300000000 1.0
C      1  0.5951350000000  0.5632980000000  0.4951390000000 1.0
C      1  0.5631340000000  0.5521250000000  0.5489300000000 1.0
C      1  0.5167240000000  0.5482010000000  0.5789940000000 1.0
C      1  0.4613740000000  0.5523980000000  0.5712990000000 1.0
C      1  0.4225030000000  0.5509000000000  0.5311040000000 1.0
C      1  0.4081700000000  0.5595690000000  0.4710580000000 1.0
C      1  0.5435050000000  0.4618620000000  0.5475630000000 1.0
C      1  0.5091290000000  0.4595320000000  0.5730560000000 1.0
C      1  0.4587090000000  0.4633220000000  0.5591670000000 1.0
C      1  0.4389920000000  0.4648540000000  0.5107930000000 1.0
C      1  0.4347920000000  0.4666770000000  0.4678650000000 1.0
C      1  0.4692410000000  0.4612390000000  0.4342520000000 1.0
C      1  0.5170490000000  0.4653680000000  0.4296490000000 1.0
C      1  0.5576370000000  0.4611710000000  0.4559210000000 1.0
C      1  0.5721480000000  0.4604520000000  0.5069290000000 1.0
C      1  0.5315710000000  0.5376200000000  0.5013510000000 1.0
C      1  0.5371130000000  0.5329350000000  0.5345010000000 1.0
C      1  0.5135170000000  0.5331420000000  0.5516780000000 1.0
C      1  0.4718750000000  0.5339490000000  0.5446260000000 1.0
C      1  0.4502870000000  0.5342160000000  0.5279330000000 1.0
C      1  0.4625870000000  0.5364780000000  0.4725510000000 1.0
C      1  0.4782650000000  0.5277090000000  0.4502390000000 1.0
C      1  0.5063250000000  0.5344760000000  0.4519970000000 1.0
C      1  0.5477420000000  0.5321970000000  0.4767460000000 1.0
C      1  0.5714220000000  0.4415140000000  0.4207660000000 1.0
C      1  0.6078130000000  0.4498630000000  0.4850230000000 1.0
C      1  0.5863430000000  0.4400140000000  0.5619730000000 1.0
C      1  0.5325000000000  0.4521110000000  0.6073740000000 1.0
C      1  0.4540270000000  0.4382230000000  0.5927970000000 1.0
C      1  0.4091980000000  0.4444430000000  0.5422620000000 1.0
C      1  0.3989930000000  0.4433910000000  0.4712260000000 1.0
C      1  0.4375900000000  0.4413280000000  0.4144950000000 1.0
C      1  0.5079300000000  0.4419320000000  0.3949340000000 1.0
C      1  0.5939310000000  0.5051100000000  0.5022390000000 1.0
C      1  0.5709850000000  0.5044840000000  0.5605970000000 1.0
C      1  0.5142480000000  0.4991490000000  0.6001430000000 1.0
C      1  0.4529020000000  0.5055210000000  0.5785520000000 1.0
C      1  0.4120520000000  0.5056510000000  0.5296910000000 1.0
C      1  0.4138320000000  0.5103100000000  0.4669880000000 1.0
C      1  0.4557890000000  0.5058210000000  0.4173590000000 1.0
C      1  0.5176190000000  0.5084300000000  0.4087300000000 1.0
C      1  0.5725960000000  0.5055210000000  0.4410600000000 1.0
C      1  0.5467480000000  0.5625040000000  0.4280330000000 1.0
C      1  0.5926870000000  0.5661620000000  0.4665760000000 1.0
C      1  0.5837490000000  0.5628510000000  0.5337390000000 1.0
C      1  0.5446960000000  0.5675180000000  0.5853350000000 1.0
C      1  0.4810260000000  0.5614430000000  0.5930550000000 1.0
C      1  0.4215750000000  0.5684310000000  0.5598060000000 1.0
C      1  0.4026670000000  0.5624770000000  0.4978100000000 1.0
C      1  0.4284100000000  0.5596120000000  0.4354100000000 1.0
C      1  0.4839270000000  0.5658360000000  0.4051800000000 1.0
C      1  0.5480720000000  0.5767920000000  0.5546920000000 1.0
C      1  0.5007800000000  0.5716340000000  0.5750640000000 1.0
C      1  0.4530670000000  0.5772300000000  0.5581320000000 1.0
C      1  0.4244720000000  0.5735510000000  0.5121390000000 1.0
C      1  0.4329180000000  0.5696360000000  0.4620160000000 1.0
C      1  0.4723920000000  0.5708020000000  0.4300380000000 1.0
C      1  0.5231230000000  0.5785870000000  0.4345330000000 1.0
C      1  0.5652570000000  0.5745810000000  0.4621730000000 1.0
C      1  0.5743740000000  0.5778630000000  0.5113410000000 1.0
C      1  0.4602310000000  0.4888680000000  0.5575110000000 1.0
C      1  0.4337920000000  0.4908390000000  0.5174700000000 1.0
C      1  0.4376960000000  0.4930160000000  0.4708260000000 1.0
C      1  0.4704740000000  0.4872060000000  0.4362150000000 1.0
C      1  0.5176580000000  0.4919580000000  0.4318420000000 1.0
C      1  0.5592740000000  0.4875590000000  0.4588720000000 1.0
C      1  0.5709880000000  0.4865090000000  0.5069510000000 1.0
C      1  0.5508800000000  0.4882470000000  0.5504380000000 1.0
C      1  0.5062500000000  0.4861160000000  0.5739330000000 1.0
C      1  0.4647060000000  0.5457380000000  0.3981500000000 1.0
C      1  0.5349540000000  0.5498110000000  0.4056710000000 1.0
C      1  0.5898420000000  0.5462500000000  0.4456950000000 1.0
C      1  0.6013000000000  0.5476130000000  0.5191560000000 1.0
C      1  0.5692300000000  0.5489050000000  0.5768060000000 1.0
C      1  0.4993580000000  0.5410950000000  0.6023050000000 1.0
C      1  0.4345190000000  0.5464560000000  0.5790960000000 1.0
C      1  0.3966390000000  0.5440890000000  0.5180150000000 1.0
C      1  0.4040240000000  0.5459770000000  0.4447780000000 1.0
C      1  0.5291190000000  0.4603880000000  0.3885130000000 1.0
C      1  0.5900390000000  0.4626020000000  0.4279170000000 1.0
C      1  0.6123400000000  0.4504430000000  0.5136300000000 1.0
C      1  0.5825390000000  0.4623510000000  0.5790760000000 1.0
C      1  0.5042930000000  0.4512290000000  0.6139250000000 1.0
C      1  0.4343770000000  0.4598650000000  0.5950120000000 1.0
C      1  0.3936110000000  0.4610130000000  0.5267550000000 1.0
C      1  0.3949300000000  0.4624700000000  0.4498780000000 1.0
C      1  0.4497450000000  0.4600470000000  0.3960840000000 1.0
C      1  0.5596360000000  0.4345710000000  0.4476820000000 1.0
C      1  0.5754390000000  0.4315990000000  0.5061440000000 1.0
C      1  0.5563680000000  0.4341880000000  0.5516430000000 1.0
C      1  0.5141800000000  0.4305860000000  0.5765610000000 1.0
C      1  0.4566680000000  0.4399590000000  0.5629350000000 1.0
C      1  0.4298630000000  0.4368270000000  0.5202720000000 1.0
C      1  0.4274400000000  0.4407250000000  0.4642320000000 1.0
C      1  0.4643270000000  0.4350540000000  0.4272550000000 1.0
C      1  0.5156820000000  0.4392360000000  0.4231170000000 1.0
C      1  0.6052260000000  0.4629360000000  0.4561550000000 1.0
C      1  0.6048230000000  0.4542430000000  0.5434740000000 1.0
C      1  0.5582420000000  0.4654160000000  0.5984690000000 1.0
C      1  0.4743220000000  0.4534740000000  0.6096550000000 1.0
C      1  0.4155280000000  0.4601350000000  0.5716840000000 1.0
C      1  0.3889270000000  0.4610000000000  0.4981520000000 1.0
C      1  0.4133250000000  0.4605110000000  0.4266430000000 1.0
C      1  0.4787220000000  0.4605500000000  0.3887220000000 1.0
C      1  0.5557730000000  0.4606260000000  0.4010770000000 1.0
C      1  0.5304100000000  0.4210060000000  0.4467750000000 1.0
C      1  0.5528970000000  0.4259190000000  0.4867750000000 1.0
C      1  0.5598750000000  0.4174190000000  0.5276610000000 1.0
C      1  0.5347550000000  0.4158670000000  0.5603980000000 1.0
C      1  0.4934310000000  0.4223570000000  0.5576940000000 1.0
C      1  0.4548810000000  0.4258170000000  0.5361240000000 1.0
C      1  0.4363920000000  0.4148090000000  0.4999910000000 1.0
C      1  0.4506530000000  0.4239870000000  0.4759820000000 1.0
C      1  0.4834640000000  0.4214890000000  0.4446540000000 1.0
C      1  0.4676850000000  0.3999760000000  0.5296070000000 1.0
C      1  0.4569900000000  0.3949350000000  0.5035150000000 1.0
C      1  0.4661110000000  0.3981980000000  0.4763250000000 1.0
C      1  0.4903720000000  0.3979250000000  0.4603830000000 1.0
C      1  0.5193760000000  0.3996950000000  0.4653800000000 1.0
C      1  0.5371760000000  0.4010350000000  0.4881110000000 1.0
C      1  0.5391290000000  0.4004880000000  0.5178390000000 1.0
C      1  0.5219500000000  0.3992880000000  0.5407960000000 1.0
C      1  0.4923640000000  0.3969030000000  0.5438740000000 1.0
C      1  0.5752870000000  0.4811640000000  0.4088150000000 1.0
C      1  0.6130710000000  0.4864210000000  0.4673590000000 1.0
C      1  0.6016860000000  0.4779700000000  0.5606430000000 1.0
C      1  0.5495820000000  0.4900430000000  0.6091650000000 1.0
C      1  0.4563670000000  0.4762950000000  0.6088820000000 1.0
C      1  0.3990530000000  0.4788510000000  0.5592900000000 1.0
C      1  0.3839210000000  0.4802390000000  0.4782120000000 1.0
C      1  0.4237120000000  0.4789600000000  0.4077130000000 1.0
C      1  0.4992140000000  0.4788680000000  0.3824200000000 1.0
C      1  0.5057080000000  0.5349530000000  0.4999420000000 1.0
END
