TITL C-2441154-10-1048 0.0282375778725186 125000 -20481.4215928748 0 0 142 (C1) n - 1
REM
REM in /home/bkarasulu/work/CARBON/AIRSS/Generating-Clusters/ReaxFF-fromJPCA2015/Units_Real/with-SteepDescent/Higher-Symm
REM
REM
REM
REM
REM
REM ./C.cell (1df0a924f5614ab8850e4351716899ee)
REM
REM compiler GCC version 9.2.1 20190827 (Red Hat 9.2.1-1)
REM options -cpp -mtune=generic -march=x86-64 -g -O0 -fpre-include=/usr/include/finclude/math-vector-fortran.h
REM seed -1601609756 -1127434982 -973243763 1851422279 944973283 2011290193 -372381097 2050719369 -1694316114 -1598187496 -773159256 -933433915 -102128043 -1070607524 442832944 2112665491 -1693428645 1167531419 -1161666461 498630006 1141061507 215402759 740732868 -516716624 1830827526 850993807 20804725 -269821046 -1162030130 1736249969 -1886654097 257665946 -693969388
REM
CELL 1.54180   50.00000   50.00000   50.00000   90.00000   90.00000   90.00000
LATT -1
SFAC C  
C      1  0.4481460000000  0.4585870000000  0.5434760000000 1.0
C      1  0.5949070000000  0.5338180000000  0.5010430000000 1.0
C      1  0.4274840000000  0.5556440000000  0.4655720000000 1.0
C      1  0.5522350000000  0.4376240000000  0.5552840000000 1.0
C      1  0.5014910000000  0.4086280000000  0.5232060000000 1.0
C      1  0.4008970000000  0.5172510000000  0.4687280000000 1.0
C      1  0.4842800000000  0.5450320000000  0.5272610000000 1.0
C      1  0.5804130000000  0.5380320000000  0.4763690000000 1.0
C      1  0.5184810000000  0.4914140000000  0.4712730000000 1.0
C      1  0.5717470000000  0.4321750000000  0.4510350000000 1.0
C      1  0.5377370000000  0.4110920000000  0.4806230000000 1.0
C      1  0.5276000000000  0.4399640000000  0.5707110000000 1.0
C      1  0.5294490000000  0.5912410000000  0.5108230000000 1.0
C      1  0.4385880000000  0.5422390000000  0.4171330000000 1.0
C      1  0.5627890000000  0.5108060000000  0.5140050000000 1.0
C      1  0.5127470000000  0.3971800000000  0.4782540000000 1.0
C      1  0.5114890000000  0.5541050000000  0.5776710000000 1.0
C      1  0.4892650000000  0.4466620000000  0.4318580000000 1.0
C      1  0.5136950000000  0.4783140000000  0.5902740000000 1.0
C      1  0.4033110000000  0.4911510000000  0.5172210000000 1.0
C      1  0.5244330000000  0.5079310000000  0.5970660000000 1.0
C      1  0.5445020000000  0.4192580000000  0.4539390000000 1.0
C      1  0.5125020000000  0.4362400000000  0.5120310000000 1.0
C      1  0.5504730000000  0.5109690000000  0.5859080000000 1.0
C      1  0.4137970000000  0.5570290000000  0.4914730000000 1.0
C      1  0.5014290000000  0.4880360000000  0.3999840000000 1.0
C      1  0.5640620000000  0.4633790000000  0.5474680000000 1.0
C      1  0.5804500000000  0.5313220000000  0.4491720000000 1.0
C      1  0.4753760000000  0.5516900000000  0.4999850000000 1.0
C      1  0.5410510000000  0.5756360000000  0.5342160000000 1.0
C      1  0.5130610000000  0.5449520000000  0.5308590000000 1.0
C      1  0.4511060000000  0.4714430000000  0.4183600000000 1.0
C      1  0.4817110000000  0.4675620000000  0.4152950000000 1.0
C      1  0.5051000000000  0.4097940000000  0.4537920000000 1.0
C      1  0.4776010000000  0.5120010000000  0.5644880000000 1.0
C      1  0.5006100000000  0.5430180000000  0.4102170000000 1.0
C      1  0.5166820000000  0.4817160000000  0.5603370000000 1.0
C      1  0.5118780000000  0.5498250000000  0.4807350000000 1.0
C      1  0.4474180000000  0.5103590000000  0.5299210000000 1.0
C      1  0.4997120000000  0.4496980000000  0.4876660000000 1.0
C      1  0.4648770000000  0.5879950000000  0.4713760000000 1.0
C      1  0.4658140000000  0.5088270000000  0.4312640000000 1.0
C      1  0.5536900000000  0.5212870000000  0.4886640000000 1.0
C      1  0.5413010000000  0.4826150000000  0.5437990000000 1.0
C      1  0.4574200000000  0.5900870000000  0.5176410000000 1.0
C      1  0.4409760000000  0.5591200000000  0.5569820000000 1.0
C      1  0.4890140000000  0.5846070000000  0.5493840000000 1.0
C      1  0.3960920000000  0.5343000000000  0.4898980000000 1.0
C      1  0.5944080000000  0.4842000000000  0.4872910000000 1.0
C      1  0.4961820000000  0.4333190000000  0.5639680000000 1.0
C      1  0.5474090000000  0.5112720000000  0.5384380000000 1.0
C      1  0.5823370000000  0.5307090000000  0.5491050000000 1.0
C      1  0.4562710000000  0.5036420000000  0.5022530000000 1.0
C      1  0.5499390000000  0.5788820000000  0.4935050000000 1.0
C      1  0.4580120000000  0.4542680000000  0.4907550000000 1.0
C      1  0.4790600000000  0.5188700000000  0.5929590000000 1.0
C      1  0.4724450000000  0.4500550000000  0.5674430000000 1.0
C      1  0.4270600000000  0.4438840000000  0.4608420000000 1.0
C      1  0.4199010000000  0.4661570000000  0.4786660000000 1.0
C      1  0.5312540000000  0.4862890000000  0.4044580000000 1.0
C      1  0.4953960000000  0.4776170000000  0.4807010000000 1.0
C      1  0.5030770000000  0.5953200000000  0.4994100000000 1.0
C      1  0.5860330000000  0.4395380000000  0.4741140000000 1.0
C      1  0.4184770000000  0.5313450000000  0.4516580000000 1.0
C      1  0.4436390000000  0.5006970000000  0.4145260000000 1.0
C      1  0.4641740000000  0.4542680000000  0.5188500000000 1.0
C      1  0.4859560000000  0.4928600000000  0.5060360000000 1.0
C      1  0.4379560000000  0.5758410000000  0.5343810000000 1.0
C      1  0.4474670000000  0.4799450000000  0.4796150000000 1.0
C      1  0.5350840000000  0.4580540000000  0.4430230000000 1.0
C      1  0.5629010000000  0.5661720000000  0.5182280000000 1.0
C      1  0.4074050000000  0.5074890000000  0.5419320000000 1.0
C      1  0.4109730000000  0.4648180000000  0.5071910000000 1.0
C      1  0.5146120000000  0.5651480000000  0.4258200000000 1.0
C      1  0.5171640000000  0.5175530000000  0.5337510000000 1.0
C      1  0.4653160000000  0.5270680000000  0.4880910000000 1.0
C      1  0.4632400000000  0.4065490000000  0.4967260000000 1.0
C      1  0.5307260000000  0.5540840000000  0.5541390000000 1.0
C      1  0.4921150000000  0.4299430000000  0.4688490000000 1.0
C      1  0.5342540000000  0.5668840000000  0.4720360000000 1.0
C      1  0.4874900000000  0.5701040000000  0.5729410000000 1.0
C      1  0.5015810000000  0.5030280000000  0.5533950000000 1.0
C      1  0.4197200000000  0.5568200000000  0.5207230000000 1.0
C      1  0.4539320000000  0.5339810000000  0.5959660000000 1.0
C      1  0.4686190000000  0.5264920000000  0.5414390000000 1.0
C      1  0.4605690000000  0.5753900000000  0.4953960000000 1.0
C      1  0.5552180000000  0.5305110000000  0.5621070000000 1.0
C      1  0.4061760000000  0.5088410000000  0.4947080000000 1.0
C      1  0.4850600000000  0.4145970000000  0.5452730000000 1.0
C      1  0.5380430000000  0.4605740000000  0.5880510000000 1.0
C      1  0.4786500000000  0.5392780000000  0.4304350000000 1.0
C      1  0.4585070000000  0.5583110000000  0.5782360000000 1.0
C      1  0.5914550000000  0.5050930000000  0.5124550000000 1.0
C      1  0.5592460000000  0.4832070000000  0.5840120000000 1.0
C      1  0.5616200000000  0.4267550000000  0.5282260000000 1.0
C      1  0.5908870000000  0.5037660000000  0.5454210000000 1.0
C      1  0.4824930000000  0.5148320000000  0.4692480000000 1.0
C      1  0.5978450000000  0.4546850000000  0.4945730000000 1.0
C      1  0.4214140000000  0.5324560000000  0.5372350000000 1.0
C      1  0.4852480000000  0.5967940000000  0.5242330000000 1.0
C      1  0.4855960000000  0.4710400000000  0.5256310000000 1.0
C      1  0.4435080000000  0.4873250000000  0.5471500000000 1.0
C      1  0.4938220000000  0.5919770000000  0.4711840000000 1.0
C      1  0.5298480000000  0.4773480000000  0.5161200000000 1.0
C      1  0.4239770000000  0.4971850000000  0.5663790000000 1.0
C      1  0.5244720000000  0.4831540000000  0.4326800000000 1.0
C      1  0.5410580000000  0.4747770000000  0.4722020000000 1.0
C      1  0.4231660000000  0.4466680000000  0.5273060000000 1.0
C      1  0.4229190000000  0.5204100000000  0.4237820000000 1.0
C      1  0.4562130000000  0.5611970000000  0.4280090000000 1.0
C      1  0.5243820000000  0.5284790000000  0.4953180000000 1.0
C      1  0.5854860000000  0.4918010000000  0.4605570000000 1.0
C      1  0.5399590000000  0.5305750000000  0.4399250000000 1.0
C      1  0.4950860000000  0.5427390000000  0.4568570000000 1.0
C      1  0.5648880000000  0.5227220000000  0.4260320000000 1.0
C      1  0.5202840000000  0.4298720000000  0.4382700000000 1.0
C      1  0.4373360000000  0.4576570000000  0.4391730000000 1.0
C      1  0.5631790000000  0.4547820000000  0.4337270000000 1.0
C      1  0.5067220000000  0.5305320000000  0.5946780000000 1.0
C      1  0.4828890000000  0.4655980000000  0.5878150000000 1.0
C      1  0.5123310000000  0.5058260000000  0.5087390000000 1.0
C      1  0.4474590000000  0.5729220000000  0.4534990000000 1.0
C      1  0.4588280000000  0.4079200000000  0.5252380000000 1.0
C      1  0.4984350000000  0.5734500000000  0.4484440000000 1.0
C      1  0.5847170000000  0.5473380000000  0.5241580000000 1.0
C      1  0.5824530000000  0.4393120000000  0.5145140000000 1.0
C      1  0.5592970000000  0.4974080000000  0.4713500000000 1.0
C      1  0.4710610000000  0.4340420000000  0.4496970000000 1.0
C      1  0.5803050000000  0.4825000000000  0.5625440000000 1.0
C      1  0.4526670000000  0.4306250000000  0.4740140000000 1.0
C      1  0.5028230000000  0.5157780000000  0.4030230000000 1.0
C      1  0.4656490000000  0.4954200000000  0.4564500000000 1.0
C      1  0.5418860000000  0.4322430000000  0.5030250000000 1.0
C      1  0.4906730000000  0.3966680000000  0.4986660000000 1.0
C      1  0.5377350000000  0.5602730000000  0.4431360000000 1.0
C      1  0.5443700000000  0.4609010000000  0.4967230000000 1.0
C      1  0.5217390000000  0.5081080000000  0.4478560000000 1.0
C      1  0.4384330000000  0.5146780000000  0.5830100000000 1.0
C      1  0.4363000000000  0.4234030000000  0.5214620000000 1.0
C      1  0.5587070000000  0.4958500000000  0.4146180000000 1.0
C      1  0.5756490000000  0.4805140000000  0.4321420000000 1.0
C      1  0.5107910000000  0.4590730000000  0.5283230000000 1.0
END
