TITL C-2441157-2117-126 0.027669332315082 125000 -9283.18049860063 0 0 66 (C1) n - 1
REM
REM in /home/bkarasulu/work/CARBON/AIRSS/Generating-Clusters/ReaxFF-fromJPCA2015/Units_Real/with-SteepDescent/Higher-Symm
REM
REM
REM
REM
REM
REM ./C.cell (1df0a924f5614ab8850e4351716899ee)
REM
REM compiler GCC version 9.2.1 20190827 (Red Hat 9.2.1-1)
REM options -cpp -mtune=generic -march=x86-64 -g -O0 -fpre-include=/usr/include/finclude/math-vector-fortran.h
REM seed 1441478801 3805056 -687397541 1118997079 1007064173 78989163 348074086 1871847364 1360945354 -2098519607 -69024085 -594803848 -59735137 746619143 715013787 -837883363 -916628212 -1892590575 -262187505 -746046347 1610505969 -713513888 -964696736 239682121 -935719002 -472516677 -1726130606 2052673334 -1676110877 -1991850666 -1683530783 1055959762 -2090758679
REM
CELL 1.54180   50.00000   50.00000   50.00000   90.00000   90.00000   90.00000
LATT -1
SFAC C  
C      1  0.5289820000000  0.4363760000000  0.4887200000000 1.0
C      1  0.5534320000000  0.4537990000000  0.4896630000000 1.0
C      1  0.5748970000000  0.4920850000000  0.4872630000000 1.0
C      1  0.5575700000000  0.5441030000000  0.4899220000000 1.0
C      1  0.5381460000000  0.5650930000000  0.4872820000000 1.0
C      1  0.4837200000000  0.5710910000000  0.4895910000000 1.0
C      1  0.4566030000000  0.5616880000000  0.4870700000000 1.0
C      1  0.4255750000000  0.5155840000000  0.4868250000000 1.0
C      1  0.4272740000000  0.4869660000000  0.4897190000000 1.0
C      1  0.4588940000000  0.4362180000000  0.4878970000000 1.0
C      1  0.4875780000000  0.4306670000000  0.4897520000000 1.0
C      1  0.4986830000000  0.4501570000000  0.4294760000000 1.0
C      1  0.5244310000000  0.4621130000000  0.4277120000000 1.0
C      1  0.5410690000000  0.4803590000000  0.4292200000000 1.0
C      1  0.5522470000000  0.5051390000000  0.4353520000000 1.0
C      1  0.5357260000000  0.5265670000000  0.4323290000000 1.0
C      1  0.5177290000000  0.5466070000000  0.4351970000000 1.0
C      1  0.4906190000000  0.5417430000000  0.4319950000000 1.0
C      1  0.4652190000000  0.5357990000000  0.4368180000000 1.0
C      1  0.4518400000000  0.5096740000000  0.4373950000000 1.0
C      1  0.4617970000000  0.4848370000000  0.4334020000000 1.0
C      1  0.4706650000000  0.4602790000000  0.4372760000000 1.0
C      1  0.5512300000000  0.5010900000000  0.4679730000000 1.0
C      1  0.5395890000000  0.5248800000000  0.4787650000000 1.0
C      1  0.5216260000000  0.5458900000000  0.4692800000000 1.0
C      1  0.4942500000000  0.5469350000000  0.4784800000000 1.0
C      1  0.4674810000000  0.5394390000000  0.4692580000000 1.0
C      1  0.4503420000000  0.5133100000000  0.4689980000000 1.0
C      1  0.4532000000000  0.4863090000000  0.4784840000000 1.0
C      1  0.4652860000000  0.4613920000000  0.4687500000000 1.0
C      1  0.4920420000000  0.4576480000000  0.4787160000000 1.0
C      1  0.5177300000000  0.4573280000000  0.4709910000000 1.0
C      1  0.5396090000000  0.4749320000000  0.4753860000000 1.0
C      1  0.4774290000000  0.5464150000000  0.5555860000000 1.0
C      1  0.4559640000000  0.5269990000000  0.5529880000000 1.0
C      1  0.4486370000000  0.4989090000000  0.5554940000000 1.0
C      1  0.4575820000000  0.4713700000000  0.5527500000000 1.0
C      1  0.4797720000000  0.4529440000000  0.5557750000000 1.0
C      1  0.5086540000000  0.4498240000000  0.5556710000000 1.0
C      1  0.5347050000000  0.4622330000000  0.5555510000000 1.0
C      1  0.5497840000000  0.4869720000000  0.5547170000000 1.0
C      1  0.5491720000000  0.5158390000000  0.5541040000000 1.0
C      1  0.5328850000000  0.5399700000000  0.5553910000000 1.0
C      1  0.5061770000000  0.5509310000000  0.5533580000000 1.0
C      1  0.5780970000000  0.4990850000000  0.5152700000000 1.0
C      1  0.5657810000000  0.5434020000000  0.5175700000000 1.0
C      1  0.5333440000000  0.5708480000000  0.5155840000000 1.0
C      1  0.4876020000000  0.5774620000000  0.5174020000000 1.0
C      1  0.4493120000000  0.5599130000000  0.5156800000000 1.0
C      1  0.4257110000000  0.5201590000000  0.5158280000000 1.0
C      1  0.4232680000000  0.4771910000000  0.5166870000000 1.0
C      1  0.4508740000000  0.4384700000000  0.5157850000000 1.0
C      1  0.4898600000000  0.4223900000000  0.5184120000000 1.0
C      1  0.5320760000000  0.4296730000000  0.5172600000000 1.0
C      1  0.5652260000000  0.4573850000000  0.5163980000000 1.0
C      1  0.4401030000000  0.4600050000000  0.5315480000000 1.0
C      1  0.4707930000000  0.4330050000000  0.5355890000000 1.0
C      1  0.5114270000000  0.4275820000000  0.5357100000000 1.0
C      1  0.5480440000000  0.4449300000000  0.5349910000000 1.0
C      1  0.5697620000000  0.4795980000000  0.5338210000000 1.0
C      1  0.5690680000000  0.5202300000000  0.5325530000000 1.0
C      1  0.5474690000000  0.5557300000000  0.5348890000000 1.0
C      1  0.5101090000000  0.5711440000000  0.5319750000000 1.0
C      1  0.4692880000000  0.5658580000000  0.5348120000000 1.0
C      1  0.4390890000000  0.5387720000000  0.5315120000000 1.0
C      1  0.4278510000000  0.4986660000000  0.5343810000000 1.0
END
