TITL C-2441157-2117-1469 0.0081760421932178 125000 -8094.01044623058 0 0 62 (C1) n - 1
REM
REM in /home/bkarasulu/work/CARBON/AIRSS/Generating-Clusters/ReaxFF-fromJPCA2015/Units_Real/with-SteepDescent/Higher-Symm
REM
REM
REM
REM
REM
REM ./C.cell (1df0a924f5614ab8850e4351716899ee)
REM
REM compiler GCC version 9.2.1 20190827 (Red Hat 9.2.1-1)
REM options -cpp -mtune=generic -march=x86-64 -g -O0 -fpre-include=/usr/include/finclude/math-vector-fortran.h
REM seed 661504861 -1292707032 1340842954 262869216 143212433 -534409714 -1065312795 -220959532 1935460469 -356250356 779758679 -1381172888 -1530118996 453693338 -159466986 -153367624 -174969293 -539327852 433788760 -2044459669 -317732948 -850302998 -1454296759 268281202 1115683130 -1771923241 -1905453131 -976517525 278157759 984070928 413948639 333137267 -1468941404
REM
CELL 1.54180   50.00000   50.00000   50.00000   90.00000   90.00000   90.00000
LATT -1
SFAC C  
C      1  0.5378570000000  0.5155030000000  0.5336880000000 1.0
C      1  0.5489490000000  0.5290190000000  0.5048550000000 1.0
C      1  0.5423150000000  0.5268430000000  0.4750320000000 1.0
C      1  0.5456040000000  0.4990180000000  0.4660680000000 1.0
C      1  0.5448600000000  0.4735940000000  0.4808980000000 1.0
C      1  0.5508180000000  0.4712360000000  0.5103430000000 1.0
C      1  0.5411790000000  0.4871680000000  0.5391510000000 1.0
C      1  0.5061610000000  0.4177440000000  0.4852890000000 1.0
C      1  0.5022150000000  0.4403480000000  0.5632910000000 1.0
C      1  0.5008910000000  0.5102560000000  0.5894860000000 1.0
C      1  0.5038170000000  0.5737590000000  0.5453310000000 1.0
C      1  0.5023200000000  0.5784160000000  0.4672410000000 1.0
C      1  0.5072930000000  0.5325490000000  0.4219210000000 1.0
C      1  0.5013270000000  0.4576850000000  0.4201250000000 1.0
C      1  0.4640670000000  0.4897260000000  0.5586860000000 1.0
C      1  0.4576870000000  0.5357670000000  0.5457840000000 1.0
C      1  0.4606110000000  0.5530760000000  0.4914400000000 1.0
C      1  0.4631960000000  0.5275330000000  0.4471410000000 1.0
C      1  0.4605220000000  0.4793100000000  0.4470020000000 1.0
C      1  0.4635550000000  0.4487520000000  0.4831770000000 1.0
C      1  0.4616810000000  0.4506990000000  0.5295530000000 1.0
C      1  0.4803330000000  0.4916690000000  0.4648090000000 1.0
C      1  0.4843650000000  0.4698190000000  0.4847790000000 1.0
C      1  0.4785200000000  0.4705610000000  0.5150170000000 1.0
C      1  0.4847050000000  0.4888480000000  0.5370110000000 1.0
C      1  0.4825100000000  0.5243930000000  0.5363720000000 1.0
C      1  0.4789890000000  0.5482310000000  0.5136470000000 1.0
C      1  0.4848480000000  0.5201430000000  0.4649320000000 1.0
C      1  0.5192330000000  0.4571520000000  0.5572200000000 1.0
C      1  0.5164680000000  0.5166440000000  0.5700120000000 1.0
C      1  0.5176000000000  0.5641250000000  0.5258500000000 1.0
C      1  0.5192020000000  0.5605180000000  0.4687840000000 1.0
C      1  0.5083450000000  0.5064890000000  0.4294550000000 1.0
C      1  0.5062810000000  0.4491430000000  0.4460940000000 1.0
C      1  0.5077540000000  0.4345720000000  0.5063720000000 1.0
C      1  0.4803760000000  0.5239510000000  0.4237420000000 1.0
C      1  0.4784540000000  0.4569010000000  0.4360320000000 1.0
C      1  0.4809800000000  0.4271150000000  0.4941360000000 1.0
C      1  0.4812880000000  0.4431390000000  0.5496080000000 1.0
C      1  0.4797210000000  0.5014340000000  0.5791620000000 1.0
C      1  0.4785000000000  0.5652910000000  0.5374830000000 1.0
C      1  0.4795440000000  0.5692510000000  0.4772020000000 1.0
C      1  0.5238330000000  0.5444490000000  0.5071960000000 1.0
C      1  0.5146170000000  0.5341480000000  0.4786630000000 1.0
C      1  0.5221350000000  0.4914480000000  0.4507540000000 1.0
C      1  0.5174570000000  0.4666290000000  0.4680880000000 1.0
C      1  0.5219030000000  0.4622670000000  0.5132010000000 1.0
C      1  0.5166430000000  0.4763260000000  0.5426560000000 1.0
C      1  0.5135100000000  0.5257880000000  0.5449460000000 1.0
C      1  0.4351820000000  0.5202300000000  0.5361470000000 1.0
C      1  0.4379460000000  0.5341170000000  0.4836190000000 1.0
C      1  0.4409270000000  0.5138940000000  0.4622960000000 1.0
C      1  0.4400330000000  0.4842000000000  0.4676470000000 1.0
C      1  0.4412280000000  0.4662220000000  0.4918070000000 1.0
C      1  0.4389000000000  0.4688570000000  0.5218700000000 1.0
C      1  0.4392520000000  0.4915560000000  0.5413390000000 1.0
C      1  0.4635470000000  0.5081920000000  0.5029370000000 1.0
C      1  0.5659130000000  0.5000000000000  0.5056770000000 1.0
C      1  0.4904720000000  0.5064300000000  0.5009110000000 1.0
C      1  0.4359440000000  0.5149580000000  0.5062350000000 1.0
C      1  0.5133450000000  0.4912860000000  0.5038410000000 1.0
C      1  0.5906560000000  0.5002680000000  0.5010110000000 1.0
END
