TITL C-2441167-4473-1418 0.0588365888237844 125000 -21149.9407692095 0 0 152 (C1) n - 1
REM
REM in /home/bkarasulu/work/CARBON/AIRSS/Generating-Clusters/ReaxFF-fromJPCA2015/Units_Real/with-SteepDescent/Higher-Symm
REM
REM
REM
REM
REM
REM ./C.cell (1df0a924f5614ab8850e4351716899ee)
REM
REM compiler GCC version 9.2.1 20190827 (Red Hat 9.2.1-1)
REM options -cpp -mtune=generic -march=x86-64 -g -O0 -fpre-include=/usr/include/finclude/math-vector-fortran.h
REM seed -2125704050 275848667 803009338 -380861184 2036627175 -1273051928 -1672628038 1455413231 718397113 -1443821354 -1686588978 1336799682 293237744 -2046949178 -470959598 1396912431 1623299123 1827601177 48834016 -64765456 1739400916 -1746186581 -1540991672 -1185442304 -953535114 2080247029 -1629956196 85902024 1228894277 929540977 20124742 -392528901 -1549760005
REM
CELL 1.54180   50.00000   50.00000   50.00000   90.00000   90.00000   90.00000
LATT -1
SFAC C  
C      1  0.5945190000000  0.5351760000000  0.5029970000000 1.0
C      1  0.4378270000000  0.4498690000000  0.4525680000000 1.0
C      1  0.4747850000000  0.5845420000000  0.4565720000000 1.0
C      1  0.5090430000000  0.4505650000000  0.4634360000000 1.0
C      1  0.4717670000000  0.4235600000000  0.4612550000000 1.0
C      1  0.4235220000000  0.4735070000000  0.4435110000000 1.0
C      1  0.5670050000000  0.4396650000000  0.5498380000000 1.0
C      1  0.4921020000000  0.5494400000000  0.5119740000000 1.0
C      1  0.5692190000000  0.4889980000000  0.5043660000000 1.0
C      1  0.4726530000000  0.5317610000000  0.5873840000000 1.0
C      1  0.5736610000000  0.4856710000000  0.4443420000000 1.0
C      1  0.5624150000000  0.4908670000000  0.5693750000000 1.0
C      1  0.5481760000000  0.5369690000000  0.5831410000000 1.0
C      1  0.5134440000000  0.5251840000000  0.4259310000000 1.0
C      1  0.4657910000000  0.5634890000000  0.5452720000000 1.0
C      1  0.4163830000000  0.4286430000000  0.5106690000000 1.0
C      1  0.4363550000000  0.4783220000000  0.5015060000000 1.0
C      1  0.5631180000000  0.4412330000000  0.4652260000000 1.0
C      1  0.5831000000000  0.4609120000000  0.4557670000000 1.0
C      1  0.4725190000000  0.4827730000000  0.4656640000000 1.0
C      1  0.4104190000000  0.4896500000000  0.4626790000000 1.0
C      1  0.4994670000000  0.3940820000000  0.4793630000000 1.0
C      1  0.5003710000000  0.3942520000000  0.5310530000000 1.0
C      1  0.5487870000000  0.4842560000000  0.5939840000000 1.0
C      1  0.4470770000000  0.5082650000000  0.4311860000000 1.0
C      1  0.4616570000000  0.5901050000000  0.4815950000000 1.0
C      1  0.4116420000000  0.5258530000000  0.5452570000000 1.0
C      1  0.4964120000000  0.4778380000000  0.4520040000000 1.0
C      1  0.4769700000000  0.4327110000000  0.5497670000000 1.0
C      1  0.5803940000000  0.5321350000000  0.4484000000000 1.0
C      1  0.5179150000000  0.4640640000000  0.3941670000000 1.0
C      1  0.4459310000000  0.4901810000000  0.5258440000000 1.0
C      1  0.5325000000000  0.5529100000000  0.5379630000000 1.0
C      1  0.4610870000000  0.4388750000000  0.4394140000000 1.0
C      1  0.4611400000000  0.5077080000000  0.4585320000000 1.0
C      1  0.4021710000000  0.5142160000000  0.5205600000000 1.0
C      1  0.5612870000000  0.5826080000000  0.5461270000000 1.0
C      1  0.4736460000000  0.4531550000000  0.5008220000000 1.0
C      1  0.4521520000000  0.5195160000000  0.5151680000000 1.0
C      1  0.5166450000000  0.4741280000000  0.4966880000000 1.0
C      1  0.5952280000000  0.4689750000000  0.4809870000000 1.0
C      1  0.3996640000000  0.4852100000000  0.5214100000000 1.0
C      1  0.5479910000000  0.4807850000000  0.5457030000000 1.0
C      1  0.4248210000000  0.4537600000000  0.5552010000000 1.0
C      1  0.4725290000000  0.4805300000000  0.5314860000000 1.0
C      1  0.4757320000000  0.4492760000000  0.5740260000000 1.0
C      1  0.5633710000000  0.5256390000000  0.4253040000000 1.0
C      1  0.5829700000000  0.5322700000000  0.5483200000000 1.0
C      1  0.4966170000000  0.4873750000000  0.6022760000000 1.0
C      1  0.5038060000000  0.6001740000000  0.5012950000000 1.0
C      1  0.5179360000000  0.4488430000000  0.5152290000000 1.0
C      1  0.5584420000000  0.4956620000000  0.4232360000000 1.0
C      1  0.5380390000000  0.5382440000000  0.4178140000000 1.0
C      1  0.4343690000000  0.4151610000000  0.4922740000000 1.0
C      1  0.4670270000000  0.5166530000000  0.4127630000000 1.0
C      1  0.4241110000000  0.4330710000000  0.4708960000000 1.0
C      1  0.5491090000000  0.5262550000000  0.4988530000000 1.0
C      1  0.5262960000000  0.5055410000000  0.4708810000000 1.0
C      1  0.5555850000000  0.4162690000000  0.5368870000000 1.0
C      1  0.5829030000000  0.4956830000000  0.4796610000000 1.0
C      1  0.5123050000000  0.5011450000000  0.4452460000000 1.0
C      1  0.5590940000000  0.4176710000000  0.5078200000000 1.0
C      1  0.4547290000000  0.5652880000000  0.4494310000000 1.0
C      1  0.4404030000000  0.4816840000000  0.4220950000000 1.0
C      1  0.4422590000000  0.5700490000000  0.4903860000000 1.0
C      1  0.4112250000000  0.5178540000000  0.4567230000000 1.0
C      1  0.4908370000000  0.4032500000000  0.4522850000000 1.0
C      1  0.5412540000000  0.4748400000000  0.4095910000000 1.0
C      1  0.5385380000000  0.5682090000000  0.4317890000000 1.0
C      1  0.5435000000000  0.5810340000000  0.4811330000000 1.0
C      1  0.5744190000000  0.4311930000000  0.4900450000000 1.0
C      1  0.5422900000000  0.4419540000000  0.5687230000000 1.0
C      1  0.5388060000000  0.4559650000000  0.4604280000000 1.0
C      1  0.4140870000000  0.4789620000000  0.5451650000000 1.0
C      1  0.4827240000000  0.5544060000000  0.5729660000000 1.0
C      1  0.4940960000000  0.5158860000000  0.5993310000000 1.0
C      1  0.5463100000000  0.4724520000000  0.4974330000000 1.0
C      1  0.4993460000000  0.5210650000000  0.5161940000000 1.0
C      1  0.5682740000000  0.5198440000000  0.5702760000000 1.0
C      1  0.4643570000000  0.4718350000000  0.4097310000000 1.0
C      1  0.5076120000000  0.4899720000000  0.3944910000000 1.0
C      1  0.4781490000000  0.5103840000000  0.4985790000000 1.0
C      1  0.5849350000000  0.4576550000000  0.5319640000000 1.0
C      1  0.4590940000000  0.4113050000000  0.5072260000000 1.0
C      1  0.4681040000000  0.5445590000000  0.4137930000000 1.0
C      1  0.5331390000000  0.5030630000000  0.5378970000000 1.0
C      1  0.4488280000000  0.5467860000000  0.4723900000000 1.0
C      1  0.5413830000000  0.5960760000000  0.5361010000000 1.0
C      1  0.5201900000000  0.5355660000000  0.4699910000000 1.0
C      1  0.5560170000000  0.5105290000000  0.4729950000000 1.0
C      1  0.4912950000000  0.4740180000000  0.5765780000000 1.0
C      1  0.4407640000000  0.5540540000000  0.5603140000000 1.0
C      1  0.4975540000000  0.5908380000000  0.5406440000000 1.0
C      1  0.4840280000000  0.4920400000000  0.5551170000000 1.0
C      1  0.5791160000000  0.5576830000000  0.5133590000000 1.0
C      1  0.5806130000000  0.5615900000000  0.5424390000000 1.0
C      1  0.5503020000000  0.5531870000000  0.5100430000000 1.0
C      1  0.5027020000000  0.4399730000000  0.5399090000000 1.0
C      1  0.5338410000000  0.4560620000000  0.4315490000000 1.0
C      1  0.4470980000000  0.4589510000000  0.5758410000000 1.0
C      1  0.5051080000000  0.5904110000000  0.4514510000000 1.0
C      1  0.4258650000000  0.5281460000000  0.4334300000000 1.0
C      1  0.4729720000000  0.5263120000000  0.4746940000000 1.0
C      1  0.4586920000000  0.4333480000000  0.5270340000000 1.0
C      1  0.5914410000000  0.4506040000000  0.5037520000000 1.0
C      1  0.4884770000000  0.4806810000000  0.5062780000000 1.0
C      1  0.5017120000000  0.5527550000000  0.4833700000000 1.0
C      1  0.4064850000000  0.4456360000000  0.4899400000000 1.0
C      1  0.5865610000000  0.5427430000000  0.4744980000000 1.0
C      1  0.5883850000000  0.4865190000000  0.5261520000000 1.0
C      1  0.5266410000000  0.4065660000000  0.5297380000000 1.0
C      1  0.4754300000000  0.5996600000000  0.5054340000000 1.0
C      1  0.5371740000000  0.5595450000000  0.5680370000000 1.0
C      1  0.4462460000000  0.5282100000000  0.5726920000000 1.0
C      1  0.5104350000000  0.5558870000000  0.5806550000000 1.0
C      1  0.4872010000000  0.4389060000000  0.4802430000000 1.0
C      1  0.5151200000000  0.4355920000000  0.5641960000000 1.0
C      1  0.4192220000000  0.5539430000000  0.5396160000000 1.0
C      1  0.5094350000000  0.4465500000000  0.4183340000000 1.0
C      1  0.4305320000000  0.4356950000000  0.5333540000000 1.0
C      1  0.5627880000000  0.5611270000000  0.4713430000000 1.0
C      1  0.4796050000000  0.4501580000000  0.4206730000000 1.0
C      1  0.4803780000000  0.4949450000000  0.3983790000000 1.0
C      1  0.4081850000000  0.4758690000000  0.4922160000000 1.0
C      1  0.5236530000000  0.4769890000000  0.6059920000000 1.0
C      1  0.5314860000000  0.4210040000000  0.5027110000000 1.0
C      1  0.4953750000000  0.5485040000000  0.4235240000000 1.0
C      1  0.5360740000000  0.5888200000000  0.4538710000000 1.0
C      1  0.5419390000000  0.5486150000000  0.4565090000000 1.0
C      1  0.5311300000000  0.4672510000000  0.5816420000000 1.0
C      1  0.5200840000000  0.5234150000000  0.5536500000000 1.0
C      1  0.4224970000000  0.5339510000000  0.4779810000000 1.0
C      1  0.5065960000000  0.5648360000000  0.5321610000000 1.0
C      1  0.4701660000000  0.5916370000000  0.5325730000000 1.0
C      1  0.5432890000000  0.4609180000000  0.5245840000000 1.0
C      1  0.4238180000000  0.5084450000000  0.5692410000000 1.0
C      1  0.5088760000000  0.5742450000000  0.4269420000000 1.0
C      1  0.5245240000000  0.4082440000000  0.4754040000000 1.0
C      1  0.4542900000000  0.4658530000000  0.4829770000000 1.0
C      1  0.5194410000000  0.5263320000000  0.5858830000000 1.0
C      1  0.4434870000000  0.5506920000000  0.4278810000000 1.0
C      1  0.5930250000000  0.5168270000000  0.5259920000000 1.0
C      1  0.4399120000000  0.4859700000000  0.5774250000000 1.0
C      1  0.5276230000000  0.5131230000000  0.5124700000000 1.0
C      1  0.5179810000000  0.6072610000000  0.5260640000000 1.0
C      1  0.4246750000000  0.5215230000000  0.5028370000000 1.0
C      1  0.5126800000000  0.5787050000000  0.4852610000000 1.0
C      1  0.4297620000000  0.5650290000000  0.5149090000000 1.0
C      1  0.4839810000000  0.3971840000000  0.5050730000000 1.0
C      1  0.4651760000000  0.5457180000000  0.5213160000000 1.0
C      1  0.4948220000000  0.5159140000000  0.5446620000000 1.0
C      1  0.5143120000000  0.4212850000000  0.4510700000000 1.0
END
