TITL C-2441162-9305-722 0.0110747060724128 125000 -9463.42143084682 0 0 68 (C1) n - 1
REM
REM in /home/bkarasulu/work/CARBON/AIRSS/Generating-Clusters/ReaxFF-fromJPCA2015/Units_Real/with-SteepDescent/Higher-Symm
REM
REM
REM
REM
REM
REM ./C.cell (1df0a924f5614ab8850e4351716899ee)
REM
REM compiler GCC version 9.2.1 20190827 (Red Hat 9.2.1-1)
REM options -cpp -mtune=generic -march=x86-64 -g -O0 -fpre-include=/usr/include/finclude/math-vector-fortran.h
REM seed 396411297 -1773791282 158336220 1861111532 -385930157 -596437946 -319945907 -120245431 -1700900 -1683539013 -1849363495 -956006739 -1482934554 -204285455 -607063519 -306837791 1385459201 -1936863701 -61319412 1645713210 -765808973 -2004584016 1651834112 -217510050 -150747271 1905424022 -732330952 -1287747387 1964419130 1488745020 73649379 -1295636195 -128644699
REM
CELL 1.54180   50.00000   50.00000   50.00000   90.00000   90.00000   90.00000
LATT -1
SFAC C  
C      1  0.4697270000000  0.4645930000000  0.4513930000000 1.0
C      1  0.5197550000000  0.4325550000000  0.4691960000000 1.0
C      1  0.4720860000000  0.5391080000000  0.4866840000000 1.0
C      1  0.4336010000000  0.5030550000000  0.5356610000000 1.0
C      1  0.4753770000000  0.4963940000000  0.4319190000000 1.0
C      1  0.5256690000000  0.5215120000000  0.4263580000000 1.0
C      1  0.4732530000000  0.4849120000000  0.4985490000000 1.0
C      1  0.5695730000000  0.4869910000000  0.4567930000000 1.0
C      1  0.4541910000000  0.4423390000000  0.4975330000000 1.0
C      1  0.4956680000000  0.5158590000000  0.4256750000000 1.0
C      1  0.4268090000000  0.4951770000000  0.5085910000000 1.0
C      1  0.5556710000000  0.5446390000000  0.5294470000000 1.0
C      1  0.4613140000000  0.5262020000000  0.5687250000000 1.0
C      1  0.4946170000000  0.5791330000000  0.5090950000000 1.0
C      1  0.5065550000000  0.4597320000000  0.5680750000000 1.0
C      1  0.5553430000000  0.5142550000000  0.4635950000000 1.0
C      1  0.5551110000000  0.4632210000000  0.4522570000000 1.0
C      1  0.5325720000000  0.4480730000000  0.4471990000000 1.0
C      1  0.5093290000000  0.4765570000000  0.5305840000000 1.0
C      1  0.4814370000000  0.5178330000000  0.4692840000000 1.0
C      1  0.5522160000000  0.4667300000000  0.5417730000000 1.0
C      1  0.5043990000000  0.4883790000000  0.5742500000000 1.0
C      1  0.4603480000000  0.4452010000000  0.4706090000000 1.0
C      1  0.4803660000000  0.5049780000000  0.5766360000000 1.0
C      1  0.5487850000000  0.4673350000000  0.5108720000000 1.0
C      1  0.4780580000000  0.5355170000000  0.4467350000000 1.0
C      1  0.5315170000000  0.4490180000000  0.5543380000000 1.0
C      1  0.4431690000000  0.5290660000000  0.5455580000000 1.0
C      1  0.4479710000000  0.4715760000000  0.5083920000000 1.0
C      1  0.5210150000000  0.4945810000000  0.5506100000000 1.0
C      1  0.5289380000000  0.5175670000000  0.5039270000000 1.0
C      1  0.4884320000000  0.4598920000000  0.5444390000000 1.0
C      1  0.4898130000000  0.5323360000000  0.5698440000000 1.0
C      1  0.4447130000000  0.4782850000000  0.4534220000000 1.0
C      1  0.4914550000000  0.4335880000000  0.5317440000000 1.0
C      1  0.5226590000000  0.5733900000000  0.5129490000000 1.0
C      1  0.4545640000000  0.5151240000000  0.4372920000000 1.0
C      1  0.5204260000000  0.4289570000000  0.5361930000000 1.0
C      1  0.5507500000000  0.4941550000000  0.5536740000000 1.0
C      1  0.4811600000000  0.4325700000000  0.5045240000000 1.0
C      1  0.5294600000000  0.4944180000000  0.4239620000000 1.0
C      1  0.5406710000000  0.5504180000000  0.5040150000000 1.0
C      1  0.5030890000000  0.4476000000000  0.4895800000000 1.0
C      1  0.5131680000000  0.4868470000000  0.4651230000000 1.0
C      1  0.4425670000000  0.5384470000000  0.4988110000000 1.0
C      1  0.4995160000000  0.5201500000000  0.5222700000000 1.0
C      1  0.4508170000000  0.5481950000000  0.5246330000000 1.0
C      1  0.4563800000000  0.4837250000000  0.5361250000000 1.0
C      1  0.5177440000000  0.4730750000000  0.4387250000000 1.0
C      1  0.4788540000000  0.5596450000000  0.5258900000000 1.0
C      1  0.4300390000000  0.5150630000000  0.4875820000000 1.0
C      1  0.4852280000000  0.4888280000000  0.4718070000000 1.0
C      1  0.4880240000000  0.5406520000000  0.5097530000000 1.0
C      1  0.5441370000000  0.5358260000000  0.4475460000000 1.0
C      1  0.5359830000000  0.5414010000000  0.5508110000000 1.0
C      1  0.5467980000000  0.4964470000000  0.5130620000000 1.0
C      1  0.5173780000000  0.4682410000000  0.5045830000000 1.0
C      1  0.5584320000000  0.5225840000000  0.5484430000000 1.0
C      1  0.4756860000000  0.5607220000000  0.4630270000000 1.0
C      1  0.5066330000000  0.5380720000000  0.5466480000000 1.0
C      1  0.4363560000000  0.5047530000000  0.4588020000000 1.0
C      1  0.5410340000000  0.4328300000000  0.5162350000000 1.0
C      1  0.5412520000000  0.5537430000000  0.4700400000000 1.0
C      1  0.4949510000000  0.5761940000000  0.4769330000000 1.0
C      1  0.5354300000000  0.4236010000000  0.4903890000000 1.0
C      1  0.5295900000000  0.5066000000000  0.4754920000000 1.0
C      1  0.5158770000000  0.5623110000000  0.4649790000000 1.0
C      1  0.4764970000000  0.4992290000000  0.5203370000000 1.0
END
