TITL C-2441160-1326-481 0.0767224474972271 125000 -15651.6775758576 0 0 118 (C1) n - 1
REM
REM in /home/bkarasulu/work/CARBON/AIRSS/Generating-Clusters/ReaxFF-fromJPCA2015/Units_Real/with-SteepDescent/Higher-Symm
REM
REM
REM
REM
REM
REM ./C.cell (1df0a924f5614ab8850e4351716899ee)
REM
REM compiler GCC version 9.2.1 20190827 (Red Hat 9.2.1-1)
REM options -cpp -mtune=generic -march=x86-64 -g -O0 -fpre-include=/usr/include/finclude/math-vector-fortran.h
REM seed 368417001 865414243 -1175028626 1245416928 771810858 -594196082 -281738899 1380506659 576867360 1896378878 -967809256 844773638 1017103397 -811136629 -896059506 1642174679 -2130791741 -1392160791 -383232393 -781144181 1879220901 1074417596 -1001450232 -1330285414 -1695661815 580651040 1109965847 1930260437 -1085734728 1502225565 -622069056 -696723197 -1422757337
REM
CELL 1.54180   50.00000   50.00000   50.00000   90.00000   90.00000   90.00000
LATT -1
SFAC C  
C      1  0.4631710000000  0.4413470000000  0.4430740000000 1.0
C      1  0.5200800000000  0.4403100000000  0.4327850000000 1.0
C      1  0.5668960000000  0.4384740000000  0.4684500000000 1.0
C      1  0.5572730000000  0.4415950000000  0.5453910000000 1.0
C      1  0.5073860000000  0.4377160000000  0.5698280000000 1.0
C      1  0.4524960000000  0.4382160000000  0.5504910000000 1.0
C      1  0.4303460000000  0.4399280000000  0.4903300000000 1.0
C      1  0.4471560000000  0.4735130000000  0.4586220000000 1.0
C      1  0.4969880000000  0.4739050000000  0.4326690000000 1.0
C      1  0.5482310000000  0.4765920000000  0.4590100000000 1.0
C      1  0.5778760000000  0.4604940000000  0.5114380000000 1.0
C      1  0.5301240000000  0.4737300000000  0.5537520000000 1.0
C      1  0.4758210000000  0.4742590000000  0.5576230000000 1.0
C      1  0.4358480000000  0.4688200000000  0.5182010000000 1.0
C      1  0.4657900000000  0.4207920000000  0.5163720000000 1.0
C      1  0.4691160000000  0.4195900000000  0.4826100000000 1.0
C      1  0.4985090000000  0.4188300000000  0.4640120000000 1.0
C      1  0.5278410000000  0.4154160000000  0.4729750000000 1.0
C      1  0.5382130000000  0.4231580000000  0.5002210000000 1.0
C      1  0.5183710000000  0.4225340000000  0.5294910000000 1.0
C      1  0.4892920000000  0.4154320000000  0.5345500000000 1.0
C      1  0.4737990000000  0.4478490000000  0.4903430000000 1.0
C      1  0.5049660000000  0.4477060000000  0.4685850000000 1.0
C      1  0.5293780000000  0.4589370000000  0.4738410000000 1.0
C      1  0.5337900000000  0.4529260000000  0.5024640000000 1.0
C      1  0.5167790000000  0.4540140000000  0.5288430000000 1.0
C      1  0.4893290000000  0.4601970000000  0.5341370000000 1.0
C      1  0.4707870000000  0.4504950000000  0.5160950000000 1.0
C      1  0.5150420000000  0.5759840000000  0.4568180000000 1.0
C      1  0.5452310000000  0.5766680000000  0.4831570000000 1.0
C      1  0.5417300000000  0.5753490000000  0.5229100000000 1.0
C      1  0.5070960000000  0.5803620000000  0.5446810000000 1.0
C      1  0.4682160000000  0.5776010000000  0.5308700000000 1.0
C      1  0.4523600000000  0.5767700000000  0.4937050000000 1.0
C      1  0.4749580000000  0.5763110000000  0.4609230000000 1.0
C      1  0.4329070000000  0.5268850000000  0.5418700000000 1.0
C      1  0.4236970000000  0.5263500000000  0.4716830000000 1.0
C      1  0.4738170000000  0.5270010000000  0.4214440000000 1.0
C      1  0.5446840000000  0.5268020000000  0.4301410000000 1.0
C      1  0.5810510000000  0.5258440000000  0.4906810000000 1.0
C      1  0.5580620000000  0.5260610000000  0.5578580000000 1.0
C      1  0.4916470000000  0.5266300000000  0.5808470000000 1.0
C      1  0.5112460000000  0.5045070000000  0.4040900000000 1.0
C      1  0.5812190000000  0.5024350000000  0.4490840000000 1.0
C      1  0.5893810000000  0.5033700000000  0.5297490000000 1.0
C      1  0.5323040000000  0.5021270000000  0.5883810000000 1.0
C      1  0.4502400000000  0.5035820000000  0.5801320000000 1.0
C      1  0.4070770000000  0.5033970000000  0.5100520000000 1.0
C      1  0.4326420000000  0.5035470000000  0.4317300000000 1.0
C      1  0.4607000000000  0.4867280000000  0.5073940000000 1.0
C      1  0.4675280000000  0.4902080000000  0.4742110000000 1.0
C      1  0.4930000000000  0.4904990000000  0.4568270000000 1.0
C      1  0.5393770000000  0.4969280000000  0.4809840000000 1.0
C      1  0.5413360000000  0.4968630000000  0.5099460000000 1.0
C      1  0.5249710000000  0.4945860000000  0.5337310000000 1.0
C      1  0.4723680000000  0.4972180000000  0.5309330000000 1.0
C      1  0.5575900000000  0.5022540000000  0.5742750000000 1.0
C      1  0.4769920000000  0.5041680000000  0.5918470000000 1.0
C      1  0.4143770000000  0.5046200000000  0.5382440000000 1.0
C      1  0.4159220000000  0.5035990000000  0.4554580000000 1.0
C      1  0.4822260000000  0.5044950000000  0.4050530000000 1.0
C      1  0.5622160000000  0.5036610000000  0.4267480000000 1.0
C      1  0.5941910000000  0.5041850000000  0.5021510000000 1.0
C      1  0.5741710000000  0.5271170000000  0.5352010000000 1.0
C      1  0.5192740000000  0.5265590000000  0.5797800000000 1.0
C      1  0.4499900000000  0.5274310000000  0.5637390000000 1.0
C      1  0.4194240000000  0.5271050000000  0.4991530000000 1.0
C      1  0.4491280000000  0.5269700000000  0.4342990000000 1.0
C      1  0.5192250000000  0.5277950000000  0.4189510000000 1.0
C      1  0.5748940000000  0.5267320000000  0.4635040000000 1.0
C      1  0.5319190000000  0.5397540000000  0.5557400000000 1.0
C      1  0.4772040000000  0.5402930000000  0.5586640000000 1.0
C      1  0.4405590000000  0.5392750000000  0.5163800000000 1.0
C      1  0.4487020000000  0.5380340000000  0.4619920000000 1.0
C      1  0.4967000000000  0.5385810000000  0.4351270000000 1.0
C      1  0.5483750000000  0.5389520000000  0.4561420000000 1.0
C      1  0.5628970000000  0.5386070000000  0.5098270000000 1.0
C      1  0.4814430000000  0.4279730000000  0.5594510000000 1.0
C      1  0.4375070000000  0.4347490000000  0.5261480000000 1.0
C      1  0.4449400000000  0.4305250000000  0.4681370000000 1.0
C      1  0.4908760000000  0.4316550000000  0.4364290000000 1.0
C      1  0.5419620000000  0.4286820000000  0.4520060000000 1.0
C      1  0.5694070000000  0.4348070000000  0.4977500000000 1.0
C      1  0.5339450000000  0.4290100000000  0.5555760000000 1.0
C      1  0.5460960000000  0.4799940000000  0.4280420000000 1.0
C      1  0.5886590000000  0.4784190000000  0.4911410000000 1.0
C      1  0.5612420000000  0.4766740000000  0.5598420000000 1.0
C      1  0.4900650000000  0.4793370000000  0.5840200000000 1.0
C      1  0.4262380000000  0.4792610000000  0.5455630000000 1.0
C      1  0.4202390000000  0.4785860000000  0.4699650000000 1.0
C      1  0.4730060000000  0.4789840000000  0.4157150000000 1.0
C      1  0.4460930000000  0.4779820000000  0.5660640000000 1.0
C      1  0.4139630000000  0.4772330000000  0.4983330000000 1.0
C      1  0.4471290000000  0.4777100000000  0.4292200000000 1.0
C      1  0.5209290000000  0.4783960000000  0.4145580000000 1.0
C      1  0.5794490000000  0.4773020000000  0.4637540000000 1.0
C      1  0.5791160000000  0.4763620000000  0.5365320000000 1.0
C      1  0.5185060000000  0.4767370000000  0.5821750000000 1.0
C      1  0.5336030000000  0.5266650000000  0.5080060000000 1.0
C      1  0.5164520000000  0.5223330000000  0.5324620000000 1.0
C      1  0.4862310000000  0.5236500000000  0.5324580000000 1.0
C      1  0.4705510000000  0.5291400000000  0.5036670000000 1.0
C      1  0.4712950000000  0.5198890000000  0.4760080000000 1.0
C      1  0.4989680000000  0.5187830000000  0.4619000000000 1.0
C      1  0.5276780000000  0.5230300000000  0.4771520000000 1.0
C      1  0.4534460000000  0.5672870000000  0.4701340000000 1.0
C      1  0.4940270000000  0.5670110000000  0.4467000000000 1.0
C      1  0.5389190000000  0.5676500000000  0.4603850000000 1.0
C      1  0.5560990000000  0.5676810000000  0.5044390000000 1.0
C      1  0.5312740000000  0.5671940000000  0.5448650000000 1.0
C      1  0.4829110000000  0.5675810000000  0.5499970000000 1.0
C      1  0.4482700000000  0.5683310000000  0.5171450000000 1.0
C      1  0.5008740000000  0.5933920000000  0.5132640000000 1.0
C      1  0.4994740000000  0.5010890000000  0.5013640000000 1.0
C      1  0.4976340000000  0.4509140000000  0.4917640000000 1.0
C      1  0.4905410000000  0.5469460000000  0.4983100000000 1.0
C      1  0.4996450000000  0.4772410000000  0.4969870000000 1.0
C      1  0.5009470000000  0.5677230000000  0.5006040000000 1.0
END
