TITL C-2441167-4473-941 0.0313407316349564 125000 -20064.6930175298 0 0 137 (C1) n - 1
REM
REM in /home/bkarasulu/work/CARBON/AIRSS/Generating-Clusters/ReaxFF-fromJPCA2015/Units_Real/with-SteepDescent/Higher-Symm
REM
REM
REM
REM
REM
REM ./C.cell (1df0a924f5614ab8850e4351716899ee)
REM
REM compiler GCC version 9.2.1 20190827 (Red Hat 9.2.1-1)
REM options -cpp -mtune=generic -march=x86-64 -g -O0 -fpre-include=/usr/include/finclude/math-vector-fortran.h
REM seed 794724026 71140985 632340096 -1506226818 1749444558 546002071 -1099109766 426198006 -2053282450 1077694488 753988170 -782993126 -439600849 -1066491439 -1425395957 -1687493573 1525888779 -166543325 1461759558 433193184 -95499837 -1119580837 1378132435 -982705469 2028880577 -1386986821 -807634869 1431140531 -1554112856 -215045412 64068196 -65267643 1205145333
REM
CELL 1.54180   50.00000   50.00000   50.00000   90.00000   90.00000   90.00000
LATT -1
SFAC C  
C      1  0.4497670000000  0.5746780000000  0.5186410000000 1.0
C      1  0.4475400000000  0.5629250000000  0.4494350000000 1.0
C      1  0.4435570000000  0.4997250000000  0.4220600000000 1.0
C      1  0.4442890000000  0.4396130000000  0.4499300000000 1.0
C      1  0.4379300000000  0.4323010000000  0.5381020000000 1.0
C      1  0.4448430000000  0.4655130000000  0.5720960000000 1.0
C      1  0.4368210000000  0.5442990000000  0.5536180000000 1.0
C      1  0.5123190000000  0.4172560000000  0.4568110000000 1.0
C      1  0.5166520000000  0.4122100000000  0.5366800000000 1.0
C      1  0.5095770000000  0.4833020000000  0.6036040000000 1.0
C      1  0.5104090000000  0.5568420000000  0.5804590000000 1.0
C      1  0.5127780000000  0.5973700000000  0.4946460000000 1.0
C      1  0.5133800000000  0.5596870000000  0.4257020000000 1.0
C      1  0.5124160000000  0.4807490000000  0.4066940000000 1.0
C      1  0.5432960000000  0.4806820000000  0.5178580000000 1.0
C      1  0.5618320000000  0.4989600000000  0.5305820000000 1.0
C      1  0.5615340000000  0.5258460000000  0.5223150000000 1.0
C      1  0.5537920000000  0.5341800000000  0.4940770000000 1.0
C      1  0.5513100000000  0.5129010000000  0.4664590000000 1.0
C      1  0.5460770000000  0.4847060000000  0.4691120000000 1.0
C      1  0.5530730000000  0.4658760000000  0.4889520000000 1.0
C      1  0.5292690000000  0.4592300000000  0.4253490000000 1.0
C      1  0.5285140000000  0.4179490000000  0.4832190000000 1.0
C      1  0.5355370000000  0.4312240000000  0.5476840000000 1.0
C      1  0.5256650000000  0.5070160000000  0.5974930000000 1.0
C      1  0.5289470000000  0.5643210000000  0.5586180000000 1.0
C      1  0.5291110000000  0.5787100000000  0.4747310000000 1.0
C      1  0.5289030000000  0.5338410000000  0.4220940000000 1.0
C      1  0.4895180000000  0.4510310000000  0.5874470000000 1.0
C      1  0.4818640000000  0.5314840000000  0.5952770000000 1.0
C      1  0.4942490000000  0.5938250000000  0.5309470000000 1.0
C      1  0.4885060000000  0.5843730000000  0.4467220000000 1.0
C      1  0.4860230000000  0.5116390000000  0.3995640000000 1.0
C      1  0.4859240000000  0.4304320000000  0.4282380000000 1.0
C      1  0.4833420000000  0.4062840000000  0.5108600000000 1.0
C      1  0.5060960000000  0.4551810000000  0.4971940000000 1.0
C      1  0.5026720000000  0.4577320000000  0.5246280000000 1.0
C      1  0.5040960000000  0.4999880000000  0.5523650000000 1.0
C      1  0.5105130000000  0.5257400000000  0.5412740000000 1.0
C      1  0.5052840000000  0.5403680000000  0.4893580000000 1.0
C      1  0.5040150000000  0.5132160000000  0.4545800000000 1.0
C      1  0.5022830000000  0.4858250000000  0.4553530000000 1.0
C      1  0.4674850000000  0.5267180000000  0.5180030000000 1.0
C      1  0.4583830000000  0.5351730000000  0.4923620000000 1.0
C      1  0.4609250000000  0.5118000000000  0.4692820000000 1.0
C      1  0.4542430000000  0.4836800000000  0.4601160000000 1.0
C      1  0.4667190000000  0.4751310000000  0.4983700000000 1.0
C      1  0.4597540000000  0.4759610000000  0.5251000000000 1.0
C      1  0.4563650000000  0.5027230000000  0.5373580000000 1.0
C      1  0.4293470000000  0.5522180000000  0.4669410000000 1.0
C      1  0.4247900000000  0.5063040000000  0.4422490000000 1.0
C      1  0.4328780000000  0.4647860000000  0.4593190000000 1.0
C      1  0.4365610000000  0.4324550000000  0.5097510000000 1.0
C      1  0.4274420000000  0.4594310000000  0.5499020000000 1.0
C      1  0.4304540000000  0.5162530000000  0.5475250000000 1.0
C      1  0.4288840000000  0.5556660000000  0.5276200000000 1.0
C      1  0.4781880000000  0.4691410000000  0.4561790000000 1.0
C      1  0.4793940000000  0.4519840000000  0.4850310000000 1.0
C      1  0.4781630000000  0.4596470000000  0.5379200000000 1.0
C      1  0.4759120000000  0.5024330000000  0.5582300000000 1.0
C      1  0.4890100000000  0.5412990000000  0.5297280000000 1.0
C      1  0.4800840000000  0.5519270000000  0.4841380000000 1.0
C      1  0.4793750000000  0.5235010000000  0.4479920000000 1.0
C      1  0.4103200000000  0.5127970000000  0.4676030000000 1.0
C      1  0.4138800000000  0.4703760000000  0.4820390000000 1.0
C      1  0.4182300000000  0.4554770000000  0.5068310000000 1.0
C      1  0.4159830000000  0.4750840000000  0.5283640000000 1.0
C      1  0.4122890000000  0.5069570000000  0.5262390000000 1.0
C      1  0.4146760000000  0.5343660000000  0.5128280000000 1.0
C      1  0.4107510000000  0.5389990000000  0.4835180000000 1.0
C      1  0.5912630000000  0.5231740000000  0.5161680000000 1.0
C      1  0.5840430000000  0.5322670000000  0.4895000000000 1.0
C      1  0.5835810000000  0.5146140000000  0.4666060000000 1.0
C      1  0.5906780000000  0.4865260000000  0.4644330000000 1.0
C      1  0.5844630000000  0.4683760000000  0.4862090000000 1.0
C      1  0.5925890000000  0.4682920000000  0.5137200000000 1.0
C      1  0.5894800000000  0.4951590000000  0.5253250000000 1.0
C      1  0.5121830000000  0.4064800000000  0.5088430000000 1.0
C      1  0.5150910000000  0.4633640000000  0.5837840000000 1.0
C      1  0.5103030000000  0.5309880000000  0.5946280000000 1.0
C      1  0.5222830000000  0.5938140000000  0.5213840000000 1.0
C      1  0.5167730000000  0.5780400000000  0.4479130000000 1.0
C      1  0.5144390000000  0.5092840000000  0.4047370000000 1.0
C      1  0.5139370000000  0.4341510000000  0.4334560000000 1.0
C      1  0.4652280000000  0.4507590000000  0.4308190000000 1.0
C      1  0.4619360000000  0.4246030000000  0.4942660000000 1.0
C      1  0.4699840000000  0.4479680000000  0.5645570000000 1.0
C      1  0.4656470000000  0.5114310000000  0.5832640000000 1.0
C      1  0.4750690000000  0.5699220000000  0.5370050000000 1.0
C      1  0.4696320000000  0.5756550000000  0.4687720000000 1.0
C      1  0.4667650000000  0.5234350000000  0.4214200000000 1.0
C      1  0.5266060000000  0.4603620000000  0.5400650000000 1.0
C      1  0.5197880000000  0.4774500000000  0.5607410000000 1.0
C      1  0.5376850000000  0.5376020000000  0.5466500000000 1.0
C      1  0.5300600000000  0.5514600000000  0.4878200000000 1.0
C      1  0.5291750000000  0.5231590000000  0.4491060000000 1.0
C      1  0.5275160000000  0.4739000000000  0.4504160000000 1.0
C      1  0.5315780000000  0.4463160000000  0.4876240000000 1.0
C      1  0.5602770000000  0.4603840000000  0.4299030000000 1.0
C      1  0.5595330000000  0.4106940000000  0.4849170000000 1.0
C      1  0.5641870000000  0.4368130000000  0.5499220000000 1.0
C      1  0.5531750000000  0.5062720000000  0.5871640000000 1.0
C      1  0.5559730000000  0.5750290000000  0.5563110000000 1.0
C      1  0.5615390000000  0.5841750000000  0.4757200000000 1.0
C      1  0.5601990000000  0.5342740000000  0.4166590000000 1.0
C      1  0.4592810000000  0.5885680000000  0.4957620000000 1.0
C      1  0.4613350000000  0.5522990000000  0.4254190000000 1.0
C      1  0.4584130000000  0.4759830000000  0.4141400000000 1.0
C      1  0.4584280000000  0.4196730000000  0.4650170000000 1.0
C      1  0.4610570000000  0.4208960000000  0.5511480000000 1.0
C      1  0.4564130000000  0.4847280000000  0.5905290000000 1.0
C      1  0.4604360000000  0.5599860000000  0.5618160000000 1.0
C      1  0.5719550000000  0.5509750000000  0.4353520000000 1.0
C      1  0.5777810000000  0.4852300000000  0.4363510000000 1.0
C      1  0.5711720000000  0.4240050000000  0.4631980000000 1.0
C      1  0.5810990000000  0.4418830000000  0.5244130000000 1.0
C      1  0.5633290000000  0.4814160000000  0.5783860000000 1.0
C      1  0.5748260000000  0.5538310000000  0.5676880000000 1.0
C      1  0.5638280000000  0.5841150000000  0.5033640000000 1.0
C      1  0.5517620000000  0.5857650000000  0.5283850000000 1.0
C      1  0.5705560000000  0.5680100000000  0.4546140000000 1.0
C      1  0.5730620000000  0.5110150000000  0.4256440000000 1.0
C      1  0.5673260000000  0.4403880000000  0.4467700000000 1.0
C      1  0.5730220000000  0.4256710000000  0.5037740000000 1.0
C      1  0.5663870000000  0.4590140000000  0.5663470000000 1.0
C      1  0.5578040000000  0.5296000000000  0.5687340000000 1.0
C      1  0.4834840000000  0.4126310000000  0.4511280000000 1.0
C      1  0.4832530000000  0.4073640000000  0.5392370000000 1.0
C      1  0.4810530000000  0.4737450000000  0.6032970000000 1.0
C      1  0.4804640000000  0.5569850000000  0.5821570000000 1.0
C      1  0.4843250000000  0.6007250000000  0.5040900000000 1.0
C      1  0.4853120000000  0.5666800000000  0.4243920000000 1.0
C      1  0.4828180000000  0.4822910000000  0.3993560000000 1.0
C      1  0.5224540000000  0.4961300000000  0.5082880000000 1.0
C      1  0.4778670000000  0.4989300000000  0.4895820000000 1.0
C      1  0.5020980000000  0.5111910000000  0.4989400000000 1.0
C      1  0.4119060000000  0.4971530000000  0.4914470000000 1.0
END
