TITL C-2441166-8118-1074 -0.00117107680716959 125000 -3933.38061472777 0 0 29 (C1) n - 1
REM
REM in /home/bkarasulu/work/CARBON/AIRSS/Generating-Clusters/ReaxFF-fromJPCA2015/Units_Real/with-SteepDescent/Higher-Symm
REM
REM
REM
REM
REM
REM ./C.cell (1df0a924f5614ab8850e4351716899ee)
REM
REM compiler GCC version 9.2.1 20190827 (Red Hat 9.2.1-1)
REM options -cpp -mtune=generic -march=x86-64 -g -O0 -fpre-include=/usr/include/finclude/math-vector-fortran.h
REM seed -593564786 1175195284 -790142692 -2127519253 -293056820 272941838 1851060369 1006202308 -325361294 -2013369556 -221894600 1025969238 1083171257 1209517900 -822867820 -110811544 205873971 -1528837238 -734049531 1190684754 -633095244 1803611993 284050550 -1080252802 -1773961081 1570914922 660380786 -1953831664 -1065687644 -1787395731 866057848 875013679 -321838988
REM
CELL 1.54180   50.00000   50.00000   50.00000   90.00000   90.00000   90.00000
LATT -1
SFAC C  
C      1  0.4967130000000  0.5446550000000  0.4951360000000 1.0
C      1  0.4567190000000  0.5112660000000  0.4949570000000 1.0
C      1  0.4758780000000  0.4610320000000  0.4935100000000 1.0
C      1  0.5291330000000  0.4666320000000  0.4951040000000 1.0
C      1  0.5414140000000  0.5184470000000  0.4941600000000 1.0
C      1  0.5387550000000  0.4910110000000  0.4621650000000 1.0
C      1  0.5203470000000  0.5348040000000  0.4614700000000 1.0
C      1  0.4742220000000  0.5307630000000  0.4621870000000 1.0
C      1  0.4640140000000  0.4859440000000  0.4623670000000 1.0
C      1  0.5034210000000  0.4616460000000  0.4623630000000 1.0
C      1  0.5285010000000  0.4676240000000  0.4674570000000 1.0
C      1  0.5401620000000  0.5170600000000  0.4663340000000 1.0
C      1  0.4959220000000  0.5445440000000  0.4670400000000 1.0
C      1  0.4580860000000  0.5110960000000  0.4671120000000 1.0
C      1  0.4775990000000  0.4638490000000  0.4663330000000 1.0
C      1  0.4565050000000  0.4819010000000  0.5059600000000 1.0
C      1  0.5036000000000  0.4538720000000  0.5064830000000 1.0
C      1  0.5418940000000  0.4909350000000  0.5101000000000 1.0
C      1  0.5239220000000  0.5387260000000  0.5073900000000 1.0
C      1  0.4723010000000  0.5326280000000  0.5097990000000 1.0
C      1  0.5253360000000  0.5344410000000  0.5374170000000 1.0
C      1  0.4785770000000  0.5291400000000  0.5381640000000 1.0
C      1  0.4604600000000  0.4841090000000  0.5339990000000 1.0
C      1  0.5041800000000  0.4588670000000  0.5345910000000 1.0
C      1  0.5369420000000  0.4965020000000  0.5371400000000 1.0
C      1  0.4984370000000  0.4982100000000  0.5024200000000 1.0
C      1  0.5031770000000  0.5048670000000  0.4760590000000 1.0
C      1  0.4927890000000  0.4891110000000  0.5310110000000 1.0
C      1  0.5035020000000  0.5143770000000  0.5478770000000 1.0
END
