TITL C-2441160-1326-1089 0.156417327249698 125000 -24978.2008526778 0 0 187 (C1) n - 1
REM
REM in /home/bkarasulu/work/CARBON/AIRSS/Generating-Clusters/ReaxFF-fromJPCA2015/Units_Real/with-SteepDescent/Higher-Symm
REM
REM
REM
REM
REM
REM ./C.cell (1df0a924f5614ab8850e4351716899ee)
REM
REM compiler GCC version 9.2.1 20190827 (Red Hat 9.2.1-1)
REM options -cpp -mtune=generic -march=x86-64 -g -O0 -fpre-include=/usr/include/finclude/math-vector-fortran.h
REM seed -166610152 1331090352 -1530933133 427150858 229972593 1074130335 -916308940 -423455548 1091133629 -328882728 599037823 -40330090 -1901299454 -732595062 -181300830 -272524236 1743781033 -1945857939 1872492438 -74293878 -1412789418 1677424072 966145496 1753931316 811861253 -2088371109 773956492 1955811310 -371980217 1924906104 -18108152 -565707035 -517063934
REM
CELL 1.54180   50.00000   50.00000   50.00000   90.00000   90.00000   90.00000
LATT -1
SFAC C  
C      1  0.5511990000000  0.4480180000000  0.5723860000000 1.0
C      1  0.5023560000000  0.4236720000000  0.5718400000000 1.0
C      1  0.4324290000000  0.4628870000000  0.5726500000000 1.0
C      1  0.4237010000000  0.5136820000000  0.5743840000000 1.0
C      1  0.4787500000000  0.5669910000000  0.5742940000000 1.0
C      1  0.5459120000000  0.5567350000000  0.5688500000000 1.0
C      1  0.5733230000000  0.4961550000000  0.5693350000000 1.0
C      1  0.5275980000000  0.5850370000000  0.5288320000000 1.0
C      1  0.5894180000000  0.5300320000000  0.5293340000000 1.0
C      1  0.5791230000000  0.4529660000000  0.5283790000000 1.0
C      1  0.5113080000000  0.4129180000000  0.5287710000000 1.0
C      1  0.4388580000000  0.4356870000000  0.5284970000000 1.0
C      1  0.4087090000000  0.5058460000000  0.5296410000000 1.0
C      1  0.4498700000000  0.5828670000000  0.5278490000000 1.0
C      1  0.4772710000000  0.5848340000000  0.5368090000000 1.0
C      1  0.5499900000000  0.5748000000000  0.5465410000000 1.0
C      1  0.5887540000000  0.5000240000000  0.5420560000000 1.0
C      1  0.5554830000000  0.4387370000000  0.5427140000000 1.0
C      1  0.4861400000000  0.4151930000000  0.5437970000000 1.0
C      1  0.4238570000000  0.4592240000000  0.5413050000000 1.0
C      1  0.4193000000000  0.5309280000000  0.5476630000000 1.0
C      1  0.4949470000000  0.5439310000000  0.5681920000000 1.0
C      1  0.5206430000000  0.5482360000000  0.5817180000000 1.0
C      1  0.5436740000000  0.4958940000000  0.5701840000000 1.0
C      1  0.5348210000000  0.4696390000000  0.5799120000000 1.0
C      1  0.4992040000000  0.4520240000000  0.5759430000000 1.0
C      1  0.4584460000000  0.4820110000000  0.5759340000000 1.0
C      1  0.4504180000000  0.5098650000000  0.5832480000000 1.0
C      1  0.5174300000000  0.5364160000000  0.4176100000000 1.0
C      1  0.5444260000000  0.4884920000000  0.4193900000000 1.0
C      1  0.5295600000000  0.4628330000000  0.4126900000000 1.0
C      1  0.4822390000000  0.4559540000000  0.4142000000000 1.0
C      1  0.4594480000000  0.4790010000000  0.4200510000000 1.0
C      1  0.4646080000000  0.5296770000000  0.4194200000000 1.0
C      1  0.4901190000000  0.5434540000000  0.4112330000000 1.0
C      1  0.3939290000000  0.4640220000000  0.5331110000000 1.0
C      1  0.4117360000000  0.5578130000000  0.5353980000000 1.0
C      1  0.4893650000000  0.6115130000000  0.5324290000000 1.0
C      1  0.5763350000000  0.5733080000000  0.5348200000000 1.0
C      1  0.6119690000000  0.4819920000000  0.5352120000000 1.0
C      1  0.5565480000000  0.4093650000000  0.5348710000000 1.0
C      1  0.4615690000000  0.3988180000000  0.5357300000000 1.0
C      1  0.5727770000000  0.4819970000000  0.5258220000000 1.0
C      1  0.5284180000000  0.4446270000000  0.5296320000000 1.0
C      1  0.4724550000000  0.4403690000000  0.5346910000000 1.0
C      1  0.4283710000000  0.4837640000000  0.5272300000000 1.0
C      1  0.4482720000000  0.5375240000000  0.5491450000000 1.0
C      1  0.4995000000000  0.5684450000000  0.5291300000000 1.0
C      1  0.5600290000000  0.5291790000000  0.5343690000000 1.0
C      1  0.4936020000000  0.5277810000000  0.5438260000000 1.0
C      1  0.5179050000000  0.5216820000000  0.5325870000000 1.0
C      1  0.5285830000000  0.4957130000000  0.5397340000000 1.0
C      1  0.5148520000000  0.4690580000000  0.5371620000000 1.0
C      1  0.4890590000000  0.4630230000000  0.5476710000000 1.0
C      1  0.4733550000000  0.4867080000000  0.5509280000000 1.0
C      1  0.4663830000000  0.5207660000000  0.5359590000000 1.0
C      1  0.5891520000000  0.5093050000000  0.4321110000000 1.0
C      1  0.5656060000000  0.4360530000000  0.4364800000000 1.0
C      1  0.4914240000000  0.4105490000000  0.4335130000000 1.0
C      1  0.4252570000000  0.4493470000000  0.4364590000000 1.0
C      1  0.4159340000000  0.5246150000000  0.4333730000000 1.0
C      1  0.4682590000000  0.5827250000000  0.4369580000000 1.0
C      1  0.5471860000000  0.5749710000000  0.4314770000000 1.0
C      1  0.5781850000000  0.4677020000000  0.5705540000000 1.0
C      1  0.5306290000000  0.4224450000000  0.5721230000000 1.0
C      1  0.4410660000000  0.4333450000000  0.5730890000000 1.0
C      1  0.4123760000000  0.4875530000000  0.5721640000000 1.0
C      1  0.4515940000000  0.5611210000000  0.5642930000000 1.0
C      1  0.5014080000000  0.5839060000000  0.5696170000000 1.0
C      1  0.5667480000000  0.5363230000000  0.5622080000000 1.0
C      1  0.4467030000000  0.5860440000000  0.5004260000000 1.0
C      1  0.5357660000000  0.5971010000000  0.5027010000000 1.0
C      1  0.5981340000000  0.5317640000000  0.5018070000000 1.0
C      1  0.5890140000000  0.4431770000000  0.5018660000000 1.0
C      1  0.5104020000000  0.3999530000000  0.5030400000000 1.0
C      1  0.4276270000000  0.4281620000000  0.5012770000000 1.0
C      1  0.3970800000000  0.5110920000000  0.5009960000000 1.0
C      1  0.4939500000000  0.5823060000000  0.4239530000000 1.0
C      1  0.5628870000000  0.5540120000000  0.4243600000000 1.0
C      1  0.5753630000000  0.4858370000000  0.4242600000000 1.0
C      1  0.5391900000000  0.4360240000000  0.4205970000000 1.0
C      1  0.4715100000000  0.4308430000000  0.4229720000000 1.0
C      1  0.4296100000000  0.4747460000000  0.4232020000000 1.0
C      1  0.4368070000000  0.5419880000000  0.4238220000000 1.0
C      1  0.4251740000000  0.5740040000000  0.4876560000000 1.0
C      1  0.5141410000000  0.6082070000000  0.4874530000000 1.0
C      1  0.5909810000000  0.5552240000000  0.4891130000000 1.0
C      1  0.6020820000000  0.4629700000000  0.4882740000000 1.0
C      1  0.5354130000000  0.3967950000000  0.4903090000000 1.0
C      1  0.4413950000000  0.4069240000000  0.4881010000000 1.0
C      1  0.3925560000000  0.4872590000000  0.4857400000000 1.0
C      1  0.4058430000000  0.4539910000000  0.4579540000000 1.0
C      1  0.4107140000000  0.5395770000000  0.4600580000000 1.0
C      1  0.4785270000000  0.5996440000000  0.4578200000000 1.0
C      1  0.5598110000000  0.5766590000000  0.4633150000000 1.0
C      1  0.5986390000000  0.4991910000000  0.4611950000000 1.0
C      1  0.5658610000000  0.4163060000000  0.4570320000000 1.0
C      1  0.4777320000000  0.4003550000000  0.4582520000000 1.0
C      1  0.4799710000000  0.4768430000000  0.5067580000000 1.0
C      1  0.4607590000000  0.4933990000000  0.5016600000000 1.0
C      1  0.4636880000000  0.5433080000000  0.4964300000000 1.0
C      1  0.5064980000000  0.5273890000000  0.4848590000000 1.0
C      1  0.5321200000000  0.5218610000000  0.4943600000000 1.0
C      1  0.5401140000000  0.4967470000000  0.4946140000000 1.0
C      1  0.5143610000000  0.4639560000000  0.4886300000000 1.0
C      1  0.4597310000000  0.3950790000000  0.5074610000000 1.0
C      1  0.3925480000000  0.4639400000000  0.5037220000000 1.0
C      1  0.4081840000000  0.5588220000000  0.5065380000000 1.0
C      1  0.4911290000000  0.6131550000000  0.5038410000000 1.0
C      1  0.5782690000000  0.5752760000000  0.5054500000000 1.0
C      1  0.6112070000000  0.4842030000000  0.5056840000000 1.0
C      1  0.5578060000000  0.4048400000000  0.5065470000000 1.0
C      1  0.4401060000000  0.4764970000000  0.5041410000000 1.0
C      1  0.4580400000000  0.5196500000000  0.5094780000000 1.0
C      1  0.4906840000000  0.5510880000000  0.5058740000000 1.0
C      1  0.5372730000000  0.5372590000000  0.5182470000000 1.0
C      1  0.5489430000000  0.4916680000000  0.5192180000000 1.0
C      1  0.5346790000000  0.4524760000000  0.5024600000000 1.0
C      1  0.4788830000000  0.4481890000000  0.5081960000000 1.0
C      1  0.4423510000000  0.5667060000000  0.4381210000000 1.0
C      1  0.5205440000000  0.5801170000000  0.4251410000000 1.0
C      1  0.5830510000000  0.5376930000000  0.4328530000000 1.0
C      1  0.5814250000000  0.4611580000000  0.4388460000000 1.0
C      1  0.5173300000000  0.4196970000000  0.4276370000000 1.0
C      1  0.4460350000000  0.4281810000000  0.4372410000000 1.0
C      1  0.4119380000000  0.4956420000000  0.4339080000000 1.0
C      1  0.5823940000000  0.5552880000000  0.4606130000000 1.0
C      1  0.5976540000000  0.4697040000000  0.4610030000000 1.0
C      1  0.5387780000000  0.4069850000000  0.4617940000000 1.0
C      1  0.4503720000000  0.4086900000000  0.4586550000000 1.0
C      1  0.3983220000000  0.4815290000000  0.4568320000000 1.0
C      1  0.4246720000000  0.5657070000000  0.4601760000000 1.0
C      1  0.5074640000000  0.5974370000000  0.4601810000000 1.0
C      1  0.4635800000000  0.4523890000000  0.4685970000000 1.0
C      1  0.4404790000000  0.4943340000000  0.4641590000000 1.0
C      1  0.4565670000000  0.5360670000000  0.4699360000000 1.0
C      1  0.5128010000000  0.5664490000000  0.4673950000000 1.0
C      1  0.5557450000000  0.5328870000000  0.4647110000000 1.0
C      1  0.5506680000000  0.4844350000000  0.4696750000000 1.0
C      1  0.5316110000000  0.4354970000000  0.4626150000000 1.0
C      1  0.5718530000000  0.4247290000000  0.4870410000000 1.0
C      1  0.4846600000000  0.4010440000000  0.4883800000000 1.0
C      1  0.4077350000000  0.4449710000000  0.4869580000000 1.0
C      1  0.3986220000000  0.5371240000000  0.4896240000000 1.0
C      1  0.4722620000000  0.5945120000000  0.4872500000000 1.0
C      1  0.5596520000000  0.5899290000000  0.4901620000000 1.0
C      1  0.6060850000000  0.5075510000000  0.4897490000000 1.0
C      1  0.4740310000000  0.5246750000000  0.4491930000000 1.0
C      1  0.5043140000000  0.5382810000000  0.4573580000000 1.0
C      1  0.5282470000000  0.5260820000000  0.4441360000000 1.0
C      1  0.5302360000000  0.4955180000000  0.4467240000000 1.0
C      1  0.5086620000000  0.4504060000000  0.4653980000000 1.0
C      1  0.4862740000000  0.4641530000000  0.4545910000000 1.0
C      1  0.4624170000000  0.4970830000000  0.4459820000000 1.0
C      1  0.4765330000000  0.4319870000000  0.4852920000000 1.0
C      1  0.4394670000000  0.4679640000000  0.4771360000000 1.0
C      1  0.4326120000000  0.5208880000000  0.4724490000000 1.0
C      1  0.4909520000000  0.5707830000000  0.4858920000000 1.0
C      1  0.5420000000000  0.5565030000000  0.4759830000000 1.0
C      1  0.5695990000000  0.5071320000000  0.4700510000000 1.0
C      1  0.5503110000000  0.4492620000000  0.4792360000000 1.0
C      1  0.5279370000000  0.5050880000000  0.5983980000000 1.0
C      1  0.5241430000000  0.4756530000000  0.6056500000000 1.0
C      1  0.4968550000000  0.4657780000000  0.6015480000000 1.0
C      1  0.4727740000000  0.4809120000000  0.6013610000000 1.0
C      1  0.4675850000000  0.5088050000000  0.6073580000000 1.0
C      1  0.4891610000000  0.5267350000000  0.6130800000000 1.0
C      1  0.5156290000000  0.5344630000000  0.6080030000000 1.0
C      1  0.3941260000000  0.4875520000000  0.5498440000000 1.0
C      1  0.4313550000000  0.5746600000000  0.5480660000000 1.0
C      1  0.5111950000000  0.6026000000000  0.5505650000000 1.0
C      1  0.5892550000000  0.5523160000000  0.5505920000000 1.0
C      1  0.5985040000000  0.4616990000000  0.5513170000000 1.0
C      1  0.5320890000000  0.4040410000000  0.5498780000000 1.0
C      1  0.4411140000000  0.4147820000000  0.5510310000000 1.0
C      1  0.5332880000000  0.4994060000000  0.3923470000000 1.0
C      1  0.5194290000000  0.4743520000000  0.3879710000000 1.0
C      1  0.4906320000000  0.4676820000000  0.3889840000000 1.0
C      1  0.4677160000000  0.4864530000000  0.3906140000000 1.0
C      1  0.4690300000000  0.5149060000000  0.3914870000000 1.0
C      1  0.4922410000000  0.5312600000000  0.3851280000000 1.0
C      1  0.5207910000000  0.5255830000000  0.3913600000000 1.0
C      1  0.4930230000000  0.5044260000000  0.5593460000000 1.0
C      1  0.5008940000000  0.4897210000000  0.4514270000000 1.0
C      1  0.5030890000000  0.5033680000000  0.5844350000000 1.0
C      1  0.5009030000000  0.4843880000000  0.4965810000000 1.0
C      1  0.4971550000000  0.5020890000000  0.4772710000000 1.0
END
