TITL C-2441168-9922-1334 0.0449755115171374 125000 -27292.4940923919 0 0 188 (C1) n - 1
REM
REM in /home/bkarasulu/work/CARBON/AIRSS/Generating-Clusters/ReaxFF-fromJPCA2015/Units_Real/with-SteepDescent/Higher-Symm
REM
REM
REM
REM
REM
REM ./C.cell (1df0a924f5614ab8850e4351716899ee)
REM
REM compiler GCC version 9.2.1 20190827 (Red Hat 9.2.1-1)
REM options -cpp -mtune=generic -march=x86-64 -g -O0 -fpre-include=/usr/include/finclude/math-vector-fortran.h
REM seed -401550617 -1326111344 -1300778459 2095607842 -2031185881 2011047790 -1970854548 -362043896 1789142497 -454171430 -783751318 1654164566 1089128928 1872369364 662514148 1849019511 -1460191990 991178252 1713468788 -916930849 1170377171 1180177895 1266923960 -1641113874 -1207171839 -1267618815 -1907481949 -885574976 -1201939039 -1159942798 -428677465 -1614201160 -582717312
REM
CELL 1.54180   50.00000   50.00000   50.00000   90.00000   90.00000   90.00000
LATT -1
SFAC C  
C      1  0.5874230000000  0.4879700000000  0.4150360000000 1.0
C      1  0.4997990000000  0.6036980000000  0.4755380000000 1.0
C      1  0.5751410000000  0.4444170000000  0.4332160000000 1.0
C      1  0.4450410000000  0.4947670000000  0.5183510000000 1.0
C      1  0.5957040000000  0.5289810000000  0.5513930000000 1.0
C      1  0.5916830000000  0.5285370000000  0.4797040000000 1.0
C      1  0.5255240000000  0.5669060000000  0.4820860000000 1.0
C      1  0.5242520000000  0.4581620000000  0.5471440000000 1.0
C      1  0.5240310000000  0.5516840000000  0.5903150000000 1.0
C      1  0.5162280000000  0.5057170000000  0.5581340000000 1.0
C      1  0.5694070000000  0.4428880000000  0.5722780000000 1.0
C      1  0.4714000000000  0.6055600000000  0.4702120000000 1.0
C      1  0.5328580000000  0.5843410000000  0.5497140000000 1.0
C      1  0.4567710000000  0.6004740000000  0.5484220000000 1.0
C      1  0.3955810000000  0.4693100000000  0.4756580000000 1.0
C      1  0.5623800000000  0.5110770000000  0.5138150000000 1.0
C      1  0.5049390000000  0.4065860000000  0.5527300000000 1.0
C      1  0.5136450000000  0.3955440000000  0.5259860000000 1.0
C      1  0.4072970000000  0.4683510000000  0.5246290000000 1.0
C      1  0.4405800000000  0.5796480000000  0.5602540000000 1.0
C      1  0.4686570000000  0.3947800000000  0.5107460000000 1.0
C      1  0.5714660000000  0.4690400000000  0.4005050000000 1.0
C      1  0.4796480000000  0.4253550000000  0.5187660000000 1.0
C      1  0.4154660000000  0.4588220000000  0.4989580000000 1.0
C      1  0.5038480000000  0.3876720000000  0.4755450000000 1.0
C      1  0.5655720000000  0.5641160000000  0.4438550000000 1.0
C      1  0.5186580000000  0.4419360000000  0.5905510000000 1.0
C      1  0.5960830000000  0.5009110000000  0.5616290000000 1.0
C      1  0.4144710000000  0.4428340000000  0.4549130000000 1.0
C      1  0.5252920000000  0.4255900000000  0.4296070000000 1.0
C      1  0.4939220000000  0.4782610000000  0.4548010000000 1.0
C      1  0.6132410000000  0.4792770000000  0.4932790000000 1.0
C      1  0.5324270000000  0.4506160000000  0.4671540000000 1.0
C      1  0.6019280000000  0.4865110000000  0.5368960000000 1.0
C      1  0.4493770000000  0.5120210000000  0.4983460000000 1.0
C      1  0.5466890000000  0.5211890000000  0.4005550000000 1.0
C      1  0.6123200000000  0.5005700000000  0.5139290000000 1.0
C      1  0.4676940000000  0.5192160000000  0.4547870000000 1.0
C      1  0.4367220000000  0.4889450000000  0.5593360000000 1.0
C      1  0.4517270000000  0.4945300000000  0.5971960000000 1.0
C      1  0.5311380000000  0.5441130000000  0.4084100000000 1.0
C      1  0.4819860000000  0.5458460000000  0.4569060000000 1.0
C      1  0.4578460000000  0.4032240000000  0.4580620000000 1.0
C      1  0.4512230000000  0.5147220000000  0.5604240000000 1.0
C      1  0.5742740000000  0.5903780000000  0.5093060000000 1.0
C      1  0.5702090000000  0.5163370000000  0.4415290000000 1.0
C      1  0.5304070000000  0.5440640000000  0.5258950000000 1.0
C      1  0.4044670000000  0.5192330000000  0.4844190000000 1.0
C      1  0.4264460000000  0.4171040000000  0.4566770000000 1.0
C      1  0.4578430000000  0.4350140000000  0.5032440000000 1.0
C      1  0.5658310000000  0.4509520000000  0.5085970000000 1.0
C      1  0.5166230000000  0.5737700000000  0.5715760000000 1.0
C      1  0.4473860000000  0.4131980000000  0.5561710000000 1.0
C      1  0.5055990000000  0.5171450000000  0.4321210000000 1.0
C      1  0.4412410000000  0.5467980000000  0.4261060000000 1.0
C      1  0.5930870000000  0.4578280000000  0.5293180000000 1.0
C      1  0.5312970000000  0.4953620000000  0.4009880000000 1.0
C      1  0.5492830000000  0.5623980000000  0.5396940000000 1.0
C      1  0.4234040000000  0.4825800000000  0.4261000000000 1.0
C      1  0.4644230000000  0.5602760000000  0.5651960000000 1.0
C      1  0.5016390000000  0.5481110000000  0.4782480000000 1.0
C      1  0.4929570000000  0.5124230000000  0.5229570000000 1.0
C      1  0.5770550000000  0.4536800000000  0.4833660000000 1.0
C      1  0.5480140000000  0.5369190000000  0.5847040000000 1.0
C      1  0.4059490000000  0.5619360000000  0.4632310000000 1.0
C      1  0.4815450000000  0.5409100000000  0.6003980000000 1.0
C      1  0.6069160000000  0.5285170000000  0.5055900000000 1.0
C      1  0.5669270000000  0.4200650000000  0.4484220000000 1.0
C      1  0.5482400000000  0.6032040000000  0.5036590000000 1.0
C      1  0.4386440000000  0.5246980000000  0.5859240000000 1.0
C      1  0.4775040000000  0.4095930000000  0.5630340000000 1.0
C      1  0.4177880000000  0.5620390000000  0.5553010000000 1.0
C      1  0.4145250000000  0.5365250000000  0.5678720000000 1.0
C      1  0.6004620000000  0.5472390000000  0.5277820000000 1.0
C      1  0.4291160000000  0.4283250000000  0.5058700000000 1.0
C      1  0.5105100000000  0.5283140000000  0.5390600000000 1.0
C      1  0.4573980000000  0.5471820000000  0.5932760000000 1.0
C      1  0.4731920000000  0.4508930000000  0.5404090000000 1.0
C      1  0.5106650000000  0.5861510000000  0.4983110000000 1.0
C      1  0.5295670000000  0.3985340000000  0.4735500000000 1.0
C      1  0.4467530000000  0.4350490000000  0.5754300000000 1.0
C      1  0.4977650000000  0.3842440000000  0.5048610000000 1.0
C      1  0.5878330000000  0.4786110000000  0.4722290000000 1.0
C      1  0.4215820000000  0.5740700000000  0.5164830000000 1.0
C      1  0.4976440000000  0.6105470000000  0.5315920000000 1.0
C      1  0.4380510000000  0.4582970000000  0.4599060000000 1.0
C      1  0.4574660000000  0.5950450000000  0.4441230000000 1.0
C      1  0.4193160000000  0.4940170000000  0.5355710000000 1.0
C      1  0.5152560000000  0.4570220000000  0.5183370000000 1.0
C      1  0.5459710000000  0.4958920000000  0.4491250000000 1.0
C      1  0.5167250000000  0.5788410000000  0.4371130000000 1.0
C      1  0.5391920000000  0.4795090000000  0.4243930000000 1.0
C      1  0.3917060000000  0.4919220000000  0.4941270000000 1.0
C      1  0.5540510000000  0.5090350000000  0.5935150000000 1.0
C      1  0.4581610000000  0.4845600000000  0.3957630000000 1.0
C      1  0.5091710000000  0.4854400000000  0.4778050000000 1.0
C      1  0.4735710000000  0.4289060000000  0.5847310000000 1.0
C      1  0.5345490000000  0.4772480000000  0.4776700000000 1.0
C      1  0.5398270000000  0.5641110000000  0.4274650000000 1.0
C      1  0.5865020000000  0.4705450000000  0.4393140000000 1.0
C      1  0.4554010000000  0.5391180000000  0.5441070000000 1.0
C      1  0.4030280000000  0.5220800000000  0.5457600000000 1.0
C      1  0.5651980000000  0.4186250000000  0.5393010000000 1.0
C      1  0.5305340000000  0.4108400000000  0.5044570000000 1.0
C      1  0.5407490000000  0.4073830000000  0.4478610000000 1.0
C      1  0.4784360000000  0.5551540000000  0.4962520000000 1.0
C      1  0.5779340000000  0.5041580000000  0.4861070000000 1.0
C      1  0.4839710000000  0.5006340000000  0.4395090000000 1.0
C      1  0.4603140000000  0.5705810000000  0.4286900000000 1.0
C      1  0.4832720000000  0.4422340000000  0.4058650000000 1.0
C      1  0.4655530000000  0.4597370000000  0.4918280000000 1.0
C      1  0.4920590000000  0.4511940000000  0.5888470000000 1.0
C      1  0.5210350000000  0.5998230000000  0.4565180000000 1.0
C      1  0.4901650000000  0.5626610000000  0.4333240000000 1.0
C      1  0.4558350000000  0.6048200000000  0.4941840000000 1.0
C      1  0.4543420000000  0.5530930000000  0.4796710000000 1.0
C      1  0.4936660000000  0.4902690000000  0.5683470000000 1.0
C      1  0.5060930000000  0.5031900000000  0.6073700000000 1.0
C      1  0.5372200000000  0.4634810000000  0.5971070000000 1.0
C      1  0.4837950000000  0.6068290000000  0.5574920000000 1.0
C      1  0.5690970000000  0.5864850000000  0.4621140000000 1.0
C      1  0.4977640000000  0.5054150000000  0.4918060000000 1.0
C      1  0.4350530000000  0.5344250000000  0.4964570000000 1.0
C      1  0.5005640000000  0.5395640000000  0.4122160000000 1.0
C      1  0.4064870000000  0.4836990000000  0.4500800000000 1.0
C      1  0.4843730000000  0.4865920000000  0.5957440000000 1.0
C      1  0.5460900000000  0.4322010000000  0.5582460000000 1.0
C      1  0.5348280000000  0.4856980000000  0.5477940000000 1.0
C      1  0.5641930000000  0.4664770000000  0.5872890000000 1.0
C      1  0.3943740000000  0.5402330000000  0.5268990000000 1.0
C      1  0.4506510000000  0.3939430000000  0.4834830000000 1.0
C      1  0.5798180000000  0.5406810000000  0.4539920000000 1.0
C      1  0.4381370000000  0.5494910000000  0.5228070000000 1.0
C      1  0.4820300000000  0.4564270000000  0.4684180000000 1.0
C      1  0.4366520000000  0.5001090000000  0.4063120000000 1.0
C      1  0.4947310000000  0.4602650000000  0.5605180000000 1.0
C      1  0.3945800000000  0.5622510000000  0.5102820000000 1.0
C      1  0.5519460000000  0.4537760000000  0.4148210000000 1.0
C      1  0.4362900000000  0.5263180000000  0.4458950000000 1.0
C      1  0.3915470000000  0.5472510000000  0.4844280000000 1.0
C      1  0.4879580000000  0.5751490000000  0.5132970000000 1.0
C      1  0.4334120000000  0.5729840000000  0.4693240000000 1.0
C      1  0.5852980000000  0.4370980000000  0.5493100000000 1.0
C      1  0.4714660000000  0.5978290000000  0.5196820000000 1.0
C      1  0.4276630000000  0.4224040000000  0.5362420000000 1.0
C      1  0.5558680000000  0.5418060000000  0.5577230000000 1.0
C      1  0.4858890000000  0.3989030000000  0.4533830000000 1.0
C      1  0.4774300000000  0.5265110000000  0.3967890000000 1.0
C      1  0.5033180000000  0.4555780000000  0.3914980000000 1.0
C      1  0.4312130000000  0.5903840000000  0.4933870000000 1.0
C      1  0.5422790000000  0.4701070000000  0.5060100000000 1.0
C      1  0.4887860000000  0.5805350000000  0.5685650000000 1.0
C      1  0.5227880000000  0.4210240000000  0.5710600000000 1.0
C      1  0.5691890000000  0.5236680000000  0.5409680000000 1.0
C      1  0.4247380000000  0.4066870000000  0.4834900000000 1.0
C      1  0.5260180000000  0.5171320000000  0.4524710000000 1.0
C      1  0.6146960000000  0.4535820000000  0.5059590000000 1.0
C      1  0.4719620000000  0.4938510000000  0.5291720000000 1.0
C      1  0.4133860000000  0.5113930000000  0.4564620000000 1.0
C      1  0.5069590000000  0.4845410000000  0.3892930000000 1.0
C      1  0.5517080000000  0.5556830000000  0.4857090000000 1.0
C      1  0.4392490000000  0.4810320000000  0.6137590000000 1.0
C      1  0.5262180000000  0.6021630000000  0.5270200000000 1.0
C      1  0.5727860000000  0.5151390000000  0.4129320000000 1.0
C      1  0.5050640000000  0.4389120000000  0.4712320000000 1.0
C      1  0.4443970000000  0.4592920000000  0.5561590000000 1.0
C      1  0.4828290000000  0.4686310000000  0.5189790000000 1.0
C      1  0.4701680000000  0.5085920000000  0.4813440000000 1.0
C      1  0.5412100000000  0.5319870000000  0.5015990000000 1.0
C      1  0.5474030000000  0.4901140000000  0.5233290000000 1.0
C      1  0.5007160000000  0.4224200000000  0.4447280000000 1.0
C      1  0.5066150000000  0.4318980000000  0.5044220000000 1.0
C      1  0.4190380000000  0.4489600000000  0.5423770000000 1.0
C      1  0.5323260000000  0.4916910000000  0.6035720000000 1.0
C      1  0.4389100000000  0.4712000000000  0.4861020000000 1.0
C      1  0.4630420000000  0.4609680000000  0.4117570000000 1.0
C      1  0.5460680000000  0.6017270000000  0.4745170000000 1.0
C      1  0.5768470000000  0.5717480000000  0.4862710000000 1.0
C      1  0.5805190000000  0.5684960000000  0.5272770000000 1.0
C      1  0.5181310000000  0.5239760000000  0.4806010000000 1.0
C      1  0.4495000000000  0.5270650000000  0.4057770000000 1.0
C      1  0.5745660000000  0.4930330000000  0.5816880000000 1.0
C      1  0.4819470000000  0.4999960000000  0.3874770000000 1.0
C      1  0.5062360000000  0.5341910000000  0.6072260000000 1.0
C      1  0.5561410000000  0.4235990000000  0.5127830000000 1.0
C      1  0.4442050000000  0.4645630000000  0.4323020000000 1.0
C      1  0.5579170000000  0.4375910000000  0.4697660000000 1.0
C      1  0.5095090000000  0.4316420000000  0.4057830000000 1.0
END
