TITL C-2441163-1170-696 0.00763266650006545 125000 -9566.28802849214 0 0 70 (C1) n - 1
REM
REM in /home/bkarasulu/work/CARBON/AIRSS/Generating-Clusters/ReaxFF-fromJPCA2015/Units_Real/with-SteepDescent/Higher-Symm
REM
REM
REM
REM
REM
REM ./C.cell (1df0a924f5614ab8850e4351716899ee)
REM
REM compiler GCC version 9.2.1 20190827 (Red Hat 9.2.1-1)
REM options -cpp -mtune=generic -march=x86-64 -g -O0 -fpre-include=/usr/include/finclude/math-vector-fortran.h
REM seed 742717292 -2068380560 -1861016655 -2014215238 881974716 -1621149329 -569098303 -833542067 1645069668 1262153756 1048229933 463465737 1119708571 115994322 -234568613 -1018160314 1081145953 -1225758057 -1176304693 -2102262478 -1073562211 1657632185 -1411395285 234424330 -2100938247 -1932103268 -524823185 -2098180692 -429796051 42926093 1361502041 -922908010 114028220
REM
CELL 1.54180   50.00000   50.00000   50.00000   90.00000   90.00000   90.00000
LATT -1
SFAC C  
C      1  0.5503730000000  0.5598310000000  0.4802520000000 1.0
C      1  0.4562740000000  0.5597570000000  0.4644410000000 1.0
C      1  0.4881510000000  0.5570110000000  0.5521980000000 1.0
C      1  0.5529100000000  0.4426290000000  0.5109310000000 1.0
C      1  0.4638400000000  0.4421980000000  0.5403910000000 1.0
C      1  0.4864530000000  0.4399010000000  0.4442090000000 1.0
C      1  0.5651310000000  0.5362270000000  0.4673900000000 1.0
C      1  0.4376210000000  0.5362790000000  0.4597090000000 1.0
C      1  0.4903680000000  0.5311510000000  0.5736340000000 1.0
C      1  0.5504840000000  0.4683000000000  0.5275860000000 1.0
C      1  0.4506660000000  0.4697110000000  0.5345300000000 1.0
C      1  0.5014500000000  0.4655100000000  0.4390290000000 1.0
C      1  0.4627630000000  0.4471850000000  0.4924720000000 1.0
C      1  0.5093120000000  0.4462270000000  0.5215710000000 1.0
C      1  0.5160650000000  0.4463880000000  0.4784120000000 1.0
C      1  0.4677830000000  0.5486650000000  0.5070000000000 1.0
C      1  0.5090950000000  0.5454240000000  0.4612170000000 1.0
C      1  0.5275000000000  0.5458970000000  0.5275620000000 1.0
C      1  0.5541570000000  0.4838630000000  0.4707380000000 1.0
C      1  0.4453100000000  0.4827170000000  0.4720240000000 1.0
C      1  0.5071310000000  0.4841010000000  0.5639810000000 1.0
C      1  0.5622230000000  0.5169530000000  0.5363350000000 1.0
C      1  0.4478310000000  0.5197620000000  0.5365910000000 1.0
C      1  0.4966690000000  0.5154480000000  0.4304640000000 1.0
C      1  0.5736060000000  0.4929340000000  0.5211230000000 1.0
C      1  0.4782960000000  0.4909960000000  0.4285570000000 1.0
C      1  0.4457910000000  0.5005200000000  0.5597670000000 1.0
C      1  0.5799730000000  0.5184210000000  0.4861430000000 1.0
C      1  0.4871830000000  0.5001130000000  0.5784500000000 1.0
C      1  0.4452710000000  0.5163170000000  0.4395360000000 1.0
C      1  0.4513450000000  0.4884510000000  0.4439790000000 1.0
C      1  0.4655580000000  0.4862050000000  0.5677650000000 1.0
C      1  0.5751100000000  0.4903200000000  0.4900100000000 1.0
C      1  0.4572450000000  0.5253520000000  0.5634730000000 1.0
C      1  0.4692480000000  0.5192850000000  0.4223010000000 1.0
C      1  0.5810180000000  0.5226280000000  0.5153430000000 1.0
C      1  0.4573740000000  0.4334540000000  0.5144970000000 1.0
C      1  0.5332200000000  0.4301300000000  0.5288230000000 1.0
C      1  0.4995380000000  0.4275640000000  0.4654160000000 1.0
C      1  0.4585960000000  0.5656190000000  0.4925330000000 1.0
C      1  0.5247990000000  0.5645030000000  0.4683560000000 1.0
C      1  0.5110160000000  0.5632500000000  0.5369140000000 1.0
C      1  0.4730370000000  0.4324770000000  0.4683580000000 1.0
C      1  0.4926160000000  0.4415090000000  0.5453400000000 1.0
C      1  0.5442720000000  0.4413540000000  0.4830530000000 1.0
C      1  0.4720070000000  0.5593420000000  0.5298370000000 1.0
C      1  0.4849070000000  0.5585070000000  0.4622580000000 1.0
C      1  0.5379890000000  0.5593430000000  0.5060700000000 1.0
C      1  0.5181630000000  0.5311220000000  0.5655130000000 1.0
C      1  0.5448760000000  0.5327630000000  0.4484110000000 1.0
C      1  0.4311910000000  0.5350160000000  0.4872190000000 1.0
C      1  0.5322560000000  0.4596720000000  0.4355110000000 1.0
C      1  0.5391340000000  0.4490790000000  0.5506830000000 1.0
C      1  0.4299470000000  0.4622660000000  0.5144100000000 1.0
C      1  0.4345130000000  0.5277790000000  0.5129040000000 1.0
C      1  0.5430500000000  0.5327960000000  0.5523120000000 1.0
C      1  0.5204750000000  0.5320900000000  0.4343010000000 1.0
C      1  0.4340140000000  0.4590860000000  0.4864640000000 1.0
C      1  0.5510800000000  0.4571120000000  0.4577010000000 1.0
C      1  0.5126760000000  0.4549620000000  0.5626140000000 1.0
C      1  0.5084760000000  0.4726130000000  0.4676600000000 1.0
C      1  0.4689170000000  0.4728940000000  0.5089090000000 1.0
C      1  0.5219000000000  0.4731640000000  0.5198640000000 1.0
C      1  0.5110940000000  0.5205730000000  0.5234210000000 1.0
C      1  0.4741330000000  0.5220990000000  0.4962550000000 1.0
C      1  0.5157370000000  0.5207810000000  0.4781610000000 1.0
C      1  0.5122520000000  0.4949800000000  0.5364960000000 1.0
C      1  0.4610140000000  0.4958750000000  0.4930910000000 1.0
C      1  0.5271010000000  0.4952270000000  0.4705200000000 1.0
C      1  0.5003270000000  0.5165010000000  0.4993240000000 1.0
END
