TITL C-2441165-58-975 0.139880420504429 125000 -25336.5745222544 0 0 194 (C1) n - 1
REM
REM in /home/bkarasulu/work/CARBON/AIRSS/Generating-Clusters/ReaxFF-fromJPCA2015/Units_Real/with-SteepDescent/Higher-Symm
REM
REM
REM
REM
REM
REM ./C.cell (1df0a924f5614ab8850e4351716899ee)
REM
REM compiler GCC version 9.2.1 20190827 (Red Hat 9.2.1-1)
REM options -cpp -mtune=generic -march=x86-64 -g -O0 -fpre-include=/usr/include/finclude/math-vector-fortran.h
REM seed 726112361 -1429825095 -1962087971 -953669877 1377222325 631635307 1899247210 589174490 -1816114086 -1464287734 -1712775302 -1822767171 -1257751497 -168558059 1428959751 -1586518205 1959560684 -785812116 -1784726055 618369161 186706465 569413527 854588561 -128264885 871486974 -783041511 -2114123053 820109857 -589958383 -863141316 588288836 1570812357 -267617238
REM
CELL 1.54180   50.00000   50.00000   50.00000   90.00000   90.00000   90.00000
LATT -1
SFAC C  
C      1  0.5568970000000  0.4493620000000  0.4414010000000 1.0
C      1  0.4428150000000  0.4474640000000  0.5595130000000 1.0
C      1  0.5724580000000  0.5014550000000  0.5359150000000 1.0
C      1  0.4263900000000  0.5006560000000  0.4654450000000 1.0
C      1  0.4843870000000  0.4682240000000  0.4261050000000 1.0
C      1  0.5162550000000  0.4685940000000  0.5737220000000 1.0
C      1  0.5481430000000  0.5904710000000  0.4435980000000 1.0
C      1  0.4494110000000  0.5889410000000  0.5536250000000 1.0
C      1  0.5487380000000  0.4502390000000  0.5121850000000 1.0
C      1  0.4551980000000  0.4470990000000  0.4925610000000 1.0
C      1  0.5498090000000  0.5644560000000  0.4285390000000 1.0
C      1  0.4463730000000  0.5645210000000  0.5694190000000 1.0
C      1  0.4362100000000  0.5043520000000  0.5037850000000 1.0
C      1  0.5702580000000  0.5002790000000  0.4951670000000 1.0
C      1  0.4967180000000  0.5315220000000  0.5119450000000 1.0
C      1  0.5039760000000  0.5281680000000  0.4835760000000 1.0
C      1  0.5086460000000  0.4116160000000  0.5269780000000 1.0
C      1  0.4932660000000  0.4126070000000  0.4722270000000 1.0
C      1  0.5726440000000  0.4334200000000  0.4589550000000 1.0
C      1  0.4268020000000  0.4320310000000  0.5412160000000 1.0
C      1  0.4327350000000  0.4783880000000  0.4268060000000 1.0
C      1  0.5678530000000  0.4794980000000  0.5754870000000 1.0
C      1  0.6136530000000  0.4817080000000  0.5016140000000 1.0
C      1  0.3917560000000  0.4806560000000  0.4960800000000 1.0
C      1  0.5258490000000  0.5324380000000  0.6019890000000 1.0
C      1  0.4759090000000  0.5321780000000  0.3990070000000 1.0
C      1  0.4113930000000  0.5633700000000  0.4803870000000 1.0
C      1  0.5907530000000  0.5626500000000  0.5172510000000 1.0
C      1  0.4118910000000  0.5116210000000  0.5591970000000 1.0
C      1  0.5879360000000  0.5136980000000  0.4420270000000 1.0
C      1  0.4844090000000  0.6037310000000  0.5182450000000 1.0
C      1  0.5150750000000  0.6054890000000  0.4817050000000 1.0
C      1  0.4359830000000  0.4796100000000  0.5345020000000 1.0
C      1  0.5620590000000  0.4800730000000  0.4694430000000 1.0
C      1  0.4139490000000  0.5188570000000  0.4308270000000 1.0
C      1  0.5844270000000  0.5232660000000  0.5676660000000 1.0
C      1  0.4520210000000  0.5124200000000  0.5916120000000 1.0
C      1  0.5477490000000  0.5135470000000  0.4101280000000 1.0
C      1  0.5168400000000  0.5672030000000  0.5177040000000 1.0
C      1  0.4834170000000  0.5688180000000  0.4828670000000 1.0
C      1  0.4860010000000  0.5346700000000  0.5599110000000 1.0
C      1  0.5116880000000  0.5498430000000  0.4384210000000 1.0
C      1  0.5920420000000  0.4740940000000  0.5589700000000 1.0
C      1  0.4084340000000  0.4706980000000  0.4433300000000 1.0
C      1  0.5228340000000  0.5965700000000  0.4546840000000 1.0
C      1  0.4755230000000  0.5905460000000  0.5440900000000 1.0
C      1  0.4097760000000  0.5675690000000  0.5089830000000 1.0
C      1  0.5908390000000  0.5618600000000  0.4887730000000 1.0
C      1  0.5323590000000  0.3988490000000  0.5159410000000 1.0
C      1  0.4670660000000  0.3991580000000  0.4829310000000 1.0
C      1  0.4696940000000  0.5421160000000  0.5149880000000 1.0
C      1  0.5299790000000  0.5419300000000  0.4833780000000 1.0
C      1  0.5361900000000  0.5658410000000  0.4980770000000 1.0
C      1  0.4628500000000  0.5657870000000  0.5008460000000 1.0
C      1  0.4748270000000  0.4878690000000  0.3935000000000 1.0
C      1  0.5220400000000  0.4862930000000  0.6087120000000 1.0
C      1  0.5571330000000  0.4863240000000  0.4138440000000 1.0
C      1  0.4414980000000  0.4855500000000  0.5883990000000 1.0
C      1  0.4833210000000  0.4277650000000  0.4481150000000 1.0
C      1  0.5157420000000  0.4297970000000  0.5498080000000 1.0
C      1  0.5978510000000  0.5022870000000  0.5504360000000 1.0
C      1  0.4017570000000  0.5002260000000  0.4502160000000 1.0
C      1  0.5517830000000  0.5266740000000  0.5928710000000 1.0
C      1  0.4501600000000  0.5268940000000  0.4122880000000 1.0
C      1  0.5466420000000  0.4603370000000  0.4861320000000 1.0
C      1  0.4452570000000  0.4603130000000  0.5153580000000 1.0
C      1  0.4784420000000  0.5218660000000  0.5992830000000 1.0
C      1  0.5213740000000  0.5227800000000  0.4012150000000 1.0
C      1  0.5024460000000  0.4836010000000  0.4736530000000 1.0
C      1  0.5006010000000  0.4879050000000  0.5288820000000 1.0
C      1  0.6124170000000  0.5191320000000  0.4848620000000 1.0
C      1  0.3954860000000  0.5228000000000  0.5149020000000 1.0
C      1  0.5601720000000  0.5910370000000  0.4693590000000 1.0
C      1  0.4370650000000  0.5909720000000  0.5280640000000 1.0
C      1  0.5713650000000  0.5801510000000  0.5358600000000 1.0
C      1  0.4307630000000  0.5800780000000  0.4594370000000 1.0
C      1  0.4300770000000  0.4728180000000  0.5640470000000 1.0
C      1  0.5688440000000  0.4749990000000  0.4383090000000 1.0
C      1  0.5278420000000  0.4837190000000  0.4863750000000 1.0
C      1  0.4769870000000  0.4916910000000  0.5167010000000 1.0
C      1  0.5147810000000  0.5884450000000  0.5530310000000 1.0
C      1  0.4816820000000  0.5911900000000  0.4476020000000 1.0
C      1  0.4436270000000  0.5648740000000  0.4373260000000 1.0
C      1  0.5595260000000  0.5671410000000  0.5613170000000 1.0
C      1  0.5175360000000  0.4313120000000  0.4222970000000 1.0
C      1  0.4820680000000  0.4321380000000  0.5772490000000 1.0
C      1  0.4797100000000  0.4110470000000  0.5596680000000 1.0
C      1  0.5209790000000  0.4091950000000  0.4384230000000 1.0
C      1  0.5408540000000  0.4989710000000  0.4651190000000 1.0
C      1  0.4565340000000  0.5010160000000  0.5340800000000 1.0
C      1  0.4185370000000  0.5419990000000  0.5188050000000 1.0
C      1  0.5892920000000  0.5333940000000  0.4909240000000 1.0
C      1  0.5037550000000  0.4374200000000  0.4877970000000 1.0
C      1  0.4838120000000  0.4430800000000  0.5079820000000 1.0
C      1  0.4828460000000  0.5431850000000  0.4685110000000 1.0
C      1  0.5176260000000  0.5405910000000  0.5311170000000 1.0
C      1  0.3950520000000  0.4748580000000  0.5252170000000 1.0
C      1  0.6060920000000  0.4754280000000  0.4740580000000 1.0
C      1  0.5127240000000  0.5958550000000  0.5226050000000 1.0
C      1  0.4860610000000  0.5973070000000  0.4774960000000 1.0
C      1  0.4391830000000  0.5369160000000  0.4386500000000 1.0
C      1  0.5629330000000  0.5391650000000  0.5536700000000 1.0
C      1  0.5382340000000  0.3999560000000  0.4861670000000 1.0
C      1  0.4618240000000  0.4005040000000  0.5118190000000 1.0
C      1  0.5761110000000  0.4818640000000  0.5171030000000 1.0
C      1  0.4201560000000  0.4880350000000  0.4893450000000 1.0
C      1  0.5239850000000  0.4574280000000  0.6005300000000 1.0
C      1  0.4739720000000  0.4586330000000  0.3990600000000 1.0
C      1  0.5036680000000  0.5023430000000  0.4506950000000 1.0
C      1  0.4975800000000  0.5072780000000  0.5550490000000 1.0
C      1  0.5257560000000  0.4916710000000  0.5135520000000 1.0
C      1  0.4769220000000  0.4910270000000  0.4888080000000 1.0
C      1  0.6054600000000  0.5020560000000  0.4610740000000 1.0
C      1  0.3975090000000  0.5020770000000  0.5368080000000 1.0
C      1  0.5953910000000  0.5342780000000  0.5187420000000 1.0
C      1  0.4010980000000  0.5387220000000  0.4774030000000 1.0
C      1  0.4204880000000  0.4162170000000  0.4972670000000 1.0
C      1  0.5795740000000  0.4167800000000  0.5018610000000 1.0
C      1  0.3993790000000  0.4353780000000  0.5036500000000 1.0
C      1  0.6009980000000  0.4356490000000  0.4952920000000 1.0
C      1  0.5166210000000  0.4766810000000  0.4006100000000 1.0
C      1  0.4822640000000  0.4765970000000  0.6009630000000 1.0
C      1  0.5460440000000  0.5269960000000  0.4653700000000 1.0
C      1  0.4495320000000  0.5302730000000  0.5321240000000 1.0
C      1  0.4614840000000  0.4706500000000  0.4706220000000 1.0
C      1  0.5375520000000  0.4705610000000  0.5302380000000 1.0
C      1  0.4499950000000  0.4917080000000  0.4534220000000 1.0
C      1  0.5492540000000  0.4935740000000  0.5495110000000 1.0
C      1  0.5373770000000  0.5412970000000  0.4423600000000 1.0
C      1  0.4601530000000  0.5416680000000  0.5562810000000 1.0
C      1  0.4765490000000  0.4471900000000  0.6019760000000 1.0
C      1  0.5223770000000  0.4476120000000  0.3981030000000 1.0
C      1  0.5963750000000  0.4479800000000  0.4695610000000 1.0
C      1  0.4033930000000  0.4476250000000  0.5297590000000 1.0
C      1  0.5463710000000  0.5338180000000  0.5286770000000 1.0
C      1  0.4550350000000  0.5341190000000  0.4681240000000 1.0
C      1  0.4354680000000  0.6061810000000  0.4596610000000 1.0
C      1  0.5650120000000  0.6042040000000  0.5432860000000 1.0
C      1  0.5039830000000  0.5106910000000  0.6085800000000 1.0
C      1  0.4952010000000  0.5105800000000  0.3918930000000 1.0
C      1  0.5467800000000  0.5127200000000  0.5090320000000 1.0
C      1  0.4567900000000  0.5137320000000  0.4883000000000 1.0
C      1  0.5414910000000  0.4369240000000  0.5883120000000 1.0
C      1  0.4585620000000  0.4362010000000  0.4103660000000 1.0
C      1  0.5768880000000  0.5685160000000  0.4644070000000 1.0
C      1  0.4214870000000  0.5654480000000  0.5354140000000 1.0
C      1  0.4692990000000  0.5729560000000  0.4285410000000 1.0
C      1  0.5324350000000  0.5733140000000  0.5705980000000 1.0
C      1  0.6129620000000  0.5100900000000  0.5126650000000 1.0
C      1  0.3902800000000  0.5158930000000  0.4873570000000 1.0
C      1  0.4759820000000  0.5103400000000  0.4442430000000 1.0
C      1  0.5271100000000  0.5117150000000  0.5596290000000 1.0
C      1  0.5721330000000  0.5087750000000  0.5894190000000 1.0
C      1  0.4304140000000  0.5060150000000  0.4114340000000 1.0
C      1  0.4429460000000  0.4504850000000  0.4295120000000 1.0
C      1  0.5582310000000  0.4518360000000  0.5703710000000 1.0
C      1  0.5247100000000  0.4540270000000  0.4431200000000 1.0
C      1  0.4742330000000  0.4557560000000  0.5568070000000 1.0
C      1  0.5272260000000  0.4933850000000  0.5820370000000 1.0
C      1  0.4732680000000  0.4933070000000  0.4211840000000 1.0
C      1  0.4365620000000  0.4116160000000  0.5207910000000 1.0
C      1  0.5632890000000  0.4120960000000  0.4784160000000 1.0
C      1  0.4913150000000  0.4568710000000  0.5321130000000 1.0
C      1  0.5086790000000  0.4562330000000  0.4677210000000 1.0
C      1  0.5436350000000  0.4673470000000  0.3951640000000 1.0
C      1  0.4552310000000  0.4665380000000  0.6063380000000 1.0
C      1  0.4333930000000  0.4268250000000  0.4725910000000 1.0
C      1  0.5643720000000  0.4277400000000  0.5249260000000 1.0
C      1  0.4823300000000  0.3992610000000  0.5341390000000 1.0
C      1  0.5197260000000  0.3971350000000  0.4634830000000 1.0
C      1  0.4211310000000  0.5519260000000  0.5666370000000 1.0
C      1  0.5759410000000  0.5542720000000  0.4378020000000 1.0
C      1  0.5127190000000  0.4802490000000  0.4303550000000 1.0
C      1  0.4859570000000  0.4809350000000  0.5716680000000 1.0
C      1  0.5162000000000  0.5566130000000  0.5893580000000 1.0
C      1  0.4863900000000  0.5577010000000  0.4082580000000 1.0
C      1  0.4877980000000  0.5490700000000  0.5854140000000 1.0
C      1  0.5156600000000  0.5510000000000  0.4094370000000 1.0
C      1  0.4914310000000  0.5770740000000  0.5622450000000 1.0
C      1  0.5057650000000  0.5764940000000  0.4465370000000 1.0
C      1  0.4637980000000  0.4144740000000  0.4326620000000 1.0
C      1  0.5358990000000  0.4164150000000  0.5656010000000 1.0
C      1  0.4585610000000  0.5937460000000  0.5075800000000 1.0
C      1  0.5403570000000  0.5940030000000  0.4919110000000 1.0
C      1  0.5718670000000  0.5269580000000  0.4252240000000 1.0
C      1  0.4260660000000  0.5258110000000  0.5779200000000 1.0
C      1  0.4698580000000  0.4537420000000  0.4474150000000 1.0
C      1  0.5312980000000  0.4548310000000  0.5526650000000 1.0
C      1  0.4507720000000  0.4059080000000  0.4596090000000 1.0
C      1  0.5484720000000  0.4068200000000  0.5396110000000 1.0
C      1  0.5871270000000  0.4587030000000  0.5336190000000 1.0
C      1  0.4112550000000  0.4479620000000  0.4608300000000 1.0
C      1  0.3929470000000  0.4536870000000  0.4818760000000 1.0
C      1  0.6093930000000  0.4559810000000  0.5146740000000 1.0
END
