TITL C-2441164-471-578 0.00718715614629906 125000 -4350.16015785586 0 0 34 (C1) n - 1
REM
REM in /home/bkarasulu/work/CARBON/AIRSS/Generating-Clusters/ReaxFF-fromJPCA2015/Units_Real/with-SteepDescent/Higher-Symm
REM
REM
REM
REM
REM
REM ./C.cell (1df0a924f5614ab8850e4351716899ee)
REM
REM compiler GCC version 9.2.1 20190827 (Red Hat 9.2.1-1)
REM options -cpp -mtune=generic -march=x86-64 -g -O0 -fpre-include=/usr/include/finclude/math-vector-fortran.h
REM seed 1825924606 -1056377930 -832485090 -1385017806 -1710936490 359873210 -1507937429 511461696 -1749703205 399764804 997806503 -894757322 -589578886 -1249173702 2102113413 -1689152182 932839484 1419079887 -1567772819 1275356422 -949571642 -835470451 -69118811 2007777871 -990914732 216781430 468785119 -38528024 -1091310735 1746816198 -1374827038 1589165999 -774133459
REM
CELL 1.54180   50.00000   50.00000   50.00000   90.00000   90.00000   90.00000
LATT -1
SFAC C  
C      1  0.5146090000000  0.4768870000000  0.5445270000000 1.0
C      1  0.5473480000000  0.4755760000000  0.4968840000000 1.0
C      1  0.5124760000000  0.4788570000000  0.4556640000000 1.0
C      1  0.4575140000000  0.4691190000000  0.4804350000000 1.0
C      1  0.4624040000000  0.4731000000000  0.5304570000000 1.0
C      1  0.5060110000000  0.4546290000000  0.5269260000000 1.0
C      1  0.5286060000000  0.4531580000000  0.4925500000000 1.0
C      1  0.5050970000000  0.4541490000000  0.4745780000000 1.0
C      1  0.4768110000000  0.4511100000000  0.4880150000000 1.0
C      1  0.4783140000000  0.4517330000000  0.5179220000000 1.0
C      1  0.4994500000000  0.5178520000000  0.4430940000000 1.0
C      1  0.4525060000000  0.5198290000000  0.4827820000000 1.0
C      1  0.4669350000000  0.5146710000000  0.5469680000000 1.0
C      1  0.5347680000000  0.5184670000000  0.5410150000000 1.0
C      1  0.5546780000000  0.5179020000000  0.4830060000000 1.0
C      1  0.4399620000000  0.4914360000000  0.4777660000000 1.0
C      1  0.4616620000000  0.4866470000000  0.5571580000000 1.0
C      1  0.5403690000000  0.4896980000000  0.5516670000000 1.0
C      1  0.5647100000000  0.4889280000000  0.4768740000000 1.0
C      1  0.4970260000000  0.4885080000000  0.4323810000000 1.0
C      1  0.4872300000000  0.5339060000000  0.4656570000000 1.0
C      1  0.4612270000000  0.5304170000000  0.5088870000000 1.0
C      1  0.4905200000000  0.5298250000000  0.5382200000000 1.0
C      1  0.5346840000000  0.5295760000000  0.5150080000000 1.0
C      1  0.5294830000000  0.5318080000000  0.4747620000000 1.0
C      1  0.5189400000000  0.5076190000000  0.4613140000000 1.0
C      1  0.4795410000000  0.5096320000000  0.4792860000000 1.0
C      1  0.4692230000000  0.5011540000000  0.5184760000000 1.0
C      1  0.5079570000000  0.5059680000000  0.5342110000000 1.0
C      1  0.5378720000000  0.5039140000000  0.5031560000000 1.0
C      1  0.4879320000000  0.5424840000000  0.5115300000000 1.0
C      1  0.5084890000000  0.4701690000000  0.5011150000000 1.0
C      1  0.4945320000000  0.4988220000000  0.5018100000000 1.0
C      1  0.5053080000000  0.5440890000000  0.4872080000000 1.0
END
