TITL C-2441163-1170-1203 0.342907115055748 125000 -20923.563008178 0 0 197 (C1) n - 1
REM
REM in /home/bkarasulu/work/CARBON/AIRSS/Generating-Clusters/ReaxFF-fromJPCA2015/Units_Real/with-SteepDescent/Higher-Symm
REM
REM
REM
REM
REM
REM ./C.cell (1df0a924f5614ab8850e4351716899ee)
REM
REM compiler GCC version 9.2.1 20190827 (Red Hat 9.2.1-1)
REM options -cpp -mtune=generic -march=x86-64 -g -O0 -fpre-include=/usr/include/finclude/math-vector-fortran.h
REM seed 1994958299 723314182 -167285825 2008805067 1387025400 -1214707712 -1160964364 -1087179965 1531627904 2010330702 1934359096 2010772729 -13187533 -467825358 1391791070 1263437321 -434026410 480198981 -229657778 857150078 1903237918 379582479 -640069092 -874437108 -127441211 -476425311 882928533 -344204337 -1902958375 -52408641 65666613 -1854843483 1633562367
REM
CELL 1.54180   50.00000   50.00000   50.00000   90.00000   90.00000   90.00000
LATT -1
SFAC C  
C      1  0.5292500000000  0.5802250000000  0.5294210000000 1.0
C      1  0.5827240000000  0.5303390000000  0.5314760000000 1.0
C      1  0.5305180000000  0.5322620000000  0.5806710000000 1.0
C      1  0.4647130000000  0.4168900000000  0.5334270000000 1.0
C      1  0.5317550000000  0.4179610000000  0.4685900000000 1.0
C      1  0.4693480000000  0.5809510000000  0.4672030000000 1.0
C      1  0.4173630000000  0.4693250000000  0.5330150000000 1.0
C      1  0.5813020000000  0.4690630000000  0.4663690000000 1.0
C      1  0.4197600000000  0.5312820000000  0.4686710000000 1.0
C      1  0.4689000000000  0.4676170000000  0.5832430000000 1.0
C      1  0.5302890000000  0.4696090000000  0.4162900000000 1.0
C      1  0.4657820000000  0.5352810000000  0.4199300000000 1.0
C      1  0.4859830000000  0.5870640000000  0.5602930000000 1.0
C      1  0.5859770000000  0.5630330000000  0.4872390000000 1.0
C      1  0.5594310000000  0.4852900000000  0.5859840000000 1.0
C      1  0.5128550000000  0.4131860000000  0.5608360000000 1.0
C      1  0.4868330000000  0.4153000000000  0.4383210000000 1.0
C      1  0.5138850000000  0.5869880000000  0.4387720000000 1.0
C      1  0.4146980000000  0.4400050000000  0.4861530000000 1.0
C      1  0.5836590000000  0.4386910000000  0.5116900000000 1.0
C      1  0.4130290000000  0.5602790000000  0.5133640000000 1.0
C      1  0.4375790000000  0.5131920000000  0.5867080000000 1.0
C      1  0.5588950000000  0.5130640000000  0.4129030000000 1.0
C      1  0.4373820000000  0.4877660000000  0.4116300000000 1.0
C      1  0.5160740000000  0.3933570000000  0.4768280000000 1.0
C      1  0.3949450000000  0.4793350000000  0.5154320000000 1.0
C      1  0.4822040000000  0.5066080000000  0.3933010000000 1.0
C      1  0.4906750000000  0.6044080000000  0.4805240000000 1.0
C      1  0.5166080000000  0.6053550000000  0.5211580000000 1.0
C      1  0.4930970000000  0.3927840000000  0.5174960000000 1.0
C      1  0.6057780000000  0.5212330000000  0.5161080000000 1.0
C      1  0.3966500000000  0.5184650000000  0.4895700000000 1.0
C      1  0.6050210000000  0.4820360000000  0.4917160000000 1.0
C      1  0.5225840000000  0.4823580000000  0.3901910000000 1.0
C      1  0.4794910000000  0.4874740000000  0.6046300000000 1.0
C      1  0.5196340000000  0.5154060000000  0.6042550000000 1.0
C      1  0.5604360000000  0.5834020000000  0.4346790000000 1.0
C      1  0.5812300000000  0.4357270000000  0.5603840000000 1.0
C      1  0.4352610000000  0.5603950000000  0.5813930000000 1.0
C      1  0.4404880000000  0.4191490000000  0.4341160000000 1.0
C      1  0.5614510000000  0.4179590000000  0.5612920000000 1.0
C      1  0.4385300000000  0.5816860000000  0.5660030000000 1.0
C      1  0.4162260000000  0.5647730000000  0.5614170000000 1.0
C      1  0.5815410000000  0.5648530000000  0.4382580000000 1.0
C      1  0.4168300000000  0.4340640000000  0.4365770000000 1.0
C      1  0.5640480000000  0.4373390000000  0.5818340000000 1.0
C      1  0.4368440000000  0.4393880000000  0.4168540000000 1.0
C      1  0.5636680000000  0.5618310000000  0.4178430000000 1.0
C      1  0.5415890000000  0.5433370000000  0.5143180000000 1.0
C      1  0.5439850000000  0.5155970000000  0.5378390000000 1.0
C      1  0.5101400000000  0.5364380000000  0.5370610000000 1.0
C      1  0.4603550000000  0.4517370000000  0.5197010000000 1.0
C      1  0.5426480000000  0.4595140000000  0.4902250000000 1.0
C      1  0.4651230000000  0.5494390000000  0.4894170000000 1.0
C      1  0.4595510000000  0.4905030000000  0.5396500000000 1.0
C      1  0.5319090000000  0.4809670000000  0.4587760000000 1.0
C      1  0.4648160000000  0.5145000000000  0.4596420000000 1.0
C      1  0.4796480000000  0.4582200000000  0.5349300000000 1.0
C      1  0.5126570000000  0.4624200000000  0.4511370000000 1.0
C      1  0.4844860000000  0.5346380000000  0.4545430000000 1.0
C      1  0.4541240000000  0.4108190000000  0.4825570000000 1.0
C      1  0.4054370000000  0.4835740000000  0.4514090000000 1.0
C      1  0.4827880000000  0.4572260000000  0.4112000000000 1.0
C      1  0.5434030000000  0.5903980000000  0.4829850000000 1.0
C      1  0.4507710000000  0.5934160000000  0.5163180000000 1.0
C      1  0.5436130000000  0.4092210000000  0.5153520000000 1.0
C      1  0.5891010000000  0.5180590000000  0.4534650000000 1.0
C      1  0.4079960000000  0.5177660000000  0.5453440000000 1.0
C      1  0.5915400000000  0.4844260000000  0.5456330000000 1.0
C      1  0.5155740000000  0.5463220000000  0.4064430000000 1.0
C      1  0.4807090000000  0.5452330000000  0.5891220000000 1.0
C      1  0.5168050000000  0.4532210000000  0.5905780000000 1.0
C      1  0.5036920000000  0.4500250000000  0.4913180000000 1.0
C      1  0.4532640000000  0.4787970000000  0.4929350000000 1.0
C      1  0.4888530000000  0.4967720000000  0.4716780000000 1.0
C      1  0.5042930000000  0.5438560000000  0.4888150000000 1.0
C      1  0.4990240000000  0.5270880000000  0.5098410000000 1.0
C      1  0.5028740000000  0.4685080000000  0.5282610000000 1.0
C      1  0.5336730000000  0.5068050000000  0.4897550000000 1.0
C      1  0.4561320000000  0.5118600000000  0.5035410000000 1.0
C      1  0.5335860000000  0.4890990000000  0.5065390000000 1.0
C      1  0.5170530000000  0.5027890000000  0.4698630000000 1.0
C      1  0.4855470000000  0.4989080000000  0.5486210000000 1.0
C      1  0.5081400000000  0.4899400000000  0.5161260000000 1.0
C      1  0.4655140000000  0.4576290000000  0.4821930000000 1.0
C      1  0.4436270000000  0.4689800000000  0.4529730000000 1.0
C      1  0.4671260000000  0.4559830000000  0.4568170000000 1.0
C      1  0.5453500000000  0.5483340000000  0.4667520000000 1.0
C      1  0.4591890000000  0.5548140000000  0.5311460000000 1.0
C      1  0.5355150000000  0.4496230000000  0.5344410000000 1.0
C      1  0.5503350000000  0.5231210000000  0.4601140000000 1.0
C      1  0.4493030000000  0.5312240000000  0.5441990000000 1.0
C      1  0.5553020000000  0.4672520000000  0.5384770000000 1.0
C      1  0.5314550000000  0.5377930000000  0.4450990000000 1.0
C      1  0.4724700000000  0.5379340000000  0.5481640000000 1.0
C      1  0.5181470000000  0.4634070000000  0.5492220000000 1.0
C      1  0.5117090000000  0.4396760000000  0.4668720000000 1.0
C      1  0.4394270000000  0.4661810000000  0.5139930000000 1.0
C      1  0.4673490000000  0.5081820000000  0.4315480000000 1.0
C      1  0.4875910000000  0.5562890000000  0.4692760000000 1.0
C      1  0.5056470000000  0.5632320000000  0.5278780000000 1.0
C      1  0.4893790000000  0.4317330000000  0.5334000000000 1.0
C      1  0.5652220000000  0.5314420000000  0.5073250000000 1.0
C      1  0.4423300000000  0.5328600000000  0.4886980000000 1.0
C      1  0.5639000000000  0.4691960000000  0.4862140000000 1.0
C      1  0.5361890000000  0.4915610000000  0.4335500000000 1.0
C      1  0.4665240000000  0.4873480000000  0.5637120000000 1.0
C      1  0.5307090000000  0.5094740000000  0.5615020000000 1.0
C      1  0.4613170000000  0.4217530000000  0.4534160000000 1.0
C      1  0.4181480000000  0.4549210000000  0.4575920000000 1.0
C      1  0.4528460000000  0.4632700000000  0.4196500000000 1.0
C      1  0.5389510000000  0.5861840000000  0.4539620000000 1.0
C      1  0.4586620000000  0.5837360000000  0.5463450000000 1.0
C      1  0.5391430000000  0.4192580000000  0.5436260000000 1.0
C      1  0.5796800000000  0.5480370000000  0.4615590000000 1.0
C      1  0.4132300000000  0.5458240000000  0.5397010000000 1.0
C      1  0.5808950000000  0.4552990000000  0.5401670000000 1.0
C      1  0.5445470000000  0.5415680000000  0.4164750000000 1.0
C      1  0.4521720000000  0.5387580000000  0.5809910000000 1.0
C      1  0.5453000000000  0.4595620000000  0.5850490000000 1.0
C      1  0.4682470000000  0.4312600000000  0.5734330000000 1.0
C      1  0.4308510000000  0.5746000000000  0.4679910000000 1.0
C      1  0.5732230000000  0.4679110000000  0.4322000000000 1.0
C      1  0.5279790000000  0.5664500000000  0.5741860000000 1.0
C      1  0.4717690000000  0.5653220000000  0.4234520000000 1.0
C      1  0.5311280000000  0.4327910000000  0.4257030000000 1.0
C      1  0.5668640000000  0.4254930000000  0.4682060000000 1.0
C      1  0.4318140000000  0.4258160000000  0.5324730000000 1.0
C      1  0.5680160000000  0.5730500000000  0.5319740000000 1.0
C      1  0.4233530000000  0.5300210000000  0.4340150000000 1.0
C      1  0.5745390000000  0.5295690000000  0.5673040000000 1.0
C      1  0.4241310000000  0.4707890000000  0.5682800000000 1.0
C      1  0.4064980000000  0.5064050000000  0.5180310000000 1.0
C      1  0.5024060000000  0.5210230000000  0.4102780000000 1.0
C      1  0.5194920000000  0.3967330000000  0.5054490000000 1.0
C      1  0.5943040000000  0.4944840000000  0.5180560000000 1.0
C      1  0.4100740000000  0.4933190000000  0.4778300000000 1.0
C      1  0.5938480000000  0.5057520000000  0.4786420000000 1.0
C      1  0.4939170000000  0.4796960000000  0.3962170000000 1.0
C      1  0.5063330000000  0.4801700000000  0.5941550000000 1.0
C      1  0.4926270000000  0.5191240000000  0.5926500000000 1.0
C      1  0.4769780000000  0.5941640000000  0.5051510000000 1.0
C      1  0.5167360000000  0.5969450000000  0.4937620000000 1.0
C      1  0.4789870000000  0.4083190000000  0.4967750000000 1.0
C      1  0.4980420000000  0.5661050000000  0.5762990000000 1.0
C      1  0.5649090000000  0.5784060000000  0.4992900000000 1.0
C      1  0.5774190000000  0.4993090000000  0.5656330000000 1.0
C      1  0.4997590000000  0.4333750000000  0.5761540000000 1.0
C      1  0.4990270000000  0.4363330000000  0.4225400000000 1.0
C      1  0.5011820000000  0.5667780000000  0.4209420000000 1.0
C      1  0.4335820000000  0.4234440000000  0.4981970000000 1.0
C      1  0.5639720000000  0.4221380000000  0.4994180000000 1.0
C      1  0.4322820000000  0.5781450000000  0.5010160000000 1.0
C      1  0.4209420000000  0.5002140000000  0.5664510000000 1.0
C      1  0.5745810000000  0.5007740000000  0.4346830000000 1.0
C      1  0.4200440000000  0.5005670000000  0.4322390000000 1.0
C      1  0.3951770000000  0.4519490000000  0.5039110000000 1.0
C      1  0.4517320000000  0.5065970000000  0.3942650000000 1.0
C      1  0.5040390000000  0.3949340000000  0.4497840000000 1.0
C      1  0.6056090000000  0.5484380000000  0.5042080000000 1.0
C      1  0.3943280000000  0.5479840000000  0.4946850000000 1.0
C      1  0.6030000000000  0.4507490000000  0.4951990000000 1.0
C      1  0.5492390000000  0.4951490000000  0.3918910000000 1.0
C      1  0.4500920000000  0.4950920000000  0.6055360000000 1.0
C      1  0.5478060000000  0.5043640000000  0.6043510000000 1.0
C      1  0.4946800000000  0.6060730000000  0.4491950000000 1.0
C      1  0.5046200000000  0.6056700000000  0.5484660000000 1.0
C      1  0.4951250000000  0.3944260000000  0.5478440000000 1.0
C      1  0.4067800000000  0.4417580000000  0.5286250000000 1.0
C      1  0.4403610000000  0.5296250000000  0.4091210000000 1.0
C      1  0.5286330000000  0.4081340000000  0.4403720000000 1.0
C      1  0.5932680000000  0.5582570000000  0.5288710000000 1.0
C      1  0.4072060000000  0.5568410000000  0.4704180000000 1.0
C      1  0.5906020000000  0.4416890000000  0.4709000000000 1.0
C      1  0.5589840000000  0.4713240000000  0.4063640000000 1.0
C      1  0.4413670000000  0.4709890000000  0.5915230000000 1.0
C      1  0.5579070000000  0.5279140000000  0.5905560000000 1.0
C      1  0.4721590000000  0.5895120000000  0.4406900000000 1.0
C      1  0.5279070000000  0.5900420000000  0.5575840000000 1.0
C      1  0.4708970000000  0.4061390000000  0.5584880000000 1.0
C      1  0.4918570000000  0.5244470000000  0.5565530000000 1.0
C      1  0.5292130000000  0.5520780000000  0.4905070000000 1.0
C      1  0.5555230000000  0.4919950000000  0.5254840000000 1.0
C      1  0.5122880000000  0.4866700000000  0.5644180000000 1.0
C      1  0.4881240000000  0.4770990000000  0.4487270000000 1.0
C      1  0.5058810000000  0.5232000000000  0.4408650000000 1.0
C      1  0.4785640000000  0.4410200000000  0.4967720000000 1.0
C      1  0.5246670000000  0.4464530000000  0.5073450000000 1.0
C      1  0.4792090000000  0.5642980000000  0.5109970000000 1.0
C      1  0.4428470000000  0.5090930000000  0.5276090000000 1.0
C      1  0.5607760000000  0.5128040000000  0.4839930000000 1.0
C      1  0.4401320000000  0.4908400000000  0.4706430000000 1.0
C      1  0.5555410000000  0.4437080000000  0.4427720000000 1.0
C      1  0.4404580000000  0.5575980000000  0.4463660000000 1.0
C      1  0.4433370000000  0.4418200000000  0.5565780000000 1.0
C      1  0.5568670000000  0.5565080000000  0.5541280000000 1.0
C      1  0.4870520000000  0.5023070000000  0.5018710000000 1.0
END
