TITL C-2441158-471-324 0.00440934908216525 125000 -11008.7493677844 0 0 75 (C1) n - 1
REM
REM in /home/bkarasulu/work/CARBON/AIRSS/Generating-Clusters/ReaxFF-fromJPCA2015/Units_Real/with-SteepDescent/Higher-Symm
REM
REM
REM
REM
REM
REM ./C.cell (1df0a924f5614ab8850e4351716899ee)
REM
REM compiler GCC version 9.2.1 20190827 (Red Hat 9.2.1-1)
REM options -cpp -mtune=generic -march=x86-64 -g -O0 -fpre-include=/usr/include/finclude/math-vector-fortran.h
REM seed 1252848217 -2087347316 -1298001184 1914811352 -1817787155 1753945438 -616662387 1356710355 -1547305330 -278504756 1482451503 1491793184 1832986134 1936694171 -740423655 -81456178 1612735681 1962588931 -961892716 -2100794034 -1859580066 78199647 -1794668491 -470353227 -618211193 -1309232816 -1307035201 -99354670 937355865 -264075389 -2036670532 7336214 841269582
REM
CELL 1.54180   50.00000   50.00000   50.00000   90.00000   90.00000   90.00000
LATT -1
SFAC C  
C      1  0.4838910000000  0.5220120000000  0.4855200000000 1.0
C      1  0.4840860000000  0.4926170000000  0.4747800000000 1.0
C      1  0.4845300000000  0.4731640000000  0.5004090000000 1.0
C      1  0.4861200000000  0.4915530000000  0.5245710000000 1.0
C      1  0.4849390000000  0.5205880000000  0.5150740000000 1.0
C      1  0.5186280000000  0.5222320000000  0.5149160000000 1.0
C      1  0.5168540000000  0.4914770000000  0.5247480000000 1.0
C      1  0.5171830000000  0.4736940000000  0.5002230000000 1.0
C      1  0.5170930000000  0.4910070000000  0.4753650000000 1.0
C      1  0.5189620000000  0.5209800000000  0.4840340000000 1.0
C      1  0.5273180000000  0.5447680000000  0.5597800000000 1.0
C      1  0.5264160000000  0.5713500000000  0.4768040000000 1.0
C      1  0.5364520000000  0.4974710000000  0.4319210000000 1.0
C      1  0.5286330000000  0.4311180000000  0.4767960000000 1.0
C      1  0.5320130000000  0.4568700000000  0.5567890000000 1.0
C      1  0.4752340000000  0.5448110000000  0.4416430000000 1.0
C      1  0.4737490000000  0.5691510000000  0.5220250000000 1.0
C      1  0.4666020000000  0.4981570000000  0.5689750000000 1.0
C      1  0.4770940000000  0.4284450000000  0.5245510000000 1.0
C      1  0.4726840000000  0.4560690000000  0.4412020000000 1.0
C      1  0.4288320000000  0.4853330000000  0.5285980000000 1.0
C      1  0.4282050000000  0.5297710000000  0.5131000000000 1.0
C      1  0.4263020000000  0.5302550000000  0.4831390000000 1.0
C      1  0.4348200000000  0.4902680000000  0.4705030000000 1.0
C      1  0.4269490000000  0.4658560000000  0.5060620000000 1.0
C      1  0.5749830000000  0.4850160000000  0.4714060000000 1.0
C      1  0.5748780000000  0.5295800000000  0.4870600000000 1.0
C      1  0.5754580000000  0.5300170000000  0.5168720000000 1.0
C      1  0.5675100000000  0.4894610000000  0.5302080000000 1.0
C      1  0.5768890000000  0.4654770000000  0.4942720000000 1.0
C      1  0.5509600000000  0.5194480000000  0.4398430000000 1.0
C      1  0.5459530000000  0.4398110000000  0.4567680000000 1.0
C      1  0.5491390000000  0.4440290000000  0.5389050000000 1.0
C      1  0.5456590000000  0.5220650000000  0.5631800000000 1.0
C      1  0.5450100000000  0.5724290000000  0.4996530000000 1.0
C      1  0.4522360000000  0.5199930000000  0.5604450000000 1.0
C      1  0.4594440000000  0.4420350000000  0.5422150000000 1.0
C      1  0.4551070000000  0.4451150000000  0.4620210000000 1.0
C      1  0.4564300000000  0.5228320000000  0.4368710000000 1.0
C      1  0.4559510000000  0.5735270000000  0.5007190000000 1.0
C      1  0.4777650000000  0.4309520000000  0.4740920000000 1.0
C      1  0.4813560000000  0.4514210000000  0.5583550000000 1.0
C      1  0.4776950000000  0.5360940000000  0.5627090000000 1.0
C      1  0.4787900000000  0.5714310000000  0.4823820000000 1.0
C      1  0.4784830000000  0.5058570000000  0.4271470000000 1.0
C      1  0.5255390000000  0.4303420000000  0.5278880000000 1.0
C      1  0.5216710000000  0.4498700000000  0.4424140000000 1.0
C      1  0.5250740000000  0.5356220000000  0.4380370000000 1.0
C      1  0.5219790000000  0.5728450000000  0.5182300000000 1.0
C      1  0.5236120000000  0.5055770000000  0.5731950000000 1.0
C      1  0.4780010000000  0.5460320000000  0.4707750000000 1.0
C      1  0.4776700000000  0.4844250000000  0.4469830000000 1.0
C      1  0.4785700000000  0.4439850000000  0.5000610000000 1.0
C      1  0.4792620000000  0.4803520000000  0.5535630000000 1.0
C      1  0.4792820000000  0.5445810000000  0.5339090000000 1.0
C      1  0.5239150000000  0.5468050000000  0.5306940000000 1.0
C      1  0.5232760000000  0.4831370000000  0.5536730000000 1.0
C      1  0.5229970000000  0.4432760000000  0.5008910000000 1.0
C      1  0.5232850000000  0.4796670000000  0.4471410000000 1.0
C      1  0.5253320000000  0.5439930000000  0.4662330000000 1.0
C      1  0.4371820000000  0.5148870000000  0.4594610000000 1.0
C      1  0.4363490000000  0.4640970000000  0.4772760000000 1.0
C      1  0.4364270000000  0.4569110000000  0.5321640000000 1.0
C      1  0.4378240000000  0.5124900000000  0.5345600000000 1.0
C      1  0.4331020000000  0.5544370000000  0.4979240000000 1.0
C      1  0.5648730000000  0.5143370000000  0.5404040000000 1.0
C      1  0.5676960000000  0.4638230000000  0.5228060000000 1.0
C      1  0.5686600000000  0.4566130000000  0.4678030000000 1.0
C      1  0.5658220000000  0.5121400000000  0.4654900000000 1.0
C      1  0.5680600000000  0.5542480000000  0.5020840000000 1.0
C      1  0.4955050000000  0.4390320000000  0.4508140000000 1.0
C      1  0.5037570000000  0.5782700000000  0.4950040000000 1.0
C      1  0.4971980000000  0.5294070000000  0.4291080000000 1.0
C      1  0.4999190000000  0.4341490000000  0.5428530000000 1.0
C      1  0.5050480000000  0.5290430000000  0.5719100000000 1.0
END
