TITL C-2441163-1170-61 -7.93145576829244e-06 125000 -2226.57670192856 0 0 16 (D3h) n - 1
REM
REM in /home/bkarasulu/work/CARBON/AIRSS/Generating-Clusters/ReaxFF-fromJPCA2015/Units_Real/with-SteepDescent/Higher-Symm
REM
REM
REM
REM
REM
REM ./C.cell (1df0a924f5614ab8850e4351716899ee)
REM
REM compiler GCC version 9.2.1 20190827 (Red Hat 9.2.1-1)
REM options -cpp -mtune=generic -march=x86-64 -g -O0 -fpre-include=/usr/include/finclude/math-vector-fortran.h
REM seed -191816058 1734086324 -1366076434 1573270059 637247895 -1024384815 -355130280 -725832789 -1278926869 888718002 267411237 -191044059 -750634864 2091247999 -1450956844 -669930658 921775366 -73210233 -601091937 23039566 426043450 -2045167390 1118926439 -2006406583 -1555505285 -202342782 155279772 -1215216360 1002404763 48086562 -609137115 1347011380 1177747607
REM
CELL 1.54180   50.00000   50.00000   50.00000   90.00000   90.00000   90.00000
LATT -1
SFAC C  
C      1  0.5471390000000  0.4992740000000  0.4918590000000 1.0
C      1  0.4639660000000  0.4992770000000  0.4623620000000 1.0
C      1  0.4800070000000  0.4992760000000  0.5491400000000 1.0
C      1  0.4915130000000  0.4987870000000  0.4725830000000 1.0
C      1  0.4750850000000  0.4987870000000  0.5201740000000 1.0
C      1  0.5245140000000  0.4987860000000  0.5106050000000 1.0
C      1  0.5609580000000  0.4997220000000  0.4662650000000 1.0
C      1  0.4348910000000  0.4997250000000  0.4631910000000 1.0
C      1  0.4952630000000  0.4997240000000  0.5739050000000 1.0
C      1  0.5405360000000  0.4993350000000  0.4427260000000 1.0
C      1  0.4247180000000  0.4993360000000  0.4926470000000 1.0
C      1  0.5258590000000  0.4993350000000  0.5679880000000 1.0
C      1  0.5307680000000  0.4989840000000  0.5393170000000 1.0
C      1  0.5132520000000  0.4989850000000  0.4528100000000 1.0
C      1  0.4470930000000  0.4989860000000  0.5112330000000 1.0
C      1  0.4970370000000  0.4987200000000  0.5011200000000 1.0
END
