TITL C-2441156-4686-764 0.0248979614180451 125000 -23762.2347236753 0 0 162 (C1) n - 1
REM
REM in /home/bkarasulu/work/CARBON/AIRSS/Generating-Clusters/ReaxFF-fromJPCA2015/Units_Real/with-SteepDescent/Higher-Symm
REM
REM
REM
REM
REM
REM ./C.cell (1df0a924f5614ab8850e4351716899ee)
REM
REM compiler GCC version 9.2.1 20190827 (Red Hat 9.2.1-1)
REM options -cpp -mtune=generic -march=x86-64 -g -O0 -fpre-include=/usr/include/finclude/math-vector-fortran.h
REM seed -932001119 1357434990 -1325089749 -304272215 1190830564 -16209688 2118748527 -619150334 2115708752 994176968 1973489275 -108954928 -316891385 147335548 -820866807 -669331238 -720377550 1366707664 -317045157 1726785283 440507093 -524291320 -898940453 1837605587 -1036683933 25769765 1195486920 -1389181275 2140426194 938410237 65241595 -881342255 1788303813
REM
CELL 1.54180   50.00000   50.00000   50.00000   90.00000   90.00000   90.00000
LATT -1
SFAC C  
C      1  0.4825810000000  0.3991350000000  0.4965660000000 1.0
C      1  0.5109020000000  0.5938790000000  0.5033640000000 1.0
C      1  0.4969580000000  0.5799730000000  0.5514550000000 1.0
C      1  0.5157990000000  0.4272700000000  0.4508430000000 1.0
C      1  0.4990590000000  0.5684610000000  0.5778250000000 1.0
C      1  0.5081940000000  0.4388340000000  0.4233800000000 1.0
C      1  0.4800270000000  0.5072260000000  0.4397820000000 1.0
C      1  0.5180960000000  0.4871090000000  0.5573810000000 1.0
C      1  0.4896730000000  0.5365780000000  0.4029350000000 1.0
C      1  0.5078720000000  0.4639090000000  0.5958580000000 1.0
C      1  0.5946730000000  0.5034170000000  0.4694880000000 1.0
C      1  0.3959790000000  0.4976280000000  0.5308590000000 1.0
C      1  0.5353870000000  0.5844840000000  0.4600490000000 1.0
C      1  0.4641690000000  0.4030100000000  0.5427140000000 1.0
C      1  0.5908130000000  0.4845920000000  0.5300630000000 1.0
C      1  0.4067790000000  0.5146080000000  0.4729200000000 1.0
C      1  0.5046260000000  0.5120180000000  0.5607720000000 1.0
C      1  0.5006790000000  0.4879730000000  0.4465290000000 1.0
C      1  0.5719360000000  0.4432650000000  0.5586770000000 1.0
C      1  0.4256600000000  0.5565420000000  0.4374890000000 1.0
C      1  0.4761010000000  0.5113250000000  0.5597690000000 1.0
C      1  0.5298400000000  0.4866790000000  0.4455580000000 1.0
C      1  0.5033290000000  0.4163430000000  0.5711010000000 1.0
C      1  0.4985970000000  0.5824800000000  0.4257280000000 1.0
C      1  0.4765330000000  0.4515480000000  0.5113240000000 1.0
C      1  0.5143670000000  0.5520960000000  0.5024580000000 1.0
C      1  0.5315540000000  0.4784730000000  0.5022050000000 1.0
C      1  0.4564850000000  0.5322900000000  0.4977300000000 1.0
C      1  0.5123510000000  0.5946690000000  0.4480740000000 1.0
C      1  0.4892960000000  0.3985690000000  0.5531230000000 1.0
C      1  0.4672800000000  0.5545480000000  0.4493860000000 1.0
C      1  0.5299470000000  0.4444650000000  0.5465360000000 1.0
C      1  0.4819730000000  0.4978850000000  0.5111550000000 1.0
C      1  0.5249310000000  0.5199900000000  0.4744230000000 1.0
C      1  0.4634380000000  0.4910030000000  0.5856510000000 1.0
C      1  0.5275360000000  0.5146280000000  0.4278690000000 1.0
C      1  0.5657300000000  0.5165100000000  0.4715600000000 1.0
C      1  0.4304120000000  0.4711170000000  0.5269610000000 1.0
C      1  0.4610830000000  0.4419370000000  0.5724270000000 1.0
C      1  0.5379060000000  0.5537150000000  0.4198890000000 1.0
C      1  0.5610260000000  0.5082480000000  0.5777370000000 1.0
C      1  0.4353700000000  0.4869850000000  0.4265250000000 1.0
C      1  0.5074160000000  0.4116100000000  0.5062890000000 1.0
C      1  0.4869420000000  0.5831560000000  0.4889300000000 1.0
C      1  0.4669680000000  0.4755630000000  0.4679900000000 1.0
C      1  0.5429650000000  0.5243170000000  0.5345020000000 1.0
C      1  0.5566750000000  0.5844210000000  0.5065020000000 1.0
C      1  0.4378430000000  0.4155230000000  0.5054820000000 1.0
C      1  0.5433100000000  0.5155470000000  0.5995960000000 1.0
C      1  0.4645600000000  0.4932020000000  0.3985210000000 1.0
C      1  0.4497630000000  0.4676350000000  0.5733540000000 1.0
C      1  0.5539820000000  0.5271810000000  0.4215950000000 1.0
C      1  0.4881410000000  0.5336120000000  0.4449930000000 1.0
C      1  0.5043240000000  0.4614180000000  0.5525500000000 1.0
C      1  0.5897650000000  0.4735810000000  0.4799190000000 1.0
C      1  0.4121620000000  0.5192290000000  0.5186780000000 1.0
C      1  0.4784390000000  0.5597200000000  0.5382540000000 1.0
C      1  0.4879650000000  0.4291290000000  0.4605880000000 1.0
C      1  0.4061090000000  0.5469200000000  0.5116050000000 1.0
C      1  0.6006820000000  0.4496510000000  0.4912790000000 1.0
C      1  0.5467390000000  0.4433790000000  0.5726350000000 1.0
C      1  0.4508600000000  0.5542700000000  0.4226840000000 1.0
C      1  0.6065320000000  0.5295580000000  0.5155010000000 1.0
C      1  0.3938770000000  0.4677650000000  0.4865710000000 1.0
C      1  0.5695120000000  0.4608690000000  0.4384340000000 1.0
C      1  0.4396500000000  0.5356020000000  0.5519960000000 1.0
C      1  0.5220850000000  0.5305240000000  0.5835510000000 1.0
C      1  0.4782230000000  0.4738700000000  0.4106440000000 1.0
C      1  0.3981540000000  0.4874160000000  0.4647140000000 1.0
C      1  0.5995740000000  0.5114930000000  0.5378330000000 1.0
C      1  0.4996120000000  0.5444770000000  0.5252280000000 1.0
C      1  0.5112270000000  0.4632050000000  0.4871940000000 1.0
C      1  0.4321480000000  0.5197460000000  0.4585680000000 1.0
C      1  0.5630160000000  0.4799740000000  0.5403990000000 1.0
C      1  0.4630940000000  0.4735830000000  0.4964250000000 1.0
C      1  0.5370520000000  0.5372330000000  0.4930950000000 1.0
C      1  0.4537230000000  0.4973140000000  0.4498240000000 1.0
C      1  0.5445080000000  0.4996310000000  0.5511830000000 1.0
C      1  0.4902940000000  0.4852680000000  0.6031660000000 1.0
C      1  0.5109830000000  0.5175540000000  0.4003710000000 1.0
C      1  0.4090390000000  0.4516310000000  0.5308330000000 1.0
C      1  0.5966390000000  0.5534910000000  0.4833920000000 1.0
C      1  0.5738460000000  0.5484160000000  0.5507010000000 1.0
C      1  0.4359440000000  0.4430680000000  0.4594950000000 1.0
C      1  0.4918760000000  0.5474450000000  0.4851950000000 1.0
C      1  0.4997030000000  0.4401590000000  0.5000450000000 1.0
C      1  0.4424620000000  0.5226020000000  0.5252620000000 1.0
C      1  0.5708950000000  0.4587670000000  0.4657660000000 1.0
C      1  0.4886680000000  0.5960150000000  0.4631630000000 1.0
C      1  0.5107420000000  0.4005580000000  0.5341090000000 1.0
C      1  0.5141420000000  0.5210320000000  0.5332010000000 1.0
C      1  0.4938790000000  0.4846940000000  0.4738190000000 1.0
C      1  0.4479920000000  0.4250150000000  0.5518430000000 1.0
C      1  0.5480180000000  0.5621930000000  0.4455050000000 1.0
C      1  0.5452730000000  0.5580830000000  0.5508660000000 1.0
C      1  0.4673950000000  0.4478230000000  0.4500620000000 1.0
C      1  0.5580160000000  0.5265950000000  0.5093880000000 1.0
C      1  0.4363000000000  0.4720110000000  0.5005350000000 1.0
C      1  0.5997230000000  0.4998680000000  0.4394120000000 1.0
C      1  0.4056140000000  0.5032370000000  0.5577410000000 1.0
C      1  0.5365610000000  0.4797860000000  0.3977240000000 1.0
C      1  0.4695050000000  0.5297900000000  0.6032330000000 1.0
C      1  0.4018930000000  0.5411560000000  0.4835630000000 1.0
C      1  0.5961580000000  0.4583140000000  0.5186110000000 1.0
C      1  0.4662800000000  0.5412680000000  0.5603770000000 1.0
C      1  0.5410570000000  0.4601940000000  0.4357270000000 1.0
C      1  0.5719360000000  0.4415880000000  0.5264610000000 1.0
C      1  0.4216300000000  0.5609810000000  0.4691480000000 1.0
C      1  0.3917370000000  0.4702280000000  0.5156310000000 1.0
C      1  0.6077480000000  0.5279020000000  0.4866510000000 1.0
C      1  0.5183810000000  0.5230270000000  0.6099360000000 1.0
C      1  0.4864730000000  0.4825740000000  0.3859050000000 1.0
C      1  0.5378080000000  0.4135480000000  0.4923470000000 1.0
C      1  0.4600980000000  0.5859020000000  0.5001060000000 1.0
C      1  0.5811460000000  0.5466360000000  0.5206780000000 1.0
C      1  0.4211530000000  0.4569340000000  0.4811290000000 1.0
C      1  0.5377640000000  0.4629810000000  0.5919580000000 1.0
C      1  0.4590010000000  0.5307720000000  0.4058270000000 1.0
C      1  0.4457980000000  0.5429800000000  0.4721580000000 1.0
C      1  0.5476580000000  0.4593580000000  0.5256760000000 1.0
C      1  0.5629230000000  0.4226020000000  0.5012490000000 1.0
C      1  0.4325170000000  0.5811260000000  0.4905460000000 1.0
C      1  0.5619950000000  0.5361100000000  0.4496540000000 1.0
C      1  0.4541130000000  0.4745440000000  0.5436070000000 1.0
C      1  0.5789100000000  0.4694430000000  0.5672600000000 1.0
C      1  0.4178310000000  0.5299440000000  0.4315720000000 1.0
C      1  0.5832810000000  0.5236420000000  0.5593910000000 1.0
C      1  0.4169030000000  0.4755300000000  0.4457330000000 1.0
C      1  0.4737800000000  0.5830570000000  0.4419340000000 1.0
C      1  0.5246930000000  0.4174330000000  0.5514340000000 1.0
C      1  0.5255870000000  0.5584420000000  0.5737560000000 1.0
C      1  0.4813340000000  0.4493160000000  0.4240390000000 1.0
C      1  0.5428840000000  0.4966190000000  0.4740560000000 1.0
C      1  0.4642250000000  0.5022980000000  0.5353220000000 1.0
C      1  0.4923590000000  0.5121800000000  0.6120740000000 1.0
C      1  0.5128760000000  0.4928490000000  0.3857360000000 1.0
C      1  0.4709000000000  0.4105790000000  0.4734120000000 1.0
C      1  0.5159330000000  0.5908450000000  0.5316540000000 1.0
C      1  0.4808060000000  0.5196860000000  0.4880920000000 1.0
C      1  0.5108590000000  0.4949330000000  0.5152940000000 1.0
C      1  0.5577690000000  0.4969140000000  0.4084960000000 1.0
C      1  0.4463450000000  0.5146450000000  0.5937900000000 1.0
C      1  0.4430630000000  0.4212570000000  0.4767590000000 1.0
C      1  0.5431720000000  0.5814420000000  0.5320930000000 1.0
C      1  0.5352890000000  0.5914720000000  0.4882290000000 1.0
C      1  0.4602870000000  0.3995590000000  0.5143540000000 1.0
C      1  0.5299770000000  0.4531390000000  0.4099300000000 1.0
C      1  0.4759040000000  0.5520900000000  0.5862150000000 1.0
C      1  0.4255300000000  0.5693800000000  0.5163700000000 1.0
C      1  0.5774040000000  0.4337200000000  0.4787670000000 1.0
C      1  0.5086170000000  0.5578460000000  0.4131130000000 1.0
C      1  0.4918380000000  0.4429960000000  0.5792060000000 1.0
C      1  0.4265520000000  0.5203460000000  0.5720510000000 1.0
C      1  0.5798530000000  0.4845470000000  0.4240210000000 1.0
C      1  0.5620210000000  0.4800740000000  0.5886980000000 1.0
C      1  0.4342340000000  0.5142880000000  0.4126640000000 1.0
C      1  0.5816940000000  0.5703350000000  0.4999630000000 1.0
C      1  0.4283180000000  0.4292280000000  0.5297140000000 1.0
C      1  0.4538510000000  0.5738330000000  0.5247840000000 1.0
C      1  0.5390140000000  0.4237240000000  0.4676860000000 1.0
C      1  0.5159200000000  0.5305830000000  0.4496750000000 1.0
C      1  0.4788660000000  0.4592190000000  0.5376460000000 1.0
END
