TITL C-2441166-8118-1471 0.030485035039648 125000 -17710.4049771803 0 0 121 (C1) n - 1
REM
REM in /home/bkarasulu/work/CARBON/AIRSS/Generating-Clusters/ReaxFF-fromJPCA2015/Units_Real/with-SteepDescent/Higher-Symm
REM
REM
REM
REM
REM
REM ./C.cell (1df0a924f5614ab8850e4351716899ee)
REM
REM compiler GCC version 9.2.1 20190827 (Red Hat 9.2.1-1)
REM options -cpp -mtune=generic -march=x86-64 -g -O0 -fpre-include=/usr/include/finclude/math-vector-fortran.h
REM seed 612018259 -1163012532 -940498713 1923880889 -200313093 -1972827209 1051000356 596905124 -949864656 -40261492 -1164019106 -1735546535 655101953 -1130214610 -1232249381 1251667440 339396296 -1399869891 551875274 -918463444 -694650278 642410906 -2023533508 1087809195 -1347736794 1584893350 -986526013 -493140016 -1741995436 499221943 -1039908651 -1802988632 -400172817
REM
CELL 1.54180   50.00000   50.00000   50.00000   90.00000   90.00000   90.00000
LATT -1
SFAC C  
C      1  0.5576910000000  0.5336560000000  0.4418620000000 1.0
C      1  0.4405460000000  0.5340130000000  0.5716960000000 1.0
C      1  0.5572720000000  0.4661190000000  0.4390600000000 1.0
C      1  0.4413950000000  0.4660910000000  0.5695580000000 1.0
C      1  0.5593990000000  0.5333460000000  0.5621410000000 1.0
C      1  0.4414640000000  0.5330430000000  0.4293250000000 1.0
C      1  0.5605520000000  0.4659880000000  0.5656270000000 1.0
C      1  0.4397170000000  0.4631170000000  0.4275920000000 1.0
C      1  0.4360240000000  0.5228360000000  0.4745170000000 1.0
C      1  0.5747610000000  0.5242400000000  0.5205910000000 1.0
C      1  0.4217520000000  0.4705770000000  0.4701490000000 1.0
C      1  0.5797290000000  0.4707920000000  0.5262430000000 1.0
C      1  0.4191980000000  0.5297840000000  0.5316000000000 1.0
C      1  0.5758740000000  0.5287140000000  0.4791020000000 1.0
C      1  0.4188570000000  0.4723930000000  0.5290880000000 1.0
C      1  0.5775650000000  0.4683450000000  0.4759360000000 1.0
C      1  0.4028160000000  0.5168320000000  0.5135240000000 1.0
C      1  0.5998410000000  0.5140780000000  0.4838690000000 1.0
C      1  0.4014900000000  0.4884920000000  0.5125660000000 1.0
C      1  0.5999790000000  0.4846300000000  0.4847140000000 1.0
C      1  0.4087450000000  0.5177190000000  0.4848580000000 1.0
C      1  0.6015340000000  0.5149540000000  0.5134320000000 1.0
C      1  0.4035410000000  0.4882760000000  0.4843470000000 1.0
C      1  0.6010990000000  0.4850610000000  0.5137190000000 1.0
C      1  0.4630490000000  0.5747800000000  0.5631660000000 1.0
C      1  0.5368050000000  0.5760640000000  0.4457510000000 1.0
C      1  0.4647230000000  0.4250120000000  0.5614800000000 1.0
C      1  0.5364170000000  0.4223380000000  0.4393430000000 1.0
C      1  0.4648870000000  0.5740490000000  0.4402340000000 1.0
C      1  0.5466850000000  0.5753880000000  0.5473860000000 1.0
C      1  0.4654930000000  0.4247900000000  0.4381150000000 1.0
C      1  0.5363360000000  0.4248600000000  0.5602590000000 1.0
C      1  0.4848250000000  0.4138690000000  0.5422380000000 1.0
C      1  0.5146750000000  0.4102180000000  0.4560930000000 1.0
C      1  0.4800290000000  0.5887590000000  0.5425340000000 1.0
C      1  0.5142080000000  0.5873550000000  0.4618240000000 1.0
C      1  0.4848170000000  0.4128170000000  0.4568820000000 1.0
C      1  0.5148230000000  0.4130800000000  0.5424290000000 1.0
C      1  0.4845620000000  0.5848220000000  0.4600960000000 1.0
C      1  0.5084690000000  0.5895340000000  0.5408220000000 1.0
C      1  0.5245960000000  0.4788570000000  0.5073750000000 1.0
C      1  0.4730640000000  0.4843520000000  0.4853700000000 1.0
C      1  0.5292810000000  0.5223260000000  0.5242870000000 1.0
C      1  0.4698190000000  0.5143260000000  0.4850430000000 1.0
C      1  0.5306840000000  0.4732950000000  0.4803630000000 1.0
C      1  0.4752510000000  0.4846000000000  0.5141820000000 1.0
C      1  0.5285430000000  0.5214170000000  0.4829790000000 1.0
C      1  0.4806660000000  0.5139550000000  0.5135580000000 1.0
C      1  0.5623230000000  0.4390140000000  0.5544060000000 1.0
C      1  0.4387660000000  0.4373310000000  0.4418190000000 1.0
C      1  0.5698770000000  0.5563870000000  0.5467700000000 1.0
C      1  0.4392610000000  0.5583660000000  0.4437060000000 1.0
C      1  0.5609350000000  0.4382330000000  0.4462450000000 1.0
C      1  0.4386980000000  0.4398560000000  0.5569270000000 1.0
C      1  0.5605270000000  0.5596730000000  0.4538910000000 1.0
C      1  0.4374590000000  0.5605490000000  0.5596280000000 1.0
C      1  0.5167310000000  0.4885620000000  0.5893660000000 1.0
C      1  0.4862990000000  0.4865670000000  0.4105000000000 1.0
C      1  0.5161030000000  0.5175620000000  0.5874540000000 1.0
C      1  0.4866130000000  0.5142170000000  0.4103510000000 1.0
C      1  0.5158080000000  0.4859810000000  0.4110970000000 1.0
C      1  0.4874580000000  0.4880570000000  0.5906280000000 1.0
C      1  0.5160640000000  0.5148780000000  0.4112750000000 1.0
C      1  0.4867100000000  0.5157470000000  0.5898000000000 1.0
C      1  0.5345690000000  0.4675910000000  0.5800330000000 1.0
C      1  0.4664840000000  0.4666110000000  0.4158850000000 1.0
C      1  0.5354370000000  0.5373520000000  0.5775630000000 1.0
C      1  0.4678930000000  0.5325720000000  0.4180580000000 1.0
C      1  0.5354420000000  0.4663020000000  0.4197600000000 1.0
C      1  0.4681530000000  0.4681850000000  0.5821620000000 1.0
C      1  0.5354990000000  0.5336570000000  0.4226580000000 1.0
C      1  0.4666260000000  0.5327500000000  0.5834260000000 1.0
C      1  0.5232000000000  0.4315190000000  0.5216450000000 1.0
C      1  0.4788040000000  0.4318500000000  0.4780470000000 1.0
C      1  0.5157760000000  0.5722440000000  0.5188880000000 1.0
C      1  0.4751720000000  0.5658870000000  0.4798510000000 1.0
C      1  0.5201810000000  0.4279520000000  0.4784470000000 1.0
C      1  0.4762100000000  0.4327690000000  0.5217320000000 1.0
C      1  0.5218260000000  0.5685820000000  0.4837570000000 1.0
C      1  0.4728980000000  0.5670330000000  0.5236590000000 1.0
C      1  0.5220460000000  0.4498330000000  0.5611060000000 1.0
C      1  0.4777840000000  0.4510870000000  0.4374760000000 1.0
C      1  0.5259470000000  0.5588560000000  0.5600950000000 1.0
C      1  0.4783320000000  0.5484640000000  0.4390180000000 1.0
C      1  0.5209110000000  0.4457660000000  0.4342680000000 1.0
C      1  0.4794940000000  0.4500470000000  0.5627560000000 1.0
C      1  0.5210640000000  0.5530570000000  0.4386790000000 1.0
C      1  0.4776480000000  0.5495170000000  0.5634470000000 1.0
C      1  0.4268550000000  0.4442200000000  0.5309680000000 1.0
C      1  0.5716480000000  0.4400060000000  0.4729500000000 1.0
C      1  0.4262440000000  0.5572320000000  0.5331810000000 1.0
C      1  0.5716810000000  0.5569390000000  0.4817630000000 1.0
C      1  0.4288990000000  0.4420560000000  0.4686010000000 1.0
C      1  0.5731780000000  0.4431000000000  0.5282240000000 1.0
C      1  0.4292020000000  0.5505670000000  0.4703190000000 1.0
C      1  0.5822290000000  0.5506070000000  0.5213650000000 1.0
C      1  0.5142480000000  0.5419630000000  0.4694760000000 1.0
C      1  0.4835970000000  0.5411480000000  0.5343830000000 1.0
C      1  0.5142860000000  0.4553160000000  0.4655470000000 1.0
C      1  0.4851050000000  0.4598120000000  0.5320720000000 1.0
C      1  0.5140000000000  0.5449500000000  0.5340070000000 1.0
C      1  0.4842860000000  0.5397360000000  0.4679040000000 1.0
C      1  0.5154980000000  0.4595610000000  0.5288330000000 1.0
C      1  0.4838150000000  0.4596230000000  0.4664870000000 1.0
C      1  0.4453950000000  0.5681610000000  0.5145650000000 1.0
C      1  0.5490870000000  0.5701400000000  0.4945220000000 1.0
C      1  0.4476480000000  0.4313130000000  0.5142730000000 1.0
C      1  0.5485630000000  0.4275910000000  0.4865210000000 1.0
C      1  0.4469170000000  0.5667360000000  0.4867710000000 1.0
C      1  0.5423390000000  0.5826920000000  0.5194640000000 1.0
C      1  0.4499880000000  0.4307160000000  0.4857980000000 1.0
C      1  0.5511280000000  0.4294520000000  0.5142770000000 1.0
C      1  0.5540540000000  0.5157890000000  0.4681690000000 1.0
C      1  0.4312340000000  0.5148800000000  0.5518560000000 1.0
C      1  0.5542550000000  0.4822190000000  0.4654730000000 1.0
C      1  0.4312340000000  0.4861960000000  0.5506060000000 1.0
C      1  0.5539390000000  0.5128930000000  0.5401780000000 1.0
C      1  0.4350320000000  0.5121480000000  0.4476770000000 1.0
C      1  0.5646980000000  0.4847560000000  0.5443180000000 1.0
C      1  0.4324940000000  0.4839680000000  0.4470620000000 1.0
C      1  0.5162850000000  0.5071800000000  0.5053760000000 1.0
END
