TITL C-2441167-4473-1486 0.00472968337364489 125000 -7649.70393196802 0 0 55 (C1) n - 1
REM
REM in /home/bkarasulu/work/CARBON/AIRSS/Generating-Clusters/ReaxFF-fromJPCA2015/Units_Real/with-SteepDescent/Higher-Symm
REM
REM
REM
REM
REM
REM ./C.cell (1df0a924f5614ab8850e4351716899ee)
REM
REM compiler GCC version 9.2.1 20190827 (Red Hat 9.2.1-1)
REM options -cpp -mtune=generic -march=x86-64 -g -O0 -fpre-include=/usr/include/finclude/math-vector-fortran.h
REM seed -1773668639 -821075106 1068974216 -1652020295 -425974947 450836682 22569765 -1247454931 941930258 921055101 1122658198 1391758121 -1445657697 -249270843 1471055774 -381487467 962909975 -2107281265 1099630232 1160898536 -1996972857 312558707 8546524 24117560 546359497 -286708313 -1783140820 -405916627 -196628841 -1946048466 -769637012 -2107976415 664306125
REM
CELL 1.54180   50.00000   50.00000   50.00000   90.00000   90.00000   90.00000
LATT -1
SFAC C  
C      1  0.5014940000000  0.4681240000000  0.4747970000000 1.0
C      1  0.5045140000000  0.5255960000000  0.4712180000000 1.0
C      1  0.4966620000000  0.4376760000000  0.4896080000000 1.0
C      1  0.4945910000000  0.5632560000000  0.4892840000000 1.0
C      1  0.5166900000000  0.4839580000000  0.4927770000000 1.0
C      1  0.5190710000000  0.5121950000000  0.4918870000000 1.0
C      1  0.5240320000000  0.5698870000000  0.4913540000000 1.0
C      1  0.5248900000000  0.4292170000000  0.4907390000000 1.0
C      1  0.5511840000000  0.5582450000000  0.4893800000000 1.0
C      1  0.5505380000000  0.4442880000000  0.4865420000000 1.0
C      1  0.5086040000000  0.5148700000000  0.5196370000000 1.0
C      1  0.5076970000000  0.4850790000000  0.5204390000000 1.0
C      1  0.4987340000000  0.4463440000000  0.5459750000000 1.0
C      1  0.4966860000000  0.5544230000000  0.5464870000000 1.0
C      1  0.5526250000000  0.4886350000000  0.4593500000000 1.0
C      1  0.5592860000000  0.5171790000000  0.4616000000000 1.0
C      1  0.4775190000000  0.5141690000000  0.4791080000000 1.0
C      1  0.4757490000000  0.4829960000000  0.4791230000000 1.0
C      1  0.4755570000000  0.5206810000000  0.5262360000000 1.0
C      1  0.4746970000000  0.4781690000000  0.5268200000000 1.0
C      1  0.4842010000000  0.4652510000000  0.5643580000000 1.0
C      1  0.4815330000000  0.5364900000000  0.5625480000000 1.0
C      1  0.4651500000000  0.5461220000000  0.5185690000000 1.0
C      1  0.4648970000000  0.4522350000000  0.5182950000000 1.0
C      1  0.4365180000000  0.5154040000000  0.4659290000000 1.0
C      1  0.4353670000000  0.4852130000000  0.4660670000000 1.0
C      1  0.4659040000000  0.5138380000000  0.5548470000000 1.0
C      1  0.4652110000000  0.4847550000000  0.5546280000000 1.0
C      1  0.5611640000000  0.5303070000000  0.4890190000000 1.0
C      1  0.5570330000000  0.4729060000000  0.4848810000000 1.0
C      1  0.4721930000000  0.4405690000000  0.4649900000000 1.0
C      1  0.4772380000000  0.5556060000000  0.4669770000000 1.0
C      1  0.5236180000000  0.4606550000000  0.5526580000000 1.0
C      1  0.5208870000000  0.5361250000000  0.5548400000000 1.0
C      1  0.4810750000000  0.4840600000000  0.4360360000000 1.0
C      1  0.4829290000000  0.5128520000000  0.4359850000000 1.0
C      1  0.4886520000000  0.4370650000000  0.5190300000000 1.0
C      1  0.4873070000000  0.5633390000000  0.5194280000000 1.0
C      1  0.5552850000000  0.4858480000000  0.5109340000000 1.0
C      1  0.5560290000000  0.5146170000000  0.5132010000000 1.0
C      1  0.5382610000000  0.5603180000000  0.5148060000000 1.0
C      1  0.5407860000000  0.4392070000000  0.5130940000000 1.0
C      1  0.4601810000000  0.5238120000000  0.5018730000000 1.0
C      1  0.4587280000000  0.4743360000000  0.5014330000000 1.0
C      1  0.5371430000000  0.5332590000000  0.5286230000000 1.0
C      1  0.5389300000000  0.4657280000000  0.5275180000000 1.0
C      1  0.5067460000000  0.4735510000000  0.4444850000000 1.0
C      1  0.5107550000000  0.5168550000000  0.4435750000000 1.0
C      1  0.5093360000000  0.4824620000000  0.5678730000000 1.0
C      1  0.5128380000000  0.5106310000000  0.5642580000000 1.0
C      1  0.4283600000000  0.5239550000000  0.4914980000000 1.0
C      1  0.4270240000000  0.4756230000000  0.4913110000000 1.0
C      1  0.4643490000000  0.5295210000000  0.4548500000000 1.0
C      1  0.4623920000000  0.4700290000000  0.4559610000000 1.0
C      1  0.5283080000000  0.4924660000000  0.4420370000000 1.0
END
