TITL C-2441165-58-845 0.0446981212508372 125000 -19849.1046781366 0 0 141 (C1) n - 1
REM
REM in /home/bkarasulu/work/CARBON/AIRSS/Generating-Clusters/ReaxFF-fromJPCA2015/Units_Real/with-SteepDescent/Higher-Symm
REM
REM
REM
REM
REM
REM ./C.cell (1df0a924f5614ab8850e4351716899ee)
REM
REM compiler GCC version 9.2.1 20190827 (Red Hat 9.2.1-1)
REM options -cpp -mtune=generic -march=x86-64 -g -O0 -fpre-include=/usr/include/finclude/math-vector-fortran.h
REM seed 133992313 -1638675440 -1761705073 1714424043 1501353713 696448863 -1794104454 940723784 -2142085314 309193311 1035694129 484125219 1038112379 -85215520 -1350443368 1624038450 2028457344 1235028526 -56585823 -1215522180 1564401674 1228982917 679114162 1676107550 -797845653 -1409483640 510472384 -499364821 -116857538 -49071044 756720935 -630083184 939428243
REM
CELL 1.54180   50.00000   50.00000   50.00000   90.00000   90.00000   90.00000
LATT -1
SFAC C  
C      1  0.4319150000000  0.4923880000000  0.5103230000000 1.0
C      1  0.5378720000000  0.4895960000000  0.5551110000000 1.0
C      1  0.5207880000000  0.4918720000000  0.4248840000000 1.0
C      1  0.5677780000000  0.4920390000000  0.5113490000000 1.0
C      1  0.4572950000000  0.4901230000000  0.5569380000000 1.0
C      1  0.4770420000000  0.4879400000000  0.4242670000000 1.0
C      1  0.5594370000000  0.4242940000000  0.5019000000000 1.0
C      1  0.4679670000000  0.4248470000000  0.4490100000000 1.0
C      1  0.4716800000000  0.4258440000000  0.5505010000000 1.0
C      1  0.4410810000000  0.4261380000000  0.5007930000000 1.0
C      1  0.5315970000000  0.4227460000000  0.4498690000000 1.0
C      1  0.5296780000000  0.4248100000000  0.5506310000000 1.0
C      1  0.5898450000000  0.5090960000000  0.4389090000000 1.0
C      1  0.4027190000000  0.5013870000000  0.4628170000000 1.0
C      1  0.5151190000000  0.5018980000000  0.6004480000000 1.0
C      1  0.4091300000000  0.5091600000000  0.4376730000000 1.0
C      1  0.5967960000000  0.5015480000000  0.4640270000000 1.0
C      1  0.4863010000000  0.5023370000000  0.5989760000000 1.0
C      1  0.4766320000000  0.4437280000000  0.4282440000000 1.0
C      1  0.4465730000000  0.4435330000000  0.5507920000000 1.0
C      1  0.5717000000000  0.4408010000000  0.5234290000000 1.0
C      1  0.5261700000000  0.4413670000000  0.4273750000000 1.0
C      1  0.5553730000000  0.4399850000000  0.5512120000000 1.0
C      1  0.4278510000000  0.4410550000000  0.5221250000000 1.0
C      1  0.4416050000000  0.5484340000000  0.4504600000000 1.0
C      1  0.4832130000000  0.5535540000000  0.5747830000000 1.0
C      1  0.5684960000000  0.5484280000000  0.4800490000000 1.0
C      1  0.5583740000000  0.5510830000000  0.4500930000000 1.0
C      1  0.5191450000000  0.5525690000000  0.5743480000000 1.0
C      1  0.4343510000000  0.5479760000000  0.4791750000000 1.0
C      1  0.4557740000000  0.5599790000000  0.5683730000000 1.0
C      1  0.5764560000000  0.5568030000000  0.5063780000000 1.0
C      1  0.4631470000000  0.5572990000000  0.4324480000000 1.0
C      1  0.5463370000000  0.5575180000000  0.5646760000000 1.0
C      1  0.4224770000000  0.5574290000000  0.5042080000000 1.0
C      1  0.5364250000000  0.5588770000000  0.4320580000000 1.0
C      1  0.5165840000000  0.4807690000000  0.5792800000000 1.0
C      1  0.5558370000000  0.4769930000000  0.4588840000000 1.0
C      1  0.4228820000000  0.4834520000000  0.4770790000000 1.0
C      1  0.4823700000000  0.4809210000000  0.5789140000000 1.0
C      1  0.4453450000000  0.4806160000000  0.4591220000000 1.0
C      1  0.5771620000000  0.4827580000000  0.4775000000000 1.0
C      1  0.4578880000000  0.5149400000000  0.6051390000000 1.0
C      1  0.6112550000000  0.5162210000000  0.4896430000000 1.0
C      1  0.4423780000000  0.5166930000000  0.4017480000000 1.0
C      1  0.5424720000000  0.5167220000000  0.6005890000000 1.0
C      1  0.3860580000000  0.5148400000000  0.4863800000000 1.0
C      1  0.5563850000000  0.5169200000000  0.4027080000000 1.0
C      1  0.5578360000000  0.4589110000000  0.5741990000000 1.0
C      1  0.5489370000000  0.4529690000000  0.4123830000000 1.0
C      1  0.4050070000000  0.4587790000000  0.5132020000000 1.0
C      1  0.4417890000000  0.4582280000000  0.5772740000000 1.0
C      1  0.4600320000000  0.4651970000000  0.4167550000000 1.0
C      1  0.5950800000000  0.4588440000000  0.5140140000000 1.0
C      1  0.5658810000000  0.5144740000000  0.5778440000000 1.0
C      1  0.5291490000000  0.5204070000000  0.3957460000000 1.0
C      1  0.3953520000000  0.5131420000000  0.5164780000000 1.0
C      1  0.4336550000000  0.5130600000000  0.5843630000000 1.0
C      1  0.4692160000000  0.5190070000000  0.3953140000000 1.0
C      1  0.6030570000000  0.5139950000000  0.5192910000000 1.0
C      1  0.4715240000000  0.4622670000000  0.4982150000000 1.0
C      1  0.5130240000000  0.4658980000000  0.5201600000000 1.0
C      1  0.5292110000000  0.4756990000000  0.4685870000000 1.0
C      1  0.5291370000000  0.4589240000000  0.4972530000000 1.0
C      1  0.4870660000000  0.4775960000000  0.5195810000000 1.0
C      1  0.4722940000000  0.4760240000000  0.4699820000000 1.0
C      1  0.4590930000000  0.4684440000000  0.5396410000000 1.0
C      1  0.5525340000000  0.4675690000000  0.5150590000000 1.0
C      1  0.4880000000000  0.4649570000000  0.4459760000000 1.0
C      1  0.5357520000000  0.4683110000000  0.5373150000000 1.0
C      1  0.4478840000000  0.4683850000000  0.5148620000000 1.0
C      1  0.5157450000000  0.4680420000000  0.4424510000000 1.0
C      1  0.5218640000000  0.5636520000000  0.5233570000000 1.0
C      1  0.5126730000000  0.5597110000000  0.4686280000000 1.0
C      1  0.4623480000000  0.5727100000000  0.5013560000000 1.0
C      1  0.4772550000000  0.5635780000000  0.5235210000000 1.0
C      1  0.4870520000000  0.5591770000000  0.4701160000000 1.0
C      1  0.5363210000000  0.5717340000000  0.5009960000000 1.0
C      1  0.5293210000000  0.4251370000000  0.4992620000000 1.0
C      1  0.4852930000000  0.4206170000000  0.4726890000000 1.0
C      1  0.4861620000000  0.4209700000000  0.5260900000000 1.0
C      1  0.4713880000000  0.4288770000000  0.4991980000000 1.0
C      1  0.5136810000000  0.4192430000000  0.4727280000000 1.0
C      1  0.5145830000000  0.4196620000000  0.5261450000000 1.0
C      1  0.5268300000000  0.5184740000000  0.4933760000000 1.0
C      1  0.4871800000000  0.5006630000000  0.4769530000000 1.0
C      1  0.4883500000000  0.5076470000000  0.5184260000000 1.0
C      1  0.4750040000000  0.5185340000000  0.4956350000000 1.0
C      1  0.5142750000000  0.4998040000000  0.4764190000000 1.0
C      1  0.5152680000000  0.5168660000000  0.5184800000000 1.0
C      1  0.4651400000000  0.5289420000000  0.6243820000000 1.0
C      1  0.6260770000000  0.5287380000000  0.4733940000000 1.0
C      1  0.4209490000000  0.5138160000000  0.4153310000000 1.0
C      1  0.5383420000000  0.5284640000000  0.6223060000000 1.0
C      1  0.3729970000000  0.5297060000000  0.4708460000000 1.0
C      1  0.5777660000000  0.5135710000000  0.4164850000000 1.0
C      1  0.5827610000000  0.5346440000000  0.5290620000000 1.0
C      1  0.4813610000000  0.5377700000000  0.4182570000000 1.0
C      1  0.4398740000000  0.5345640000000  0.5664220000000 1.0
C      1  0.4154280000000  0.5337320000000  0.5207170000000 1.0
C      1  0.5175460000000  0.5397560000000  0.4179550000000 1.0
C      1  0.5671600000000  0.5368650000000  0.5600320000000 1.0
C      1  0.5341320000000  0.5152910000000  0.5398900000000 1.0
C      1  0.5243590000000  0.5177480000000  0.4367560000000 1.0
C      1  0.4403360000000  0.5184310000000  0.5216630000000 1.0
C      1  0.4559200000000  0.5182920000000  0.5467740000000 1.0
C      1  0.4741680000000  0.5157680000000  0.4365080000000 1.0
C      1  0.5596500000000  0.5168590000000  0.5247750000000 1.0
C      1  0.4104970000000  0.4568910000000  0.4851320000000 1.0
C      1  0.5311060000000  0.4551190000000  0.5851600000000 1.0
C      1  0.5638120000000  0.4574560000000  0.4389690000000 1.0
C      1  0.5896320000000  0.4561820000000  0.4862580000000 1.0
C      1  0.4692560000000  0.4550840000000  0.5861530000000 1.0
C      1  0.4397310000000  0.4612470000000  0.4377490000000 1.0
C      1  0.5398100000000  0.5746250000000  0.5410930000000 1.0
C      1  0.5196910000000  0.5766180000000  0.4476680000000 1.0
C      1  0.4393920000000  0.5762090000000  0.5190010000000 1.0
C      1  0.4593460000000  0.5735320000000  0.5416610000000 1.0
C      1  0.4790000000000  0.5760680000000  0.4477950000000 1.0
C      1  0.5593360000000  0.5769510000000  0.5181110000000 1.0
C      1  0.4263490000000  0.4335590000000  0.4769910000000 1.0
C      1  0.5151980000000  0.4331040000000  0.5745690000000 1.0
C      1  0.5594880000000  0.4313980000000  0.4528690000000 1.0
C      1  0.5741090000000  0.4321030000000  0.4786720000000 1.0
C      1  0.4855310000000  0.4332030000000  0.5746470000000 1.0
C      1  0.4407710000000  0.4350150000000  0.4513510000000 1.0
C      1  0.5149470000000  0.5307750000000  0.5593890000000 1.0
C      1  0.5475040000000  0.5248380000000  0.4526630000000 1.0
C      1  0.4492360000000  0.5232280000000  0.4822290000000 1.0
C      1  0.4862250000000  0.5310770000000  0.5603200000000 1.0
C      1  0.4502850000000  0.5203880000000  0.4526770000000 1.0
C      1  0.5521410000000  0.5245880000000  0.4809930000000 1.0
C      1  0.4832930000000  0.4926710000000  0.3971270000000 1.0
C      1  0.4325490000000  0.4858280000000  0.5741200000000 1.0
C      1  0.5951020000000  0.4867890000000  0.5237100000000 1.0
C      1  0.5123950000000  0.4959860000000  0.3978050000000 1.0
C      1  0.5648410000000  0.4870550000000  0.5685000000000 1.0
C      1  0.4049050000000  0.4867670000000  0.5227300000000 1.0
C      1  0.4711540000000  0.5825690000000  0.4758980000000 1.0
C      1  0.4996150000000  0.5740680000000  0.5357170000000 1.0
C      1  0.5279330000000  0.5819980000000  0.4757580000000 1.0
END
