TITL C-2441158-471-174 0.0820792978414828 125000 -15977.6533600048 0 0 128 (C1) n - 1
REM
REM in /home/bkarasulu/work/CARBON/AIRSS/Generating-Clusters/ReaxFF-fromJPCA2015/Units_Real/with-SteepDescent/Higher-Symm
REM
REM
REM
REM
REM
REM ./C.cell (1df0a924f5614ab8850e4351716899ee)
REM
REM compiler GCC version 9.2.1 20190827 (Red Hat 9.2.1-1)
REM options -cpp -mtune=generic -march=x86-64 -g -O0 -fpre-include=/usr/include/finclude/math-vector-fortran.h
REM seed 748321779 1026639855 1727915188 -347042561 -373545266 776892769 -906008551 969091308 2008209171 -632463770 523485808 489513280 -1929891137 1237090336 -1796334677 -83833492 -1047999247 423134731 -1730222884 1089475730 337568396 41624765 -628085091 2031544586 877049547 -93006271 -650305415 66017492 1193023694 313353844 1310250248 1624476005 208206875
REM
CELL 1.54180   50.00000   50.00000   50.00000   90.00000   90.00000   90.00000
LATT -1
SFAC C  
C      1  0.4057350000000  0.4845860000000  0.5351050000000 1.0
C      1  0.4853540000000  0.5371370000000  0.4055210000000 1.0
C      1  0.5389230000000  0.4065870000000  0.4832190000000 1.0
C      1  0.4059300000000  0.5149110000000  0.4612440000000 1.0
C      1  0.5909100000000  0.4866160000000  0.4667700000000 1.0
C      1  0.5926800000000  0.5128740000000  0.5399400000000 1.0
C      1  0.4848230000000  0.4664130000000  0.5908580000000 1.0
C      1  0.5167470000000  0.5361280000000  0.5950290000000 1.0
C      1  0.5139180000000  0.4635190000000  0.4071990000000 1.0
C      1  0.5388420000000  0.5981230000000  0.5129550000000 1.0
C      1  0.4665330000000  0.4084770000000  0.5155460000000 1.0
C      1  0.4647120000000  0.5862280000000  0.4863340000000 1.0
C      1  0.5880280000000  0.4840310000000  0.5398360000000 1.0
C      1  0.5150990000000  0.5337620000000  0.4078200000000 1.0
C      1  0.4638210000000  0.4088170000000  0.4859460000000 1.0
C      1  0.5923890000000  0.5156790000000  0.4663210000000 1.0
C      1  0.4088010000000  0.4858920000000  0.4625520000000 1.0
C      1  0.4057150000000  0.5145840000000  0.5363190000000 1.0
C      1  0.5141810000000  0.4624180000000  0.5911290000000 1.0
C      1  0.4875550000000  0.5391650000000  0.5929240000000 1.0
C      1  0.4844420000000  0.4626900000000  0.4027130000000 1.0
C      1  0.4631830000000  0.5884770000000  0.5157370000000 1.0
C      1  0.5417380000000  0.4074190000000  0.5125440000000 1.0
C      1  0.5316480000000  0.5938010000000  0.4844540000000 1.0
C      1  0.5099700000000  0.5787760000000  0.4920580000000 1.0
C      1  0.5773490000000  0.4740890000000  0.5160690000000 1.0
C      1  0.4877700000000  0.5154490000000  0.5758480000000 1.0
C      1  0.5167730000000  0.4228030000000  0.5133060000000 1.0
C      1  0.4871590000000  0.5813010000000  0.5291200000000 1.0
C      1  0.4869140000000  0.4211450000000  0.4749880000000 1.0
C      1  0.5773490000000  0.5160420000000  0.4926390000000 1.0
C      1  0.4259040000000  0.4894460000000  0.4864370000000 1.0
C      1  0.4207920000000  0.5245830000000  0.5150770000000 1.0
C      1  0.4803360000000  0.4874450000000  0.4221260000000 1.0
C      1  0.5213180000000  0.5112280000000  0.4246010000000 1.0
C      1  0.5268080000000  0.4845250000000  0.5777790000000 1.0
C      1  0.4877810000000  0.5716170000000  0.4798120000000 1.0
C      1  0.4236400000000  0.4779000000000  0.5128380000000 1.0
C      1  0.5137230000000  0.5103060000000  0.5821410000000 1.0
C      1  0.4899650000000  0.4244380000000  0.5224830000000 1.0
C      1  0.5141760000000  0.5805530000000  0.5188160000000 1.0
C      1  0.5135850000000  0.4224100000000  0.4852510000000 1.0
C      1  0.4215060000000  0.5180500000000  0.4873310000000 1.0
C      1  0.5790090000000  0.4884550000000  0.4928990000000 1.0
C      1  0.5869110000000  0.5288010000000  0.5166950000000 1.0
C      1  0.5098490000000  0.4846760000000  0.4270160000000 1.0
C      1  0.4726030000000  0.5152300000000  0.4191560000000 1.0
C      1  0.4787750000000  0.4891780000000  0.5736690000000 1.0
C      1  0.4877110000000  0.4466650000000  0.5406700000000 1.0
C      1  0.4418010000000  0.5465400000000  0.4835240000000 1.0
C      1  0.5489500000000  0.4829230000000  0.4400950000000 1.0
C      1  0.4909590000000  0.5544670000000  0.4576230000000 1.0
C      1  0.5172070000000  0.4398960000000  0.4488560000000 1.0
C      1  0.5197300000000  0.5572030000000  0.5513920000000 1.0
C      1  0.4435230000000  0.4567160000000  0.5147030000000 1.0
C      1  0.5636770000000  0.5467080000000  0.5141220000000 1.0
C      1  0.5541860000000  0.4514000000000  0.4832000000000 1.0
C      1  0.5487930000000  0.5139790000000  0.5565340000000 1.0
C      1  0.4561540000000  0.4882580000000  0.5556220000000 1.0
C      1  0.4515950000000  0.5164640000000  0.4395890000000 1.0
C      1  0.5136850000000  0.4396800000000  0.5517180000000 1.0
C      1  0.5495630000000  0.5367780000000  0.4895730000000 1.0
C      1  0.4518510000000  0.4835500000000  0.4411640000000 1.0
C      1  0.5194100000000  0.5499380000000  0.4511570000000 1.0
C      1  0.4878720000000  0.4390540000000  0.4526140000000 1.0
C      1  0.4886400000000  0.5601160000000  0.5494850000000 1.0
C      1  0.5586050000000  0.4528340000000  0.5130950000000 1.0
C      1  0.4402430000000  0.5458220000000  0.5157390000000 1.0
C      1  0.4393950000000  0.4507690000000  0.4857270000000 1.0
C      1  0.4467360000000  0.5157770000000  0.5594230000000 1.0
C      1  0.5456310000000  0.4846390000000  0.5554280000000 1.0
C      1  0.5434440000000  0.5113900000000  0.4432890000000 1.0
C      1  0.4295370000000  0.5070860000000  0.5803300000000 1.0
C      1  0.5256810000000  0.5761310000000  0.4393250000000 1.0
C      1  0.5851800000000  0.4310750000000  0.5025710000000 1.0
C      1  0.4324070000000  0.4853940000000  0.4181430000000 1.0
C      1  0.5686840000000  0.5189490000000  0.4303270000000 1.0
C      1  0.5716160000000  0.4947140000000  0.5851750000000 1.0
C      1  0.5005780000000  0.4203080000000  0.5685910000000 1.0
C      1  0.4947340000000  0.5833360000000  0.5733100000000 1.0
C      1  0.4846760000000  0.4187210000000  0.4306130000000 1.0
C      1  0.5629210000000  0.5571640000000  0.4701780000000 1.0
C      1  0.4198400000000  0.4297710000000  0.4934990000000 1.0
C      1  0.4174550000000  0.5682010000000  0.5135790000000 1.0
C      1  0.5620570000000  0.5213750000000  0.5828610000000 1.0
C      1  0.4917980000000  0.5776530000000  0.4383260000000 1.0
C      1  0.4276710000000  0.4330200000000  0.5221700000000 1.0
C      1  0.5731690000000  0.4896280000000  0.4247090000000 1.0
C      1  0.4299710000000  0.5140520000000  0.4170070000000 1.0
C      1  0.4395930000000  0.4698360000000  0.5763970000000 1.0
C      1  0.4703740000000  0.4318330000000  0.5598780000000 1.0
C      1  0.5228350000000  0.5788550000000  0.5711830000000 1.0
C      1  0.5148610000000  0.4176200000000  0.4299590000000 1.0
C      1  0.4184260000000  0.5662330000000  0.4852450000000 1.0
C      1  0.5804710000000  0.4399300000000  0.4752830000000 1.0
C      1  0.5768980000000  0.5676260000000  0.4980680000000 1.0
C      1  0.4412320000000  0.4233580000000  0.4748360000000 1.0
C      1  0.4242600000000  0.4719640000000  0.4423600000000 1.0
C      1  0.4754770000000  0.4388450000000  0.4141940000000 1.0
C      1  0.4409610000000  0.5740820000000  0.5278360000000 1.0
C      1  0.5648710000000  0.4231280000000  0.5208920000000 1.0
C      1  0.5449050000000  0.5799920000000  0.4624500000000 1.0
C      1  0.4176090000000  0.5245400000000  0.5612340000000 1.0
C      1  0.5733000000000  0.4757360000000  0.5640750000000 1.0
C      1  0.5783830000000  0.5357360000000  0.4514880000000 1.0
C      1  0.4769880000000  0.5616900000000  0.5780790000000 1.0
C      1  0.5215440000000  0.4363390000000  0.5802520000000 1.0
C      1  0.5308130000000  0.5513220000000  0.4241470000000 1.0
C      1  0.5546180000000  0.4262650000000  0.4684430000000 1.0
C      1  0.5757260000000  0.4709270000000  0.4474460000000 1.0
C      1  0.5278460000000  0.4423850000000  0.4212240000000 1.0
C      1  0.5638110000000  0.5862410000000  0.5138720000000 1.0
C      1  0.4501550000000  0.4212800000000  0.5354970000000 1.0
C      1  0.4428250000000  0.5737750000000  0.4718740000000 1.0
C      1  0.5742990000000  0.5289450000000  0.5559680000000 1.0
C      1  0.4175090000000  0.4735040000000  0.5586960000000 1.0
C      1  0.4216090000000  0.5272760000000  0.4404580000000 1.0
C      1  0.5338440000000  0.5517070000000  0.5769410000000 1.0
C      1  0.4626080000000  0.4508330000000  0.5810470000000 1.0
C      1  0.4816320000000  0.5619760000000  0.4188200000000 1.0
C      1  0.5164280000000  0.4891880000000  0.4845830000000 1.0
C      1  0.4852170000000  0.5189200000000  0.5113940000000 1.0
C      1  0.5135000000000  0.5141870000000  0.5181990000000 1.0
C      1  0.4813720000000  0.4897790000000  0.5085610000000 1.0
C      1  0.4909510000000  0.5223480000000  0.4823000000000 1.0
C      1  0.5212860000000  0.5190950000000  0.4886690000000 1.0
C      1  0.4874310000000  0.4926660000000  0.4793070000000 1.0
C      1  0.5102900000000  0.4852400000000  0.5132590000000 1.0
END
