TITL C-2441161-5029-120 0.00260546490262755 125000 -3275.11642444752 0 0 25 (C3) n - 1
REM
REM in /home/bkarasulu/work/CARBON/AIRSS/Generating-Clusters/ReaxFF-fromJPCA2015/Units_Real/with-SteepDescent/Higher-Symm
REM
REM
REM
REM
REM
REM ./C.cell (1df0a924f5614ab8850e4351716899ee)
REM
REM compiler GCC version 9.2.1 20190827 (Red Hat 9.2.1-1)
REM options -cpp -mtune=generic -march=x86-64 -g -O0 -fpre-include=/usr/include/finclude/math-vector-fortran.h
REM seed -1035280170 383203946 1217550772 1700303405 -329512050 -1076679500 -1190053735 -1506681659 -2058643922 -1614822134 2053666682 2047015396 790623694 -1635707950 2099852684 1343774398 1641425167 -1026161542 -1320846126 1353989915 -1949009292 -2022096094 1875397832 -2061700400 572410951 1617225296 1138488510 121381276 233720068 2067347171 660798010 -332019513 -611721990
REM
CELL 1.54180   50.00000   50.00000   50.00000   90.00000   90.00000   90.00000
LATT -1
SFAC C  
C      1  0.4724550000000  0.5034950000000  0.4382770000000 1.0
C      1  0.5686120000000  0.5034170000000  0.5096190000000 1.0
C      1  0.4587550000000  0.5034260000000  0.5573010000000 1.0
C      1  0.5174820000000  0.5571280000000  0.5036260000000 1.0
C      1  0.4893960000000  0.5572810000000  0.5161530000000 1.0
C      1  0.4925660000000  0.5570960000000  0.4855030000000 1.0
C      1  0.5347810000000  0.5408710000000  0.5150320000000 1.0
C      1  0.4709390000000  0.5409690000000  0.5253660000000 1.0
C      1  0.4939520000000  0.5408710000000  0.4648430000000 1.0
C      1  0.5297380000000  0.4643410000000  0.4999320000000 1.0
C      1  0.4865540000000  0.4643480000000  0.5284890000000 1.0
C      1  0.4834110000000  0.4643550000000  0.4768130000000 1.0
C      1  0.5149390000000  0.4994900000000  0.4471390000000 1.0
C      1  0.5397090000000  0.4995190000000  0.5420030000000 1.0
C      1  0.4451860000000  0.4995530000000  0.5160670000000 1.0
C      1  0.4906570000000  0.4829040000000  0.4497420000000 1.0
C      1  0.5495920000000  0.4828620000000  0.5197300000000 1.0
C      1  0.4594830000000  0.4828760000000  0.5357750000000 1.0
C      1  0.4618600000000  0.4538680000000  0.4839250000000 1.0
C      1  0.5343530000000  0.4538670000000  0.4777070000000 1.0
C      1  0.5034890000000  0.4538690000000  0.5435990000000 1.0
C      1  0.4520930000000  0.5243130000000  0.5347730000000 1.0
C      1  0.4953680000000  0.5242920000000  0.4437320000000 1.0
C      1  0.5524330000000  0.5242830000000  0.5266710000000 1.0
C      1  0.4999000000000  0.4585480000000  0.5017420000000 1.0
END
