TITL C-2441166-8118-859 0.00184233827911084 125000 -3015.18639730138 0 0 25 (C5) n - 1
REM
REM in /home/bkarasulu/work/CARBON/AIRSS/Generating-Clusters/ReaxFF-fromJPCA2015/Units_Real/with-SteepDescent/Higher-Symm
REM
REM
REM
REM
REM
REM ./C.cell (1df0a924f5614ab8850e4351716899ee)
REM
REM compiler GCC version 9.2.1 20190827 (Red Hat 9.2.1-1)
REM options -cpp -mtune=generic -march=x86-64 -g -O0 -fpre-include=/usr/include/finclude/math-vector-fortran.h
REM seed -561880239 1160510733 -1107113881 446598174 -991163136 873995964 1180389551 1991070 -1170131281 1637015922 1085518819 -355273472 -316381353 -1129627992 -1545978253 1827286423 1126536200 -417699079 -587755473 -217168656 -1436290000 -2431425 1242301439 -1621649954 1197705548 1873458682 1099594170 1462432086 -1340396704 769949805 -2011253567 -1501803865 1814614868
REM
CELL 1.54180   50.00000   50.00000   50.00000   90.00000   90.00000   90.00000
LATT -1
SFAC C  
C      1  0.5058020000000  0.5059290000000  0.5689070000000 1.0
C      1  0.5057930000000  0.5673740000000  0.5156500000000 1.0
C      1  0.5057970000000  0.5357060000000  0.4407660000000 1.0
C      1  0.5058020000000  0.4547010000000  0.4477380000000 1.0
C      1  0.5057950000000  0.4362940000000  0.5269380000000 1.0
C      1  0.4984820000000  0.5066810000000  0.4284880000000 1.0
C      1  0.4984680000000  0.5700760000000  0.4842520000000 1.0
C      1  0.4984900000000  0.5366290000000  0.5617770000000 1.0
C      1  0.4984750000000  0.4525620000000  0.5539290000000 1.0
C      1  0.4984860000000  0.4340560000000  0.4715510000000 1.0
C      1  0.4722170000000  0.4604940000000  0.5648310000000 1.0
C      1  0.4722320000000  0.5494510000000  0.5576130000000 1.0
C      1  0.4722080000000  0.5700590000000  0.4707750000000 1.0
C      1  0.4722260000000  0.4938560000000  0.4243200000000 1.0
C      1  0.4722270000000  0.4261330000000  0.4824570000000 1.0
C      1  0.5280930000000  0.4606450000000  0.4376060000000 1.0
C      1  0.5280910000000  0.5471740000000  0.4432970000000 1.0
C      1  0.5280870000000  0.5685260000000  0.5273340000000 1.0
C      1  0.5280900000000  0.4951610000000  0.5736140000000 1.0
C      1  0.5280870000000  0.4284920000000  0.5181590000000 1.0
C      1  0.4930890000000  0.5463160000000  0.5347960000000 1.0
C      1  0.4930800000000  0.5474030000000  0.4667050000000 1.0
C      1  0.4930870000000  0.4420780000000  0.4990730000000 1.0
C      1  0.4930850000000  0.4829840000000  0.4446220000000 1.0
C      1  0.4930830000000  0.4812180000000  0.5548010000000 1.0
END
