TITL C-2441167-4473-1284 -1.91823412626596e-08 125000 -753.413222627958 0 0 6 (D6h) n - 1
REM
REM in /home/bkarasulu/work/CARBON/AIRSS/Generating-Clusters/ReaxFF-fromJPCA2015/Units_Real/with-SteepDescent/Higher-Symm
REM
REM
REM
REM
REM
REM ./C.cell (1df0a924f5614ab8850e4351716899ee)
REM
REM compiler GCC version 9.2.1 20190827 (Red Hat 9.2.1-1)
REM options -cpp -mtune=generic -march=x86-64 -g -O0 -fpre-include=/usr/include/finclude/math-vector-fortran.h
REM seed -829024495 -1763284130 -1488394662 -255288215 1288468550 1232039752 -1701043118 1053996648 696025799 64206233 -627284102 982493074 -1130943072 1741558931 1096702243 -918433808 -144459551 1210899767 70502868 -100814510 -1045589988 -2100428364 1082146736 -680796383 1606386535 1458471228 846785666 1962154871 1387329959 1933070939 139372356 -1974717499 955883335
REM
CELL 1.54180   50.00000   50.00000   50.00000   90.00000   90.00000   90.00000
LATT -1
SFAC C  
C      1  0.5000000000000  0.4731600000000  0.4867510000000 1.0
C      1  0.5000000000000  0.5248940000000  0.4833810000000 1.0
C      1  0.5000000000000  0.5019460000000  0.5298680000000 1.0
C      1  0.5000000000000  0.4980540000000  0.4701320000000 1.0
C      1  0.5000000000000  0.5268400000000  0.5132490000000 1.0
C      1  0.5000000000000  0.4751060000000  0.5166190000000 1.0
END
