TITL C-2441160-1326-1478 0.0223690484397204 125000 -13166.3778960813 0 0 91 (C1) n - 1
REM
REM in /home/bkarasulu/work/CARBON/AIRSS/Generating-Clusters/ReaxFF-fromJPCA2015/Units_Real/with-SteepDescent/Higher-Symm
REM
REM
REM
REM
REM
REM ./C.cell (1df0a924f5614ab8850e4351716899ee)
REM
REM compiler GCC version 9.2.1 20190827 (Red Hat 9.2.1-1)
REM options -cpp -mtune=generic -march=x86-64 -g -O0 -fpre-include=/usr/include/finclude/math-vector-fortran.h
REM seed 1961955239 1308722203 1609184899 -1297169216 1189803099 -949098260 -278632516 1199216955 -989351466 -1407285097 437343047 708509645 862382531 1181374446 59541138 -1255869999 1994126562 1786702303 444163585 -1225922668 -1011840443 1608671878 677126465 1351775770 -1909394422 2050281620 986052212 -170520430 1577204157 -976190725 -1760703937 -424017824 927704789
REM
CELL 1.54180   50.00000   50.00000   50.00000   90.00000   90.00000   90.00000
LATT -1
SFAC C  
C      1  0.4657480000000  0.4967350000000  0.5525230000000 1.0
C      1  0.5305040000000  0.5024050000000  0.5507470000000 1.0
C      1  0.5308790000000  0.4954590000000  0.4505760000000 1.0
C      1  0.4647290000000  0.5055040000000  0.4446180000000 1.0
C      1  0.4974870000000  0.4645160000000  0.5538040000000 1.0
C      1  0.5029490000000  0.5371080000000  0.5579550000000 1.0
C      1  0.4935750000000  0.5356760000000  0.4448390000000 1.0
C      1  0.5011780000000  0.4624050000000  0.4456840000000 1.0
C      1  0.4399460000000  0.4597410000000  0.5365840000000 1.0
C      1  0.5629790000000  0.5419670000000  0.5342340000000 1.0
C      1  0.5615020000000  0.4567170000000  0.4642070000000 1.0
C      1  0.4382360000000  0.5416680000000  0.4619890000000 1.0
C      1  0.4593930000000  0.4397010000000  0.5372310000000 1.0
C      1  0.5446520000000  0.5620800000000  0.5372150000000 1.0
C      1  0.4579360000000  0.5619440000000  0.4618090000000 1.0
C      1  0.5431760000000  0.4359010000000  0.4653510000000 1.0
C      1  0.5025480000000  0.4213960000000  0.5382330000000 1.0
C      1  0.4922700000000  0.5820080000000  0.5331140000000 1.0
C      1  0.4974600000000  0.4263030000000  0.4635900000000 1.0
C      1  0.5014060000000  0.5790440000000  0.4599590000000 1.0
C      1  0.4211070000000  0.5027970000000  0.5386620000000 1.0
C      1  0.5773090000000  0.4974020000000  0.5384470000000 1.0
C      1  0.4208900000000  0.4978110000000  0.4611360000000 1.0
C      1  0.5844980000000  0.5082520000000  0.4665540000000 1.0
C      1  0.5264850000000  0.4471490000000  0.4448650000000 1.0
C      1  0.4821890000000  0.5623830000000  0.4461760000000 1.0
C      1  0.4836720000000  0.4386650000000  0.5521790000000 1.0
C      1  0.5307690000000  0.5465040000000  0.5580120000000 1.0
C      1  0.4380480000000  0.5171310000000  0.4466350000000 1.0
C      1  0.5456650000000  0.4702140000000  0.4441220000000 1.0
C      1  0.4394430000000  0.4840220000000  0.5519830000000 1.0
C      1  0.5504980000000  0.5246340000000  0.5527490000000 1.0
C      1  0.4658100000000  0.4851170000000  0.4955840000000 1.0
C      1  0.5378360000000  0.5148360000000  0.4982510000000 1.0
C      1  0.5378370000000  0.4861120000000  0.5031310000000 1.0
C      1  0.4646990000000  0.5153200000000  0.5028440000000 1.0
C      1  0.4859910000000  0.4646250000000  0.5014870000000 1.0
C      1  0.5136120000000  0.5322590000000  0.4939730000000 1.0
C      1  0.4842660000000  0.5354480000000  0.4962290000000 1.0
C      1  0.5152060000000  0.4640620000000  0.5044850000000 1.0
C      1  0.4791240000000  0.4978630000000  0.5784860000000 1.0
C      1  0.5201860000000  0.4974630000000  0.5781110000000 1.0
C      1  0.5197160000000  0.5004320000000  0.4233890000000 1.0
C      1  0.4791250000000  0.5010210000000  0.4207000000000 1.0
C      1  0.4992080000000  0.4782200000000  0.5779470000000 1.0
C      1  0.4999310000000  0.5186100000000  0.5807270000000 1.0
C      1  0.4989680000000  0.5211560000000  0.4200200000000 1.0
C      1  0.4990150000000  0.4800600000000  0.4213900000000 1.0
C      1  0.4324970000000  0.4533990000000  0.4848610000000 1.0
C      1  0.5670940000000  0.5493050000000  0.4844440000000 1.0
C      1  0.5683250000000  0.4523420000000  0.5155410000000 1.0
C      1  0.4312870000000  0.5477070000000  0.5156600000000 1.0
C      1  0.4523540000000  0.4332480000000  0.4854660000000 1.0
C      1  0.5458260000000  0.5680760000000  0.4861190000000 1.0
C      1  0.4518280000000  0.5672020000000  0.5149000000000 1.0
C      1  0.5482490000000  0.4320600000000  0.5158570000000 1.0
C      1  0.5706560000000  0.4699440000000  0.5389110000000 1.0
C      1  0.4317060000000  0.5295190000000  0.5379410000000 1.0
C      1  0.4325400000000  0.4715450000000  0.4624640000000 1.0
C      1  0.5689430000000  0.5313200000000  0.4611450000000 1.0
C      1  0.4682540000000  0.5696840000000  0.5392530000000 1.0
C      1  0.5295830000000  0.4311650000000  0.5377720000000 1.0
C      1  0.4698380000000  0.4321770000000  0.4625990000000 1.0
C      1  0.5262020000000  0.5682760000000  0.4639880000000 1.0
C      1  0.4165930000000  0.4921480000000  0.5120460000000 1.0
C      1  0.5850430000000  0.5081460000000  0.5138520000000 1.0
C      1  0.5872730000000  0.4919720000000  0.4887340000000 1.0
C      1  0.4158530000000  0.5077440000000  0.4880190000000 1.0
C      1  0.4924750000000  0.4170900000000  0.5120230000000 1.0
C      1  0.5091330000000  0.5850170000000  0.5112630000000 1.0
C      1  0.4942250000000  0.5821650000000  0.4858930000000 1.0
C      1  0.5080940000000  0.4173950000000  0.4881740000000 1.0
C      1  0.4608190000000  0.5214220000000  0.5375820000000 1.0
C      1  0.5415070000000  0.4796680000000  0.5377050000000 1.0
C      1  0.5411920000000  0.5213620000000  0.4575630000000 1.0
C      1  0.4608170000000  0.4805270000000  0.4615810000000 1.0
C      1  0.5214660000000  0.4586590000000  0.5385280000000 1.0
C      1  0.4774130000000  0.5433510000000  0.5463190000000 1.0
C      1  0.5192210000000  0.5395040000000  0.4606750000000 1.0
C      1  0.4745670000000  0.4572180000000  0.4516950000000 1.0
C      1  0.4698660000000  0.5648300000000  0.4902190000000 1.0
C      1  0.5322120000000  0.4330060000000  0.4908670000000 1.0
C      1  0.5345760000000  0.5718290000000  0.5120770000000 1.0
C      1  0.4694530000000  0.4349710000000  0.5097350000000 1.0
C      1  0.5657210000000  0.4693670000000  0.4908720000000 1.0
C      1  0.4351070000000  0.5304590000000  0.4906290000000 1.0
C      1  0.5654390000000  0.5316240000000  0.5081280000000 1.0
C      1  0.4360270000000  0.4701310000000  0.5093310000000 1.0
C      1  0.5011110000000  0.4972480000000  0.5314450000000 1.0
C      1  0.5056720000000  0.4900040000000  0.4749850000000 1.0
C      1  0.5013340000000  0.5007960000000  0.5022110000000 1.0
END
