TITL C-2441159-1093-312 0.0626920453066621 125000 -6136.82579053445 0 0 58 (D2h) n - 1
REM
REM in /home/bkarasulu/work/CARBON/AIRSS/Generating-Clusters/ReaxFF-fromJPCA2015/Units_Real/with-SteepDescent/Higher-Symm
REM
REM
REM
REM
REM
REM ./C.cell (1df0a924f5614ab8850e4351716899ee)
REM
REM compiler GCC version 9.2.1 20190827 (Red Hat 9.2.1-1)
REM options -cpp -mtune=generic -march=x86-64 -g -O0 -fpre-include=/usr/include/finclude/math-vector-fortran.h
REM seed 966995340 -928056168 1394140863 -296622715 -85412650 -167454787 -614497209 33087170 -511364447 406532924 -1334003352 -43255749 1623541527 1968655011 691023658 1340074306 -385973595 -861595850 -2029893779 1545752579 -1155978234 259652 58863035 -47736773 258126056 890745572 -491270711 2040898078 -1368602810 -2109329892 -845467215 -224112256 1285642163
REM
CELL 1.54180   50.00000   50.00000   50.00000   90.00000   90.00000   90.00000
LATT -1
SFAC C  
C      1  0.4306630000000  0.4860160000000  0.5312790000000 1.0
C      1  0.4306630000000  0.5139840000000  0.4687210000000 1.0
C      1  0.5707340000000  0.4860160000000  0.5312790000000 1.0
C      1  0.5707340000000  0.5139840000000  0.4687210000000 1.0
C      1  0.4306630000000  0.4860160000000  0.4687210000000 1.0
C      1  0.4306630000000  0.5139840000000  0.5312790000000 1.0
C      1  0.5707340000000  0.4860160000000  0.4687210000000 1.0
C      1  0.5707340000000  0.5139840000000  0.5312790000000 1.0
C      1  0.4884520000000  0.4739950000000  0.4806070000000 1.0
C      1  0.4884510000000  0.5260070000000  0.5193940000000 1.0
C      1  0.5129440000000  0.4739950000000  0.4806070000000 1.0
C      1  0.5129450000000  0.5260060000000  0.5193940000000 1.0
C      1  0.4884520000000  0.4739940000000  0.5193930000000 1.0
C      1  0.4884510000000  0.5260070000000  0.4806060000000 1.0
C      1  0.5129450000000  0.4739940000000  0.5193930000000 1.0
C      1  0.5129450000000  0.5260070000000  0.4806060000000 1.0
C      1  0.5569190000000  0.4606720000000  0.5329770000000 1.0
C      1  0.5569180000000  0.5393280000000  0.4670230000000 1.0
C      1  0.4444780000000  0.4606720000000  0.5329770000000 1.0
C      1  0.4444780000000  0.5393280000000  0.4670230000000 1.0
C      1  0.5569180000000  0.4606720000000  0.4670230000000 1.0
C      1  0.5569180000000  0.5393280000000  0.5329770000000 1.0
C      1  0.4444780000000  0.4606720000000  0.4670230000000 1.0
C      1  0.4444780000000  0.5393280000000  0.5329770000000 1.0
C      1  0.4697760000000  0.4516710000000  0.5449020000000 1.0
C      1  0.4697770000000  0.5483280000000  0.4551000000000 1.0
C      1  0.5316200000000  0.4516710000000  0.5449010000000 1.0
C      1  0.5316200000000  0.5483280000000  0.4551000000000 1.0
C      1  0.4697760000000  0.4516720000000  0.4550990000000 1.0
C      1  0.4697770000000  0.5483280000000  0.5449000000000 1.0
C      1  0.5316200000000  0.4516720000000  0.4550990000000 1.0
C      1  0.5316200000000  0.5483280000000  0.5449000000000 1.0
C      1  0.5152200000000  0.5564430000000  0.5206370000000 1.0
C      1  0.5152200000000  0.4435570000000  0.4793630000000 1.0
C      1  0.4861760000000  0.5564430000000  0.5206370000000 1.0
C      1  0.4861760000000  0.4435570000000  0.4793620000000 1.0
C      1  0.5152200000000  0.5564430000000  0.4793630000000 1.0
C      1  0.5152200000000  0.4435570000000  0.5206370000000 1.0
C      1  0.4861760000000  0.5564430000000  0.4793630000000 1.0
C      1  0.4861760000000  0.4435580000000  0.5206370000000 1.0
C      1  0.4513920000000  0.5201400000000  0.5134940000000 1.0
C      1  0.4513930000000  0.4798600000000  0.4865060000000 1.0
C      1  0.5500040000000  0.5201400000000  0.5134940000000 1.0
C      1  0.5500040000000  0.4798600000000  0.4865060000000 1.0
C      1  0.4513920000000  0.5201400000000  0.4865060000000 1.0
C      1  0.4513930000000  0.4798600000000  0.5134940000000 1.0
C      1  0.5500040000000  0.5201400000000  0.4865060000000 1.0
C      1  0.5500040000000  0.4798600000000  0.5134940000000 1.0
C      1  0.4804330000000  0.4791250000000  0.4532530000000 1.0
C      1  0.4804330000000  0.5208750000000  0.5467480000000 1.0
C      1  0.5209630000000  0.4791250000000  0.4532520000000 1.0
C      1  0.5209630000000  0.5208750000000  0.5467480000000 1.0
C      1  0.4804330000000  0.4791250000000  0.5467470000000 1.0
C      1  0.4804330000000  0.5208750000000  0.4532520000000 1.0
C      1  0.5209630000000  0.4791260000000  0.5467470000000 1.0
C      1  0.5209630000000  0.5208750000000  0.4532520000000 1.0
C      1  0.5006980000000  0.5000000000000  0.5589850000000 1.0
C      1  0.5006980000000  0.5000000000000  0.4410150000000 1.0
END
