TITL C-2441157-2117-1034 0.152505701982601 125000 -20834.3928030257 0 0 169 (C1) n - 1
REM
REM in /home/bkarasulu/work/CARBON/AIRSS/Generating-Clusters/ReaxFF-fromJPCA2015/Units_Real/with-SteepDescent/Higher-Symm
REM
REM
REM
REM
REM
REM ./C.cell (1df0a924f5614ab8850e4351716899ee)
REM
REM compiler GCC version 9.2.1 20190827 (Red Hat 9.2.1-1)
REM options -cpp -mtune=generic -march=x86-64 -g -O0 -fpre-include=/usr/include/finclude/math-vector-fortran.h
REM seed -1246331205 -63829502 -1178766811 -478626699 1869114378 -1806077589 1723826144 -2073640226 500963641 -1576889560 1493471676 1412279467 -1574403723 -222081663 586166261 1518290635 -732248832 -1236158557 2098876809 -1577407139 -1718014457 667962321 1203152008 -1493572775 331162294 -1958940492 -2019554857 -83458125 -1164301317 -768534652 1148888148 -682039077 -232041
REM
CELL 1.54180   50.00000   50.00000   50.00000   90.00000   90.00000   90.00000
LATT -1
SFAC C  
C      1  0.5848020000000  0.5004360000000  0.4774790000000 1.0
C      1  0.6004620000000  0.5033780000000  0.5211530000000 1.0
C      1  0.4164120000000  0.5017300000000  0.4721730000000 1.0
C      1  0.4157130000000  0.4990970000000  0.5253690000000 1.0
C      1  0.4168480000000  0.5046500000000  0.4451970000000 1.0
C      1  0.4202920000000  0.4935510000000  0.5524410000000 1.0
C      1  0.5806590000000  0.5063830000000  0.4499860000000 1.0
C      1  0.5758760000000  0.4966510000000  0.5404740000000 1.0
C      1  0.4360740000000  0.4072190000000  0.5007180000000 1.0
C      1  0.4346410000000  0.5888700000000  0.5002340000000 1.0
C      1  0.5622430000000  0.4057780000000  0.5001070000000 1.0
C      1  0.5638100000000  0.5923440000000  0.4999860000000 1.0
C      1  0.5596920000000  0.5669020000000  0.5098610000000 1.0
C      1  0.5606180000000  0.4319250000000  0.4914160000000 1.0
C      1  0.4384180000000  0.5639280000000  0.5106170000000 1.0
C      1  0.4391250000000  0.4324150000000  0.4907800000000 1.0
C      1  0.4616750000000  0.4063400000000  0.5324750000000 1.0
C      1  0.4621520000000  0.5943740000000  0.4702820000000 1.0
C      1  0.5376460000000  0.4052070000000  0.5332000000000 1.0
C      1  0.5372370000000  0.5917100000000  0.4684640000000 1.0
C      1  0.4520580000000  0.5237270000000  0.4989920000000 1.0
C      1  0.4518490000000  0.4746650000000  0.5013600000000 1.0
C      1  0.5472470000000  0.5214830000000  0.5025850000000 1.0
C      1  0.5477560000000  0.4767190000000  0.4977740000000 1.0
C      1  0.4453620000000  0.5027640000000  0.5199340000000 1.0
C      1  0.4425040000000  0.5013390000000  0.4801120000000 1.0
C      1  0.5510440000000  0.5035620000000  0.5266650000000 1.0
C      1  0.5565760000000  0.5001140000000  0.4835710000000 1.0
C      1  0.4266130000000  0.5338560000000  0.4461890000000 1.0
C      1  0.4275930000000  0.4647220000000  0.5535330000000 1.0
C      1  0.5725060000000  0.5346740000000  0.4476100000000 1.0
C      1  0.5646610000000  0.4630740000000  0.5468880000000 1.0
C      1  0.5162250000000  0.4960720000000  0.3973370000000 1.0
C      1  0.5162760000000  0.5024860000000  0.6019970000000 1.0
C      1  0.4860590000000  0.4983350000000  0.3983140000000 1.0
C      1  0.4857810000000  0.5013740000000  0.6034660000000 1.0
C      1  0.5156720000000  0.5287360000000  0.5368530000000 1.0
C      1  0.5161820000000  0.4755590000000  0.4645010000000 1.0
C      1  0.4825900000000  0.5273660000000  0.5324340000000 1.0
C      1  0.4822200000000  0.4751830000000  0.4635110000000 1.0
C      1  0.5135710000000  0.5054060000000  0.5725870000000 1.0
C      1  0.5165240000000  0.4940620000000  0.4278270000000 1.0
C      1  0.4866300000000  0.4962110000000  0.5737200000000 1.0
C      1  0.4888030000000  0.5017840000000  0.4283770000000 1.0
C      1  0.5151820000000  0.4119170000000  0.5096560000000 1.0
C      1  0.5147430000000  0.5899540000000  0.4921700000000 1.0
C      1  0.4850710000000  0.4110110000000  0.5083410000000 1.0
C      1  0.4850530000000  0.5931240000000  0.4914300000000 1.0
C      1  0.5653170000000  0.5042690000000  0.5914200000000 1.0
C      1  0.5655030000000  0.4941770000000  0.4065900000000 1.0
C      1  0.4354310000000  0.5041350000000  0.5945050000000 1.0
C      1  0.4329950000000  0.4970220000000  0.4078920000000 1.0
C      1  0.5113610000000  0.5399480000000  0.4416780000000 1.0
C      1  0.5130920000000  0.4625680000000  0.5574130000000 1.0
C      1  0.4884310000000  0.5274420000000  0.4398510000000 1.0
C      1  0.4857350000000  0.4695850000000  0.5615620000000 1.0
C      1  0.5155390000000  0.5553220000000  0.5725300000000 1.0
C      1  0.5160320000000  0.4443650000000  0.4296890000000 1.0
C      1  0.4829900000000  0.5517110000000  0.5729160000000 1.0
C      1  0.4836170000000  0.4447010000000  0.4304670000000 1.0
C      1  0.4429980000000  0.4551990000000  0.5766350000000 1.0
C      1  0.4428830000000  0.5446870000000  0.4246950000000 1.0
C      1  0.5564790000000  0.4539780000000  0.5740660000000 1.0
C      1  0.5584920000000  0.5444710000000  0.4237010000000 1.0
C      1  0.4659280000000  0.5039900000000  0.5403890000000 1.0
C      1  0.4637200000000  0.4988220000000  0.4597470000000 1.0
C      1  0.5281200000000  0.5033470000000  0.5448250000000 1.0
C      1  0.5313270000000  0.4989060000000  0.4524050000000 1.0
C      1  0.4227460000000  0.5508830000000  0.4688900000000 1.0
C      1  0.4228660000000  0.4466550000000  0.5312720000000 1.0
C      1  0.5764730000000  0.5535970000000  0.4690160000000 1.0
C      1  0.5773590000000  0.4418740000000  0.5319840000000 1.0
C      1  0.4077420000000  0.5379630000000  0.4909090000000 1.0
C      1  0.4086630000000  0.4602410000000  0.5092260000000 1.0
C      1  0.5911790000000  0.5420960000000  0.4912730000000 1.0
C      1  0.5946260000000  0.4537790000000  0.5098570000000 1.0
C      1  0.5768580000000  0.4538510000000  0.4574780000000 1.0
C      1  0.5787210000000  0.5472780000000  0.5424420000000 1.0
C      1  0.4227320000000  0.4528640000000  0.4573340000000 1.0
C      1  0.4234400000000  0.5456400000000  0.5438470000000 1.0
C      1  0.4439430000000  0.4341800000000  0.4518560000000 1.0
C      1  0.4462550000000  0.5646040000000  0.5485420000000 1.0
C      1  0.5557550000000  0.4349390000000  0.4524780000000 1.0
C      1  0.5571480000000  0.5659440000000  0.5489200000000 1.0
C      1  0.5579300000000  0.5868700000000  0.5287420000000 1.0
C      1  0.5569150000000  0.4128220000000  0.4714560000000 1.0
C      1  0.4412240000000  0.5859290000000  0.5287950000000 1.0
C      1  0.4432840000000  0.4129250000000  0.4717070000000 1.0
C      1  0.5823780000000  0.5520230000000  0.5147490000000 1.0
C      1  0.5824410000000  0.4472860000000  0.4843150000000 1.0
C      1  0.4150150000000  0.5495040000000  0.5161430000000 1.0
C      1  0.4174700000000  0.4490350000000  0.4850940000000 1.0
C      1  0.4819900000000  0.5791890000000  0.5610070000000 1.0
C      1  0.4856220000000  0.4145690000000  0.4413040000000 1.0
C      1  0.5101760000000  0.5846650000000  0.5612980000000 1.0
C      1  0.5140190000000  0.4148070000000  0.4409110000000 1.0
C      1  0.5140090000000  0.5780120000000  0.5327010000000 1.0
C      1  0.5146100000000  0.4237720000000  0.4694090000000 1.0
C      1  0.4849740000000  0.5775710000000  0.5290440000000 1.0
C      1  0.4852870000000  0.4228550000000  0.4700740000000 1.0
C      1  0.6021260000000  0.5163690000000  0.4943800000000 1.0
C      1  0.6049760000000  0.4796310000000  0.5106310000000 1.0
C      1  0.3983790000000  0.5099540000000  0.4884030000000 1.0
C      1  0.3969820000000  0.4872730000000  0.5073580000000 1.0
C      1  0.4901360000000  0.5700700000000  0.4585530000000 1.0
C      1  0.4855200000000  0.4351710000000  0.5437390000000 1.0
C      1  0.5109070000000  0.5645960000000  0.4483700000000 1.0
C      1  0.5138050000000  0.4352760000000  0.5438250000000 1.0
C      1  0.4285090000000  0.4768700000000  0.4433170000000 1.0
C      1  0.4298320000000  0.5208070000000  0.5569910000000 1.0
C      1  0.5710500000000  0.4793440000000  0.4452310000000 1.0
C      1  0.5737880000000  0.5224300000000  0.5546830000000 1.0
C      1  0.4836040000000  0.4627230000000  0.4062600000000 1.0
C      1  0.4863240000000  0.5358160000000  0.5972260000000 1.0
C      1  0.5118030000000  0.4611530000000  0.4050810000000 1.0
C      1  0.5147630000000  0.5382050000000  0.5970260000000 1.0
C      1  0.4614300000000  0.4587990000000  0.5231870000000 1.0
C      1  0.4625570000000  0.5440720000000  0.4815540000000 1.0
C      1  0.5394940000000  0.4614830000000  0.5222820000000 1.0
C      1  0.5359850000000  0.5433820000000  0.4808560000000 1.0
C      1  0.5183640000000  0.4780860000000  0.5341350000000 1.0
C      1  0.5258990000000  0.5260550000000  0.4603560000000 1.0
C      1  0.4730800000000  0.4771410000000  0.5393770000000 1.0
C      1  0.4722690000000  0.5259140000000  0.4613440000000 1.0
C      1  0.5293670000000  0.5532700000000  0.5443280000000 1.0
C      1  0.5291150000000  0.4490300000000  0.4572500000000 1.0
C      1  0.4682400000000  0.5532110000000  0.5324670000000 1.0
C      1  0.4702100000000  0.4485080000000  0.4569440000000 1.0
C      1  0.4847970000000  0.4490100000000  0.5966410000000 1.0
C      1  0.4848970000000  0.5510500000000  0.4048380000000 1.0
C      1  0.5151870000000  0.4489690000000  0.5951610000000 1.0
C      1  0.5157910000000  0.5500860000000  0.4048900000000 1.0
C      1  0.4399250000000  0.5299040000000  0.6031940000000 1.0
C      1  0.4376680000000  0.4695920000000  0.3956030000000 1.0
C      1  0.5588650000000  0.5295680000000  0.6019620000000 1.0
C      1  0.5587500000000  0.4689070000000  0.3967420000000 1.0
C      1  0.5634750000000  0.5804640000000  0.4730770000000 1.0
C      1  0.5639650000000  0.4159210000000  0.5274960000000 1.0
C      1  0.4390130000000  0.5764270000000  0.4739490000000 1.0
C      1  0.4360410000000  0.4190990000000  0.5278230000000 1.0
C      1  0.5539250000000  0.4760930000000  0.5929980000000 1.0
C      1  0.5536810000000  0.5221430000000  0.4054010000000 1.0
C      1  0.4466170000000  0.4767450000000  0.5960710000000 1.0
C      1  0.4470570000000  0.5232940000000  0.4052620000000 1.0
C      1  0.4510720000000  0.5277400000000  0.5771620000000 1.0
C      1  0.4496100000000  0.4739880000000  0.4228920000000 1.0
C      1  0.5528360000000  0.5267190000000  0.5748060000000 1.0
C      1  0.5529480000000  0.4719280000000  0.4234460000000 1.0
C      1  0.5272910000000  0.5241250000000  0.3959050000000 1.0
C      1  0.5277250000000  0.4743190000000  0.6035150000000 1.0
C      1  0.4737370000000  0.5259850000000  0.3949340000000 1.0
C      1  0.4731630000000  0.4738040000000  0.6064710000000 1.0
C      1  0.4860520000000  0.5630700000000  0.4862720000000 1.0
C      1  0.4801240000000  0.4385040000000  0.5159020000000 1.0
C      1  0.5163020000000  0.5611510000000  0.4920510000000 1.0
C      1  0.5216750000000  0.4391280000000  0.5144140000000 1.0
C      1  0.5305630000000  0.5844260000000  0.4405180000000 1.0
C      1  0.5297290000000  0.4133640000000  0.5596830000000 1.0
C      1  0.4711180000000  0.5847920000000  0.4433590000000 1.0
C      1  0.4710720000000  0.4151960000000  0.5589780000000 1.0
C      1  0.4910010000000  0.5178710000000  0.5047010000000 1.0
C      1  0.4790700000000  0.4743000000000  0.4914720000000 1.0
C      1  0.5175720000000  0.5259190000000  0.5108200000000 1.0
C      1  0.5208070000000  0.4805030000000  0.4907240000000 1.0
C      1  0.5364490000000  0.4331420000000  0.5799260000000 1.0
C      1  0.5382930000000  0.5650660000000  0.4193560000000 1.0
C      1  0.4644850000000  0.4355550000000  0.5800810000000 1.0
C      1  0.4652200000000  0.5641340000000  0.4224630000000 1.0
C      1  0.4990870000000  0.4884900000000  0.5065840000000 1.0
END
