TITL C-2441163-1170-1170 0.108732791236946 125000 -18582.3331142399 0 0 145 (C1) n - 1
REM
REM in /home/bkarasulu/work/CARBON/AIRSS/Generating-Clusters/ReaxFF-fromJPCA2015/Units_Real/with-SteepDescent/Higher-Symm
REM
REM
REM
REM
REM
REM ./C.cell (1df0a924f5614ab8850e4351716899ee)
REM
REM compiler GCC version 9.2.1 20190827 (Red Hat 9.2.1-1)
REM options -cpp -mtune=generic -march=x86-64 -g -O0 -fpre-include=/usr/include/finclude/math-vector-fortran.h
REM seed -1948055996 -744477993 1252892609 2125549229 -686985153 -1576266369 -2062581254 789607387 1164786649 1548938513 343057207 1952288353 -972936863 -1563688975 -672354190 1012199221 -970180846 -1618384524 -1992984683 1488325712 -333257977 728210434 -831566353 1093112342 -1840142204 723322966 -881197594 117370168 -1425140299 488504896 312801635 -401803376 -1429428630
REM
CELL 1.54180   50.00000   50.00000   50.00000   90.00000   90.00000   90.00000
LATT -1
SFAC C  
C      1  0.5656160000000  0.5239790000000  0.5352940000000 1.0
C      1  0.5135590000000  0.5716660000000  0.5357820000000 1.0
C      1  0.4484170000000  0.5515870000000  0.5294450000000 1.0
C      1  0.4365010000000  0.4729230000000  0.5333750000000 1.0
C      1  0.4876470000000  0.4296330000000  0.5368090000000 1.0
C      1  0.5560810000000  0.4536270000000  0.5358260000000 1.0
C      1  0.5049960000000  0.5990890000000  0.4750270000000 1.0
C      1  0.4189540000000  0.5544350000000  0.4761890000000 1.0
C      1  0.4146120000000  0.4566970000000  0.4773570000000 1.0
C      1  0.4903300000000  0.4046480000000  0.4790730000000 1.0
C      1  0.5825350000000  0.4465400000000  0.4773980000000 1.0
C      1  0.5884190000000  0.5411680000000  0.4797910000000 1.0
C      1  0.5288650000000  0.5133290000000  0.4721360000000 1.0
C      1  0.5042850000000  0.5340630000000  0.4708340000000 1.0
C      1  0.4741610000000  0.5193860000000  0.4699640000000 1.0
C      1  0.4698960000000  0.4872080000000  0.4723750000000 1.0
C      1  0.4963160000000  0.4681970000000  0.4732450000000 1.0
C      1  0.5272560000000  0.4797810000000  0.4716760000000 1.0
C      1  0.4848970000000  0.4750040000000  0.3930280000000 1.0
C      1  0.5146790000000  0.4743420000000  0.3934790000000 1.0
C      1  0.5300020000000  0.4996940000000  0.3935720000000 1.0
C      1  0.5162940000000  0.5259970000000  0.3930080000000 1.0
C      1  0.4858140000000  0.5267250000000  0.3927290000000 1.0
C      1  0.4708280000000  0.5010110000000  0.3935060000000 1.0
C      1  0.4888600000000  0.5261720000000  0.5944110000000 1.0
C      1  0.4707420000000  0.5042510000000  0.5940420000000 1.0
C      1  0.4821590000000  0.4780590000000  0.5948630000000 1.0
C      1  0.5104300000000  0.4735100000000  0.5951450000000 1.0
C      1  0.5283020000000  0.4955220000000  0.5956370000000 1.0
C      1  0.5171920000000  0.5218010000000  0.5957470000000 1.0
C      1  0.5769900000000  0.4680160000000  0.4594240000000 1.0
C      1  0.5667210000000  0.5518870000000  0.4627170000000 1.0
C      1  0.4879250000000  0.5817300000000  0.4580230000000 1.0
C      1  0.4242500000000  0.5304940000000  0.4607220000000 1.0
C      1  0.4340410000000  0.4495410000000  0.4596700000000 1.0
C      1  0.5114160000000  0.4164190000000  0.4619690000000 1.0
C      1  0.4201950000000  0.5502410000000  0.5224780000000 1.0
C      1  0.4120340000000  0.4633370000000  0.5258450000000 1.0
C      1  0.5009140000000  0.4069820000000  0.5238140000000 1.0
C      1  0.5794380000000  0.4514390000000  0.5234990000000 1.0
C      1  0.5813630000000  0.5459070000000  0.5254330000000 1.0
C      1  0.5012780000000  0.5931880000000  0.5228150000000 1.0
C      1  0.4972420000000  0.4533050000000  0.4978680000000 1.0
C      1  0.5411240000000  0.4734920000000  0.4961530000000 1.0
C      1  0.5247520000000  0.5096830000000  0.5011340000000 1.0
C      1  0.5041370000000  0.5482180000000  0.4961480000000 1.0
C      1  0.4716740000000  0.5201010000000  0.4988380000000 1.0
C      1  0.4575680000000  0.4794250000000  0.4974850000000 1.0
C      1  0.4483730000000  0.4749970000000  0.4524720000000 1.0
C      1  0.4924520000000  0.4391510000000  0.4555710000000 1.0
C      1  0.5482350000000  0.4668340000000  0.4531800000000 1.0
C      1  0.5566190000000  0.5241280000000  0.4567040000000 1.0
C      1  0.5048000000000  0.5588870000000  0.4513980000000 1.0
C      1  0.4530470000000  0.5326510000000  0.4545260000000 1.0
C      1  0.5693050000000  0.4315220000000  0.5039010000000 1.0
C      1  0.5931360000000  0.5292410000000  0.5059980000000 1.0
C      1  0.5191030000000  0.5966840000000  0.5001070000000 1.0
C      1  0.4280770000000  0.5688440000000  0.4997830000000 1.0
C      1  0.4032530000000  0.4810200000000  0.5041560000000 1.0
C      1  0.4788710000000  0.4068590000000  0.5057580000000 1.0
C      1  0.4799830000000  0.5607760000000  0.5006600000000 1.0
C      1  0.4400560000000  0.5151720000000  0.5021410000000 1.0
C      1  0.4566710000000  0.4518700000000  0.5018210000000 1.0
C      1  0.5209190000000  0.4390020000000  0.5022940000000 1.0
C      1  0.5630350000000  0.4899090000000  0.5013590000000 1.0
C      1  0.5468140000000  0.5475870000000  0.5020500000000 1.0
C      1  0.5867580000000  0.5017920000000  0.5486020000000 1.0
C      1  0.5412740000000  0.5758410000000  0.5504390000000 1.0
C      1  0.4543420000000  0.5729470000000  0.5484270000000 1.0
C      1  0.4115350000000  0.4847760000000  0.5471010000000 1.0
C      1  0.4599520000000  0.4208060000000  0.5523740000000 1.0
C      1  0.5477030000000  0.4264680000000  0.5488390000000 1.0
C      1  0.4639810000000  0.5836830000000  0.5080400000000 1.0
C      1  0.4135650000000  0.5099110000000  0.5119140000000 1.0
C      1  0.4515920000000  0.4259050000000  0.5129210000000 1.0
C      1  0.5385240000000  0.4171270000000  0.5088810000000 1.0
C      1  0.5906470000000  0.4976020000000  0.5076680000000 1.0
C      1  0.5565990000000  0.5750850000000  0.5073480000000 1.0
C      1  0.5298280000000  0.5414880000000  0.4150420000000 1.0
C      1  0.4772620000000  0.5455330000000  0.4145240000000 1.0
C      1  0.4494490000000  0.5036930000000  0.4144060000000 1.0
C      1  0.4717000000000  0.4580300000000  0.4135870000000 1.0
C      1  0.5217320000000  0.4549580000000  0.4152130000000 1.0
C      1  0.5506000000000  0.4956370000000  0.4151950000000 1.0
C      1  0.5594950000000  0.5352870000000  0.5632050000000 1.0
C      1  0.4996400000000  0.5682430000000  0.5634700000000 1.0
C      1  0.4341540000000  0.5289990000000  0.5610740000000 1.0
C      1  0.4427360000000  0.4588420000000  0.5616030000000 1.0
C      1  0.5016840000000  0.4312390000000  0.5632050000000 1.0
C      1  0.5605830000000  0.4660420000000  0.5639440000000 1.0
C      1  0.4502940000000  0.5520670000000  0.5690170000000 1.0
C      1  0.4282300000000  0.4823700000000  0.5701530000000 1.0
C      1  0.4757890000000  0.4314070000000  0.5746130000000 1.0
C      1  0.5468270000000  0.4428470000000  0.5726530000000 1.0
C      1  0.5731900000000  0.5117000000000  0.5724490000000 1.0
C      1  0.5260820000000  0.5683340000000  0.5739040000000 1.0
C      1  0.4725590000000  0.5398900000000  0.5199500000000 1.0
C      1  0.4514650000000  0.4950190000000  0.5215120000000 1.0
C      1  0.4802300000000  0.4547560000000  0.5213250000000 1.0
C      1  0.5305450000000  0.4611370000000  0.5192250000000 1.0
C      1  0.5470080000000  0.5049620000000  0.5212130000000 1.0
C      1  0.5209450000000  0.5456900000000  0.5192650000000 1.0
C      1  0.4595760000000  0.5761560000000  0.4548060000000 1.0
C      1  0.4147790000000  0.5037340000000  0.4547250000000 1.0
C      1  0.4526540000000  0.4276850000000  0.4521830000000 1.0
C      1  0.5383870000000  0.4237640000000  0.4555740000000 1.0
C      1  0.5870620000000  0.4954150000000  0.4519240000000 1.0
C      1  0.5473520000000  0.5719630000000  0.4562200000000 1.0
C      1  0.5308520000000  0.5378640000000  0.5725740000000 1.0
C      1  0.4808710000000  0.5459450000000  0.5711730000000 1.0
C      1  0.4487970000000  0.5047060000000  0.5711890000000 1.0
C      1  0.4715960000000  0.4610670000000  0.5711380000000 1.0
C      1  0.5183680000000  0.4543690000000  0.5713830000000 1.0
C      1  0.5493240000000  0.4924740000000  0.5722830000000 1.0
C      1  0.4447160000000  0.5661610000000  0.4777870000000 1.0
C      1  0.4119360000000  0.4837240000000  0.4769560000000 1.0
C      1  0.4732210000000  0.4250140000000  0.4697560000000 1.0
C      1  0.5586990000000  0.4328020000000  0.4759220000000 1.0
C      1  0.5788940000000  0.5150510000000  0.4713310000000 1.0
C      1  0.5289330000000  0.5827530000000  0.4765820000000 1.0
C      1  0.4721210000000  0.5037550000000  0.4325620000000 1.0
C      1  0.4826850000000  0.4783340000000  0.4329220000000 1.0
C      1  0.5104960000000  0.4753270000000  0.4330860000000 1.0
C      1  0.5272060000000  0.4966310000000  0.4330230000000 1.0
C      1  0.5168100000000  0.5216510000000  0.4325860000000 1.0
C      1  0.4886420000000  0.5248860000000  0.4320070000000 1.0
C      1  0.5290650000000  0.4084070000000  0.5340630000000 1.0
C      1  0.5910130000000  0.4790170000000  0.5303420000000 1.0
C      1  0.5660770000000  0.5693880000000  0.5360100000000 1.0
C      1  0.4734530000000  0.5917750000000  0.5332640000000 1.0
C      1  0.4149850000000  0.5252800000000  0.5377220000000 1.0
C      1  0.4387090000000  0.4344160000000  0.5382440000000 1.0
C      1  0.5693440000000  0.5081540000000  0.4330820000000 1.0
C      1  0.5281890000000  0.5635790000000  0.4347220000000 1.0
C      1  0.4578620000000  0.5546820000000  0.4353150000000 1.0
C      1  0.4316660000000  0.4910570000000  0.4346010000000 1.0
C      1  0.4717020000000  0.4356710000000  0.4320280000000 1.0
C      1  0.5413870000000  0.4451310000000  0.4349190000000 1.0
C      1  0.4861620000000  0.5259930000000  0.5445750000000 1.0
C      1  0.4715380000000  0.5008980000000  0.5449920000000 1.0
C      1  0.4852760000000  0.4753440000000  0.5433150000000 1.0
C      1  0.5143730000000  0.4748990000000  0.5433270000000 1.0
C      1  0.5296090000000  0.4992950000000  0.5445090000000 1.0
C      1  0.5154710000000  0.5251980000000  0.5446650000000 1.0
C      1  0.4978610000000  0.5040770000000  0.5067460000000 1.0
END
