TITL C-2441157-2117-518 0.060417096631656 125000 -20943.436723008 0 0 154 (C1) n - 1
REM
REM in /home/bkarasulu/work/CARBON/AIRSS/Generating-Clusters/ReaxFF-fromJPCA2015/Units_Real/with-SteepDescent/Higher-Symm
REM
REM
REM
REM
REM
REM ./C.cell (1df0a924f5614ab8850e4351716899ee)
REM
REM compiler GCC version 9.2.1 20190827 (Red Hat 9.2.1-1)
REM options -cpp -mtune=generic -march=x86-64 -g -O0 -fpre-include=/usr/include/finclude/math-vector-fortran.h
REM seed 783429045 -870088880 960576036 1477386785 1279924044 -591432341 -655855657 -1785175271 1603422408 645766891 477953489 -1421156913 -715403408 -1606738366 357239615 1106616252 603442309 902977179 1606867851 -659498839 1045010372 -772868324 1059654340 -342285421 -549445922 1483924097 1564333160 1292942560 809531494 -1957454548 -561862431 516033348 1511608508
REM
CELL 1.54180   50.00000   50.00000   50.00000   90.00000   90.00000   90.00000
LATT -1
SFAC C  
C      1  0.4475480000000  0.5384170000000  0.4730540000000 1.0
C      1  0.4811360000000  0.5876620000000  0.4767180000000 1.0
C      1  0.5505240000000  0.5587890000000  0.4799020000000 1.0
C      1  0.5925790000000  0.4999820000000  0.4822330000000 1.0
C      1  0.5465780000000  0.4381300000000  0.4785070000000 1.0
C      1  0.4818240000000  0.4224560000000  0.4790510000000 1.0
C      1  0.4269570000000  0.4672360000000  0.4764730000000 1.0
C      1  0.5314830000000  0.5886830000000  0.5372150000000 1.0
C      1  0.5891850000000  0.5200730000000  0.5423020000000 1.0
C      1  0.5857480000000  0.4459080000000  0.5391360000000 1.0
C      1  0.5100980000000  0.3978320000000  0.5378050000000 1.0
C      1  0.4273040000000  0.4408580000000  0.5446950000000 1.0
C      1  0.4026070000000  0.5118660000000  0.5327850000000 1.0
C      1  0.4515530000000  0.5843810000000  0.5401160000000 1.0
C      1  0.5001370000000  0.5353910000000  0.4107090000000 1.0
C      1  0.5305090000000  0.5244550000000  0.4077020000000 1.0
C      1  0.5423970000000  0.4982300000000  0.4058940000000 1.0
C      1  0.5084120000000  0.4637420000000  0.4146130000000 1.0
C      1  0.4778900000000  0.4688590000000  0.4122370000000 1.0
C      1  0.4617560000000  0.4972260000000  0.4082170000000 1.0
C      1  0.4712330000000  0.5244200000000  0.4075220000000 1.0
C      1  0.5404930000000  0.4139020000000  0.4610240000000 1.0
C      1  0.4594520000000  0.4141700000000  0.4601760000000 1.0
C      1  0.4043200000000  0.4775990000000  0.4588100000000 1.0
C      1  0.4224850000000  0.5556950000000  0.4709690000000 1.0
C      1  0.4969200000000  0.5985110000000  0.4554970000000 1.0
C      1  0.5718930000000  0.5631100000000  0.4636180000000 1.0
C      1  0.5935550000000  0.4781520000000  0.4632820000000 1.0
C      1  0.3974850000000  0.5179600000000  0.5019190000000 1.0
C      1  0.4452740000000  0.5937490000000  0.5068400000000 1.0
C      1  0.5385960000000  0.5966230000000  0.5082970000000 1.0
C      1  0.6002640000000  0.5366950000000  0.5058780000000 1.0
C      1  0.5881860000000  0.4411110000000  0.5086600000000 1.0
C      1  0.5100690000000  0.3925180000000  0.5068250000000 1.0
C      1  0.4288810000000  0.4255790000000  0.5063210000000 1.0
C      1  0.4344990000000  0.4948750000000  0.4191690000000 1.0
C      1  0.4519480000000  0.5456130000000  0.4198290000000 1.0
C      1  0.5072660000000  0.5632950000000  0.4187800000000 1.0
C      1  0.5561320000000  0.5353130000000  0.4206060000000 1.0
C      1  0.5621210000000  0.4792500000000  0.4202890000000 1.0
C      1  0.5185690000000  0.4364440000000  0.4189250000000 1.0
C      1  0.4613680000000  0.4438120000000  0.4175920000000 1.0
C      1  0.5900190000000  0.4731300000000  0.5468690000000 1.0
C      1  0.5334160000000  0.4149040000000  0.5444580000000 1.0
C      1  0.4522780000000  0.4241360000000  0.5431120000000 1.0
C      1  0.4114330000000  0.4862510000000  0.5443110000000 1.0
C      1  0.4349060000000  0.5594230000000  0.5425870000000 1.0
C      1  0.5037420000000  0.5882000000000  0.5441370000000 1.0
C      1  0.5788850000000  0.5476540000000  0.5406370000000 1.0
C      1  0.5467150000000  0.4635940000000  0.4648620000000 1.0
C      1  0.5023180000000  0.4338930000000  0.4612150000000 1.0
C      1  0.4531050000000  0.4605210000000  0.4593330000000 1.0
C      1  0.4411860000000  0.5111030000000  0.4631660000000 1.0
C      1  0.4706270000000  0.5490940000000  0.4578700000000 1.0
C      1  0.5214810000000  0.5547500000000  0.4622080000000 1.0
C      1  0.5488750000000  0.5145810000000  0.4592890000000 1.0
C      1  0.4010840000000  0.4996360000000  0.4786570000000 1.0
C      1  0.4397760000000  0.5741360000000  0.4871550000000 1.0
C      1  0.5202770000000  0.5954660000000  0.4862900000000 1.0
C      1  0.5883750000000  0.5449100000000  0.4807850000000 1.0
C      1  0.5840910000000  0.4592740000000  0.4855130000000 1.0
C      1  0.5228900000000  0.4064200000000  0.4835940000000 1.0
C      1  0.4414230000000  0.4257230000000  0.4804820000000 1.0
C      1  0.4741570000000  0.4807530000000  0.4857240000000 1.0
C      1  0.4783800000000  0.5050820000000  0.4755960000000 1.0
C      1  0.4886040000000  0.5278220000000  0.4860590000000 1.0
C      1  0.5164150000000  0.5267540000000  0.4960190000000 1.0
C      1  0.5382720000000  0.5094870000000  0.4863680000000 1.0
C      1  0.5298810000000  0.4815760000000  0.4812680000000 1.0
C      1  0.5019970000000  0.4715170000000  0.4834980000000 1.0
C      1  0.5297430000000  0.5691270000000  0.4363570000000 1.0
C      1  0.5711280000000  0.5192510000000  0.4407820000000 1.0
C      1  0.5565410000000  0.4567000000000  0.4384360000000 1.0
C      1  0.5006040000000  0.4203700000000  0.4354880000000 1.0
C      1  0.4391840000000  0.4500930000000  0.4353580000000 1.0
C      1  0.4238440000000  0.5153630000000  0.4376960000000 1.0
C      1  0.4632270000000  0.5673600000000  0.4361820000000 1.0
C      1  0.5338490000000  0.5001980000000  0.5469810000000 1.0
C      1  0.5207930000000  0.4739830000000  0.5546140000000 1.0
C      1  0.4921840000000  0.4657430000000  0.5534230000000 1.0
C      1  0.4710770000000  0.4832640000000  0.5591590000000 1.0
C      1  0.4704680000000  0.5093360000000  0.5528260000000 1.0
C      1  0.4921190000000  0.5304210000000  0.5581570000000 1.0
C      1  0.5177250000000  0.5293580000000  0.5475550000000 1.0
C      1  0.4781180000000  0.5309220000000  0.5138720000000 1.0
C      1  0.5084070000000  0.5369450000000  0.5212500000000 1.0
C      1  0.5454330000000  0.4973290000000  0.5201200000000 1.0
C      1  0.5294140000000  0.4762230000000  0.5108300000000 1.0
C      1  0.5027560000000  0.4640560000000  0.5136270000000 1.0
C      1  0.4747850000000  0.4771460000000  0.5146630000000 1.0
C      1  0.4698850000000  0.5044280000000  0.5239420000000 1.0
C      1  0.4899180000000  0.4093090000000  0.5541430000000 1.0
C      1  0.4209110000000  0.4541670000000  0.5692980000000 1.0
C      1  0.4128290000000  0.5265410000000  0.5545720000000 1.0
C      1  0.4673640000000  0.5860370000000  0.5649440000000 1.0
C      1  0.5424570000000  0.5745060000000  0.5602900000000 1.0
C      1  0.5812740000000  0.5107430000000  0.5680390000000 1.0
C      1  0.5658690000000  0.4372230000000  0.5577130000000 1.0
C      1  0.4879070000000  0.4470220000000  0.5763920000000 1.0
C      1  0.4525510000000  0.4772990000000  0.5785560000000 1.0
C      1  0.4509750000000  0.5232500000000  0.5772590000000 1.0
C      1  0.4871360000000  0.5513800000000  0.5781620000000 1.0
C      1  0.5343730000000  0.5456940000000  0.5707210000000 1.0
C      1  0.5553940000000  0.5012640000000  0.5739620000000 1.0
C      1  0.5338200000000  0.4591190000000  0.5761960000000 1.0
C      1  0.6073810000000  0.5090830000000  0.5063650000000 1.0
C      1  0.5650330000000  0.4263500000000  0.5028800000000 1.0
C      1  0.4840480000000  0.4025730000000  0.5047770000000 1.0
C      1  0.4166500000000  0.4508270000000  0.5024500000000 1.0
C      1  0.4090370000000  0.5438320000000  0.4959930000000 1.0
C      1  0.4730040000000  0.5999340000000  0.5030910000000 1.0
C      1  0.5601740000000  0.5792190000000  0.4990500000000 1.0
C      1  0.5009700000000  0.4628290000000  0.4565950000000 1.0
C      1  0.4743530000000  0.4748150000000  0.4441330000000 1.0
C      1  0.4697790000000  0.5042940000000  0.4503130000000 1.0
C      1  0.4855570000000  0.5283490000000  0.4440710000000 1.0
C      1  0.5117230000000  0.5280290000000  0.4523830000000 1.0
C      1  0.5258810000000  0.5056830000000  0.4442170000000 1.0
C      1  0.5196970000000  0.4774660000000  0.4373170000000 1.0
C      1  0.4696370000000  0.5158490000000  0.5983190000000 1.0
C      1  0.4944960000000  0.5332760000000  0.6002550000000 1.0
C      1  0.5224980000000  0.5278490000000  0.5955090000000 1.0
C      1  0.5335420000000  0.5017770000000  0.5967760000000 1.0
C      1  0.5209460000000  0.4751490000000  0.5980030000000 1.0
C      1  0.4921130000000  0.4671610000000  0.5979690000000 1.0
C      1  0.4700930000000  0.4862630000000  0.6004850000000 1.0
C      1  0.5419340000000  0.4300010000000  0.4362110000000 1.0
C      1  0.4701690000000  0.4209430000000  0.4336100000000 1.0
C      1  0.4200190000000  0.4735060000000  0.4336500000000 1.0
C      1  0.4296350000000  0.5433460000000  0.4379330000000 1.0
C      1  0.4890280000000  0.5830820000000  0.4322620000000 1.0
C      1  0.5577770000000  0.5595420000000  0.4368850000000 1.0
C      1  0.5811820000000  0.4909530000000  0.4388070000000 1.0
C      1  0.4704820000000  0.4242010000000  0.5675370000000 1.0
C      1  0.4234930000000  0.4817910000000  0.5724640000000 1.0
C      1  0.4321250000000  0.5432540000000  0.5680150000000 1.0
C      1  0.4937750000000  0.5801890000000  0.5722180000000 1.0
C      1  0.5624380000000  0.5546610000000  0.5645740000000 1.0
C      1  0.5799390000000  0.4834820000000  0.5712850000000 1.0
C      1  0.5415720000000  0.4304920000000  0.5693560000000 1.0
C      1  0.4509000000000  0.5484480000000  0.5006730000000 1.0
C      1  0.5058160000000  0.5709920000000  0.4837530000000 1.0
C      1  0.5628400000000  0.5393650000000  0.4951650000000 1.0
C      1  0.5747500000000  0.4839780000000  0.4994440000000 1.0
C      1  0.5222950000000  0.4330710000000  0.4961690000000 1.0
C      1  0.4636990000000  0.4415010000000  0.4966660000000 1.0
C      1  0.4289260000000  0.4961860000000  0.4865090000000 1.0
C      1  0.4811420000000  0.5841680000000  0.5259570000000 1.0
C      1  0.5636290000000  0.5571430000000  0.5176210000000 1.0
C      1  0.5882510000000  0.4936740000000  0.5259800000000 1.0
C      1  0.5408050000000  0.4276720000000  0.5189360000000 1.0
C      1  0.4697550000000  0.4241370000000  0.5192930000000 1.0
C      1  0.4232090000000  0.4651750000000  0.5270250000000 1.0
C      1  0.4278960000000  0.5449020000000  0.5182320000000 1.0
END
