TITL C-2441157-2117-364 -7.59427942408807e-05 125000 -1484.37656992929 0 0 11 (D2) n - 1
REM
REM in /home/bkarasulu/work/CARBON/AIRSS/Generating-Clusters/ReaxFF-fromJPCA2015/Units_Real/with-SteepDescent/Higher-Symm
REM
REM
REM
REM
REM
REM ./C.cell (1df0a924f5614ab8850e4351716899ee)
REM
REM compiler GCC version 9.2.1 20190827 (Red Hat 9.2.1-1)
REM options -cpp -mtune=generic -march=x86-64 -g -O0 -fpre-include=/usr/include/finclude/math-vector-fortran.h
REM seed 1012518759 1855736814 -1118935397 -519163081 -697078232 1772616890 -752739537 812104297 -365737851 -1617301476 -644571203 -1519551712 740674122 206530699 -325519091 -919209221 -2098074993 -2035383293 -1033007993 970403270 -639162923 196227028 1618901844 1503126538 1711721551 -1716239189 -1577338909 -2036242824 174313756 910025304 630773739 1311760822 1053100762
REM
CELL 1.54180   50.00000   50.00000   50.00000   90.00000   90.00000   90.00000
LATT -1
SFAC C  
C      1  0.4841850000000  0.5018550000000  0.4604130000000 1.0
C      1  0.4843530000000  0.4999540000000  0.5414860000000 1.0
C      1  0.5105020000000  0.4999790000000  0.4603950000000 1.0
C      1  0.5103280000000  0.5018900000000  0.5414720000000 1.0
C      1  0.4579830000000  0.4979750000000  0.5309200000000 1.0
C      1  0.4582550000000  0.5036320000000  0.4719580000000 1.0
C      1  0.5367150000000  0.5038670000000  0.5309230000000 1.0
C      1  0.5364290000000  0.4982010000000  0.4719590000000 1.0
C      1  0.4708820000000  0.5010350000000  0.5015290000000 1.0
C      1  0.5238150000000  0.5007940000000  0.5015350000000 1.0
C      1  0.4973430000000  0.5009160000000  0.5001950000000 1.0
END
