TITL C-2441166-8118-103 0.0995611586024819 125000 -18205.4858597675 0 0 142 (C1) n - 1
REM
REM in /home/bkarasulu/work/CARBON/AIRSS/Generating-Clusters/ReaxFF-fromJPCA2015/Units_Real/with-SteepDescent/Higher-Symm
REM
REM
REM
REM
REM
REM ./C.cell (1df0a924f5614ab8850e4351716899ee)
REM
REM compiler GCC version 9.2.1 20190827 (Red Hat 9.2.1-1)
REM options -cpp -mtune=generic -march=x86-64 -g -O0 -fpre-include=/usr/include/finclude/math-vector-fortran.h
REM seed -341471735 1166956287 155144932 -959775296 1133616666 1316040982 1106480407 1324971584 620467989 -537462063 -2075265683 1753972168 448716868 -718887449 1250080264 -1478823351 -1637460898 1426644440 -596301010 -2130168760 1447158445 -1240826383 955026841 -1305866176 -1800652904 -740207504 -910734820 1347736467 846465276 -860218998 -2091828601 645328954 1598810952
REM
CELL 1.54180   50.00000   50.00000   50.00000   90.00000   90.00000   90.00000
LATT -1
SFAC C  
C      1  0.5547360000000  0.5280290000000  0.5313390000000 1.0
C      1  0.5500400000000  0.4995860000000  0.5255220000000 1.0
C      1  0.5388750000000  0.4635730000000  0.4869090000000 1.0
C      1  0.5373350000000  0.5049840000000  0.4532640000000 1.0
C      1  0.5434480000000  0.5408910000000  0.4876830000000 1.0
C      1  0.5454640000000  0.5178580000000  0.5720460000000 1.0
C      1  0.5431040000000  0.4515370000000  0.5403900000000 1.0
C      1  0.5483110000000  0.4376930000000  0.4497160000000 1.0
C      1  0.5486270000000  0.5235930000000  0.4329940000000 1.0
C      1  0.5433050000000  0.5641510000000  0.5050370000000 1.0
C      1  0.4850150000000  0.5028670000000  0.6095160000000 1.0
C      1  0.4850930000000  0.3943650000000  0.5278730000000 1.0
C      1  0.4891540000000  0.4349010000000  0.4158600000000 1.0
C      1  0.4881850000000  0.5686660000000  0.4120450000000 1.0
C      1  0.4848690000000  0.6034020000000  0.5316310000000 1.0
C      1  0.4230510000000  0.4599970000000  0.4869720000000 1.0
C      1  0.4200430000000  0.4954630000000  0.4602330000000 1.0
C      1  0.4230910000000  0.5351640000000  0.4839310000000 1.0
C      1  0.4243180000000  0.5211270000000  0.5306670000000 1.0
C      1  0.4191350000000  0.4772580000000  0.5259720000000 1.0
C      1  0.4165550000000  0.4618600000000  0.5520440000000 1.0
C      1  0.4180700000000  0.4312410000000  0.4804970000000 1.0
C      1  0.4154090000000  0.4992350000000  0.4322970000000 1.0
C      1  0.4184150000000  0.5640840000000  0.4798300000000 1.0
C      1  0.4213410000000  0.5315550000000  0.5575570000000 1.0
C      1  0.5016910000000  0.5785470000000  0.4834490000000 1.0
C      1  0.5017040000000  0.5310100000000  0.5736390000000 1.0
C      1  0.4999150000000  0.4461120000000  0.5598980000000 1.0
C      1  0.4982370000000  0.4286260000000  0.4618400000000 1.0
C      1  0.5026790000000  0.5100450000000  0.4236840000000 1.0
C      1  0.4380040000000  0.4476320000000  0.5651540000000 1.0
C      1  0.4411790000000  0.4180360000000  0.4677520000000 1.0
C      1  0.4371100000000  0.5067650000000  0.4144310000000 1.0
C      1  0.4405290000000  0.5835980000000  0.4801960000000 1.0
C      1  0.4390050000000  0.5471540000000  0.5743780000000 1.0
C      1  0.5202510000000  0.4496110000000  0.4474870000000 1.0
C      1  0.4996590000000  0.5362220000000  0.4333870000000 1.0
C      1  0.4975260000000  0.5718840000000  0.5108050000000 1.0
C      1  0.5198640000000  0.5073130000000  0.5740300000000 1.0
C      1  0.4978330000000  0.4321570000000  0.5354680000000 1.0
C      1  0.4777560000000  0.5412620000000  0.4145330000000 1.0
C      1  0.4716850000000  0.5945980000000  0.5077730000000 1.0
C      1  0.4785870000000  0.5260480000000  0.5961830000000 1.0
C      1  0.4754270000000  0.4159640000000  0.5451200000000 1.0
C      1  0.4768010000000  0.4249790000000  0.4401470000000 1.0
C      1  0.4290230000000  0.4753960000000  0.5740840000000 1.0
C      1  0.4335340000000  0.4127360000000  0.4964170000000 1.0
C      1  0.4313190000000  0.4786210000000  0.4213510000000 1.0
C      1  0.4329450000000  0.5678900000000  0.4554560000000 1.0
C      1  0.4288680000000  0.5589770000000  0.5500230000000 1.0
C      1  0.5088560000000  0.4106190000000  0.5183810000000 1.0
C      1  0.5115410000000  0.4546780000000  0.4178860000000 1.0
C      1  0.5107590000000  0.5638520000000  0.4325050000000 1.0
C      1  0.5082110000000  0.5849140000000  0.5355050000000 1.0
C      1  0.5153060000000  0.4836040000000  0.5891730000000 1.0
C      1  0.5451410000000  0.4796970000000  0.5481620000000 1.0
C      1  0.5448920000000  0.4367190000000  0.4965680000000 1.0
C      1  0.5448050000000  0.4828930000000  0.4365020000000 1.0
C      1  0.5462990000000  0.5517640000000  0.4611340000000 1.0
C      1  0.5380480000000  0.5511260000000  0.5325030000000 1.0
C      1  0.4531250000000  0.5236430000000  0.5819690000000 1.0
C      1  0.4502320000000  0.4311290000000  0.5442330000000 1.0
C      1  0.4527820000000  0.4379450000000  0.4498710000000 1.0
C      1  0.4524640000000  0.5296920000000  0.4243640000000 1.0
C      1  0.4524850000000  0.5742920000000  0.5051330000000 1.0
C      1  0.5845990000000  0.5471070000000  0.4889980000000 1.0
C      1  0.5828710000000  0.5284720000000  0.5417170000000 1.0
C      1  0.5868880000000  0.4686490000000  0.5399490000000 1.0
C      1  0.5852100000000  0.4543620000000  0.4810290000000 1.0
C      1  0.5877660000000  0.5025430000000  0.4507500000000 1.0
C      1  0.4872970000000  0.4962820000000  0.4420780000000 1.0
C      1  0.4922530000000  0.5530350000000  0.4761520000000 1.0
C      1  0.4874620000000  0.5351200000000  0.5479960000000 1.0
C      1  0.4843460000000  0.4687120000000  0.5530370000000 1.0
C      1  0.4863730000000  0.4450590000000  0.4841350000000 1.0
C      1  0.4710060000000  0.4761110000000  0.4329780000000 1.0
C      1  0.4723740000000  0.5572050000000  0.4567540000000 1.0
C      1  0.4715270000000  0.5578650000000  0.5455290000000 1.0
C      1  0.4694120000000  0.4845760000000  0.5712680000000 1.0
C      1  0.4693460000000  0.4328590000000  0.5026170000000 1.0
C      1  0.4832810000000  0.5150860000000  0.5284220000000 1.0
C      1  0.4847250000000  0.4720240000000  0.5244870000000 1.0
C      1  0.4949530000000  0.4718700000000  0.4833430000000 1.0
C      1  0.4889160000000  0.5082580000000  0.4670200000000 1.0
C      1  0.4944990000000  0.5423840000000  0.5026690000000 1.0
C      1  0.4491990000000  0.4738000000000  0.4900250000000 1.0
C      1  0.4474600000000  0.4963700000000  0.4717010000000 1.0
C      1  0.4494970000000  0.5214250000000  0.4869100000000 1.0
C      1  0.4541160000000  0.5131180000000  0.5158270000000 1.0
C      1  0.4547090000000  0.4821070000000  0.5174690000000 1.0
C      1  0.5180810000000  0.5240590000000  0.4985840000000 1.0
C      1  0.5092490000000  0.5044150000000  0.5215250000000 1.0
C      1  0.5134660000000  0.4761750000000  0.5240430000000 1.0
C      1  0.5183380000000  0.4714370000000  0.4674710000000 1.0
C      1  0.5158400000000  0.5103310000000  0.4724580000000 1.0
C      1  0.6001340000000  0.4842220000000  0.5190220000000 1.0
C      1  0.5995030000000  0.4773160000000  0.4906210000000 1.0
C      1  0.5998210000000  0.5015950000000  0.4762130000000 1.0
C      1  0.5983880000000  0.5227790000000  0.4948920000000 1.0
C      1  0.5990690000000  0.5125030000000  0.5210650000000 1.0
C      1  0.4014860000000  0.4730010000000  0.5015520000000 1.0
C      1  0.3984960000000  0.4923500000000  0.4792970000000 1.0
C      1  0.3995080000000  0.5195080000000  0.4855360000000 1.0
C      1  0.3977630000000  0.5232370000000  0.5133210000000 1.0
C      1  0.4050510000000  0.5013210000000  0.5299030000000 1.0
C      1  0.4445710000000  0.4998260000000  0.5679350000000 1.0
C      1  0.4423820000000  0.4329190000000  0.5154640000000 1.0
C      1  0.4458610000000  0.4668040000000  0.4436490000000 1.0
C      1  0.4476290000000  0.5421640000000  0.4508940000000 1.0
C      1  0.4475970000000  0.5582590000000  0.5289480000000 1.0
C      1  0.5731620000000  0.4382980000000  0.5023790000000 1.0
C      1  0.5733230000000  0.4790190000000  0.4411540000000 1.0
C      1  0.5741850000000  0.5489900000000  0.4619490000000 1.0
C      1  0.5837690000000  0.5606970000000  0.5357540000000 1.0
C      1  0.5717290000000  0.4839160000000  0.5600290000000 1.0
C      1  0.5722630000000  0.4535190000000  0.4547990000000 1.0
C      1  0.5762790000000  0.5273710000000  0.4426310000000 1.0
C      1  0.5755770000000  0.5670880000000  0.5095190000000 1.0
C      1  0.5718650000000  0.5120980000000  0.5664060000000 1.0
C      1  0.5708080000000  0.4467080000000  0.5301330000000 1.0
C      1  0.5177900000000  0.5021410000000  0.4007670000000 1.0
C      1  0.5224620000000  0.5948820000000  0.4734550000000 1.0
C      1  0.5215400000000  0.5533210000000  0.5796070000000 1.0
C      1  0.5173160000000  0.4372890000000  0.5816590000000 1.0
C      1  0.5165490000000  0.4071970000000  0.4694520000000 1.0
C      1  0.4849000000000  0.5830610000000  0.5527000000000 1.0
C      1  0.4857700000000  0.4792360000000  0.5952910000000 1.0
C      1  0.4839740000000  0.4081740000000  0.5021690000000 1.0
C      1  0.4844160000000  0.4630610000000  0.4105670000000 1.0
C      1  0.4855220000000  0.5768720000000  0.4395560000000 1.0
C      1  0.5372470000000  0.4824130000000  0.4080260000000 1.0
C      1  0.5386200000000  0.5781010000000  0.4571340000000 1.0
C      1  0.5348130000000  0.5659280000000  0.5571440000000 1.0
C      1  0.5332190000000  0.4599990000000  0.5903580000000 1.0
C      1  0.5344680000000  0.4111730000000  0.4909240000000 1.0
C      1  0.5440080000000  0.5114490000000  0.4064260000000 1.0
C      1  0.5470910000000  0.5864190000000  0.4854080000000 1.0
C      1  0.5483820000000  0.5445350000000  0.5762250000000 1.0
C      1  0.5427830000000  0.4426620000000  0.5686410000000 1.0
C      1  0.5435740000000  0.4126220000000  0.4625470000000 1.0
C      1  0.4825560000000  0.4967570000000  0.4919750000000 1.0
C      1  0.5450060000000  0.4865280000000  0.5019470000000 1.0
END
