TITL C-2441156-4686-545 0.0104882684814261 125000 -8494.69663815325 0 0 59 (C1) n - 1
REM
REM in /home/bkarasulu/work/CARBON/AIRSS/Generating-Clusters/ReaxFF-fromJPCA2015/Units_Real/with-SteepDescent/Higher-Symm
REM
REM
REM
REM
REM
REM ./C.cell (1df0a924f5614ab8850e4351716899ee)
REM
REM compiler GCC version 9.2.1 20190827 (Red Hat 9.2.1-1)
REM options -cpp -mtune=generic -march=x86-64 -g -O0 -fpre-include=/usr/include/finclude/math-vector-fortran.h
REM seed -1724384735 -83224687 -232784089 1782135213 -469116039 1901479740 598602483 -1795208734 -2057086431 -963755320 1165000791 281879855 -183003331 -449211691 1587063764 795497534 432724304 -248353380 -1714842383 -266270415 -113096107 1831043005 1804235658 -441557166 1109010135 1137347703 1874853107 -988350091 -1735564892 -1970889349 1100713683 -312363731 -1867998857
REM
CELL 1.54180   50.00000   50.00000   50.00000   90.00000   90.00000   90.00000
LATT -1
SFAC C  
C      1  0.5267800000000  0.5312900000000  0.5493590000000 1.0
C      1  0.5269600000000  0.4691340000000  0.4506510000000 1.0
C      1  0.5266940000000  0.5284940000000  0.4507810000000 1.0
C      1  0.5289320000000  0.4710050000000  0.5489020000000 1.0
C      1  0.4825400000000  0.5235920000000  0.4742020000000 1.0
C      1  0.4810400000000  0.4744040000000  0.5279690000000 1.0
C      1  0.4803820000000  0.5233290000000  0.5271090000000 1.0
C      1  0.4818790000000  0.4730710000000  0.4713780000000 1.0
C      1  0.5377150000000  0.5531640000000  0.4592580000000 1.0
C      1  0.5419440000000  0.4564830000000  0.5283180000000 1.0
C      1  0.5443680000000  0.5384440000000  0.5257910000000 1.0
C      1  0.5377650000000  0.4448020000000  0.4596420000000 1.0
C      1  0.5278150000000  0.5669110000000  0.4830330000000 1.0
C      1  0.5295850000000  0.4359460000000  0.5128100000000 1.0
C      1  0.5295440000000  0.5592780000000  0.5114450000000 1.0
C      1  0.5275860000000  0.4309460000000  0.4830850000000 1.0
C      1  0.4986170000000  0.4263400000000  0.4854520000000 1.0
C      1  0.5008250000000  0.5680810000000  0.5152700000000 1.0
C      1  0.5001310000000  0.4287030000000  0.5147150000000 1.0
C      1  0.4984770000000  0.5719040000000  0.4858470000000 1.0
C      1  0.5903530000000  0.4860880000000  0.5155200000000 1.0
C      1  0.5943910000000  0.5133910000000  0.4841070000000 1.0
C      1  0.5931490000000  0.4839130000000  0.4862190000000 1.0
C      1  0.5895590000000  0.5155890000000  0.5130430000000 1.0
C      1  0.5538150000000  0.4674910000000  0.4545680000000 1.0
C      1  0.5451140000000  0.5127150000000  0.5581080000000 1.0
C      1  0.5542340000000  0.4866860000000  0.5548820000000 1.0
C      1  0.5534600000000  0.5295190000000  0.4568590000000 1.0
C      1  0.4593280000000  0.4779770000000  0.5498580000000 1.0
C      1  0.4606480000000  0.5201240000000  0.4498360000000 1.0
C      1  0.4607720000000  0.4781590000000  0.4496470000000 1.0
C      1  0.4579240000000  0.5198080000000  0.5509900000000 1.0
C      1  0.4502470000000  0.5576520000000  0.4849430000000 1.0
C      1  0.4502230000000  0.4411360000000  0.5140470000000 1.0
C      1  0.4502420000000  0.5575700000000  0.5146400000000 1.0
C      1  0.4497850000000  0.4407840000000  0.4846140000000 1.0
C      1  0.5677190000000  0.4846210000000  0.4714440000000 1.0
C      1  0.5593930000000  0.5160650000000  0.5128280000000 1.0
C      1  0.5621110000000  0.4860110000000  0.5247790000000 1.0
C      1  0.5649280000000  0.5131070000000  0.4768230000000 1.0
C      1  0.4345910000000  0.4846330000000  0.5340750000000 1.0
C      1  0.4358080000000  0.5138270000000  0.4650490000000 1.0
C      1  0.4356350000000  0.4848200000000  0.4649920000000 1.0
C      1  0.4340190000000  0.5136900000000  0.5344880000000 1.0
C      1  0.4775440000000  0.5531720000000  0.5242630000000 1.0
C      1  0.4775990000000  0.4446210000000  0.4751730000000 1.0
C      1  0.4778790000000  0.5534570000000  0.4764760000000 1.0
C      1  0.4779360000000  0.4455960000000  0.5238440000000 1.0
C      1  0.4305750000000  0.5348690000000  0.5144850000000 1.0
C      1  0.4305230000000  0.4637180000000  0.4844300000000 1.0
C      1  0.4307860000000  0.5348120000000  0.4849220000000 1.0
C      1  0.4304940000000  0.4636210000000  0.5142720000000 1.0
C      1  0.5078470000000  0.5132070000000  0.4643420000000 1.0
C      1  0.5058880000000  0.4865630000000  0.5378540000000 1.0
C      1  0.5047850000000  0.5142140000000  0.5387630000000 1.0
C      1  0.5078260000000  0.4850550000000  0.4649460000000 1.0
C      1  0.4646340000000  0.4989330000000  0.5684100000000 1.0
C      1  0.4671020000000  0.4996240000000  0.4319090000000 1.0
C      1  0.4767060000000  0.5038900000000  0.5002750000000 1.0
END
