TITL C-2441161-5029-799 0.0496883884566355 125000 -7609.44676912418 0 0 62 (C1) n - 1
REM
REM in /home/bkarasulu/work/CARBON/AIRSS/Generating-Clusters/ReaxFF-fromJPCA2015/Units_Real/with-SteepDescent/Higher-Symm
REM
REM
REM
REM
REM
REM ./C.cell (1df0a924f5614ab8850e4351716899ee)
REM
REM compiler GCC version 9.2.1 20190827 (Red Hat 9.2.1-1)
REM options -cpp -mtune=generic -march=x86-64 -g -O0 -fpre-include=/usr/include/finclude/math-vector-fortran.h
REM seed -457441310 -2037820455 -619547589 1703126331 522279771 -388110728 1512899966 -884916042 -2094397795 -1019782314 -1231009224 -239487565 -1501598748 -2033415599 1452533676 -2115206657 998277825 54856070 -2102470033 -695074121 -784865558 924977764 1936051160 -558130556 1870075970 -1296453234 1685360072 763368953 1108083287 -199792773 1223246019 -978463125 19179208
REM
CELL 1.54180   50.00000   50.00000   50.00000   90.00000   90.00000   90.00000
LATT -1
SFAC C  
C      1  0.5594430000000  0.5201180000000  0.4845850000000 1.0
C      1  0.5603640000000  0.5226070000000  0.5135400000000 1.0
C      1  0.5618700000000  0.4950470000000  0.5233760000000 1.0
C      1  0.5607870000000  0.4756930000000  0.5013500000000 1.0
C      1  0.5597230000000  0.4918740000000  0.4772250000000 1.0
C      1  0.4974720000000  0.5035420000000  0.5457280000000 1.0
C      1  0.4989410000000  0.4601550000000  0.5164320000000 1.0
C      1  0.4994770000000  0.4737540000000  0.4669230000000 1.0
C      1  0.4994950000000  0.5243490000000  0.4641620000000 1.0
C      1  0.5000140000000  0.5421320000000  0.5121950000000 1.0
C      1  0.4773320000000  0.4696130000000  0.5628240000000 1.0
C      1  0.4769090000000  0.4344330000000  0.4904980000000 1.0
C      1  0.4767360000000  0.4901770000000  0.4332010000000 1.0
C      1  0.4771630000000  0.5609520000000  0.4700040000000 1.0
C      1  0.4760920000000  0.5489770000000  0.5475850000000 1.0
C      1  0.4592990000000  0.4984380000000  0.5281980000000 1.0
C      1  0.4557240000000  0.4707030000000  0.5049080000000 1.0
C      1  0.4595440000000  0.4844530000000  0.4786480000000 1.0
C      1  0.4568480000000  0.5232710000000  0.4796340000000 1.0
C      1  0.4578030000000  0.5297520000000  0.5112150000000 1.0
C      1  0.4913800000000  0.5394700000000  0.4865560000000 1.0
C      1  0.4894050000000  0.5261700000000  0.5328500000000 1.0
C      1  0.4907100000000  0.4779400000000  0.5363240000000 1.0
C      1  0.4907750000000  0.4608430000000  0.4897070000000 1.0
C      1  0.4905370000000  0.4992990000000  0.4587100000000 1.0
C      1  0.4317960000000  0.5251070000000  0.5139910000000 1.0
C      1  0.4301720000000  0.4975580000000  0.5260490000000 1.0
C      1  0.4306260000000  0.4757560000000  0.5047870000000 1.0
C      1  0.4306940000000  0.4894570000000  0.4762530000000 1.0
C      1  0.4308750000000  0.5199590000000  0.4801510000000 1.0
C      1  0.5045090000000  0.5577850000000  0.5507610000000 1.0
C      1  0.5069750000000  0.4700990000000  0.5716770000000 1.0
C      1  0.5057050000000  0.4250020000000  0.4935200000000 1.0
C      1  0.5057870000000  0.4840280000000  0.4256550000000 1.0
C      1  0.5053820000000  0.5665080000000  0.4614610000000 1.0
C      1  0.4560920000000  0.4807870000000  0.4500650000000 1.0
C      1  0.4569450000000  0.5435820000000  0.4656710000000 1.0
C      1  0.4556420000000  0.5479050000000  0.5291240000000 1.0
C      1  0.4563470000000  0.4860370000000  0.5539500000000 1.0
C      1  0.4564320000000  0.4467490000000  0.5039880000000 1.0
C      1  0.5088950000000  0.5679430000000  0.5236280000000 1.0
C      1  0.5097170000000  0.4994530000000  0.5721570000000 1.0
C      1  0.5090710000000  0.4328560000000  0.5213010000000 1.0
C      1  0.5092590000000  0.4601710000000  0.4423110000000 1.0
C      1  0.5085980000000  0.5435270000000  0.4437780000000 1.0
C      1  0.5290500000000  0.4399150000000  0.4826880000000 1.0
C      1  0.5287590000000  0.4989970000000  0.4368720000000 1.0
C      1  0.5287670000000  0.5611110000000  0.4789550000000 1.0
C      1  0.5283990000000  0.5402660000000  0.5510300000000 1.0
C      1  0.5283670000000  0.4647210000000  0.5527230000000 1.0
C      1  0.5335850000000  0.5648040000000  0.5077780000000 1.0
C      1  0.5328310000000  0.5136170000000  0.5614730000000 1.0
C      1  0.5336650000000  0.4450720000000  0.5319090000000 1.0
C      1  0.5337570000000  0.4536490000000  0.4568570000000 1.0
C      1  0.5332590000000  0.5275940000000  0.4424350000000 1.0
C      1  0.5378850000000  0.4917060000000  0.5410850000000 1.0
C      1  0.5435550000000  0.4524360000000  0.5049390000000 1.0
C      1  0.5431740000000  0.4815700000000  0.4556410000000 1.0
C      1  0.5429090000000  0.5376140000000  0.4684040000000 1.0
C      1  0.5430890000000  0.5431550000000  0.5251270000000 1.0
C      1  0.4987200000000  0.5009920000000  0.5002360000000 1.0
C      1  0.5221060000000  0.4984090000000  0.5097900000000 1.0
END
