TITL C-2441167-4473-870 0.00560109527206438 125000 -7978.21446490093 0 0 56 (C1) n - 1
REM
REM in /home/bkarasulu/work/CARBON/AIRSS/Generating-Clusters/ReaxFF-fromJPCA2015/Units_Real/with-SteepDescent/Higher-Symm
REM
REM
REM
REM
REM
REM ./C.cell (1df0a924f5614ab8850e4351716899ee)
REM
REM compiler GCC version 9.2.1 20190827 (Red Hat 9.2.1-1)
REM options -cpp -mtune=generic -march=x86-64 -g -O0 -fpre-include=/usr/include/finclude/math-vector-fortran.h
REM seed -262920795 2047093761 1508496169 1075185959 106381861 533439447 -1306452 1538459345 -51611624 244505289 -1931940306 1442478113 -1609345328 -351473705 -1523757386 1939405094 826385332 949511931 192792101 374054026 1701039139 -1084856389 -1936487268 66811091 714267703 -1013638515 -232772904 1304539833 1713382480 980488021 2025876179 1202847978 -927848843
REM
CELL 1.54180   50.00000   50.00000   50.00000   90.00000   90.00000   90.00000
LATT -1
SFAC C  
C      1  0.5176470000000  0.4787810000000  0.5549100000000 1.0
C      1  0.5540010000000  0.4790240000000  0.5206730000000 1.0
C      1  0.5494490000000  0.4792840000000  0.4708290000000 1.0
C      1  0.5086410000000  0.4789080000000  0.4420190000000 1.0
C      1  0.4622130000000  0.4804080000000  0.4590430000000 1.0
C      1  0.4421730000000  0.4806130000000  0.5065110000000 1.0
C      1  0.4685860000000  0.4796030000000  0.5465210000000 1.0
C      1  0.4644100000000  0.4511340000000  0.4628150000000 1.0
C      1  0.4417450000000  0.4528150000000  0.5033030000000 1.0
C      1  0.4683680000000  0.4505740000000  0.5396280000000 1.0
C      1  0.5141990000000  0.4476350000000  0.5539340000000 1.0
C      1  0.5525090000000  0.4476510000000  0.5225610000000 1.0
C      1  0.5501130000000  0.4479730000000  0.4732250000000 1.0
C      1  0.5096870000000  0.4475790000000  0.4446550000000 1.0
C      1  0.4967890000000  0.5310410000000  0.5322250000000 1.0
C      1  0.5226040000000  0.5300640000000  0.5217680000000 1.0
C      1  0.5312140000000  0.5302940000000  0.4957550000000 1.0
C      1  0.5164840000000  0.5316360000000  0.4722890000000 1.0
C      1  0.4883430000000  0.5287400000000  0.4706210000000 1.0
C      1  0.4734960000000  0.5164460000000  0.4913890000000 1.0
C      1  0.4738450000000  0.5269890000000  0.5174810000000 1.0
C      1  0.5742750000000  0.5572230000000  0.5123830000000 1.0
C      1  0.5565180000000  0.5572070000000  0.4503410000000 1.0
C      1  0.4951430000000  0.5570160000000  0.4243990000000 1.0
C      1  0.4372000000000  0.5579610000000  0.4582930000000 1.0
C      1  0.4289360000000  0.5551870000000  0.5197080000000 1.0
C      1  0.4652400000000  0.5593880000000  0.5680430000000 1.0
C      1  0.5363400000000  0.5567880000000  0.5658500000000 1.0
C      1  0.4924640000000  0.4919570000000  0.5577540000000 1.0
C      1  0.5406730000000  0.4916050000000  0.5425850000000 1.0
C      1  0.5586080000000  0.4917930000000  0.4948870000000 1.0
C      1  0.5324250000000  0.4919070000000  0.4508850000000 1.0
C      1  0.4822960000000  0.4918520000000  0.4430940000000 1.0
C      1  0.4495200000000  0.4966850000000  0.4825500000000 1.0
C      1  0.4486470000000  0.4931840000000  0.5313400000000 1.0
C      1  0.4885580000000  0.4374200000000  0.4601040000000 1.0
C      1  0.4576710000000  0.4358420000000  0.4873280000000 1.0
C      1  0.4586150000000  0.4355580000000  0.5167940000000 1.0
C      1  0.4918580000000  0.4370000000000  0.5404110000000 1.0
C      1  0.5307540000000  0.4343860000000  0.5352250000000 1.0
C      1  0.5454590000000  0.4354200000000  0.4982160000000 1.0
C      1  0.5276350000000  0.4345160000000  0.4625710000000 1.0
C      1  0.4780770000000  0.5231150000000  0.4420950000000 1.0
C      1  0.4328240000000  0.5228890000000  0.4781590000000 1.0
C      1  0.4497810000000  0.5226250000000  0.5329550000000 1.0
C      1  0.4952000000000  0.5221730000000  0.5605990000000 1.0
C      1  0.5444080000000  0.5228100000000  0.5427620000000 1.0
C      1  0.5618490000000  0.5226820000000  0.4922420000000 1.0
C      1  0.5324000000000  0.5231260000000  0.4467380000000 1.0
C      1  0.5042000000000  0.5349740000000  0.4314690000000 1.0
C      1  0.4480390000000  0.5351830000000  0.4562090000000 1.0
C      1  0.4312840000000  0.5337630000000  0.5064580000000 1.0
C      1  0.4667840000000  0.5360460000000  0.5593230000000 1.0
C      1  0.5259460000000  0.5340530000000  0.5650880000000 1.0
C      1  0.5666370000000  0.5347980000000  0.5201200000000 1.0
C      1  0.5572190000000  0.5346790000000  0.4608670000000 1.0
END
