TITL C-2441160-1326-191 2.69099820362902e-06 125000 -6936.47553321927 0 0 48 (Th) n - 1
REM
REM in /home/bkarasulu/work/CARBON/AIRSS/Generating-Clusters/ReaxFF-fromJPCA2015/Units_Real/with-SteepDescent/Higher-Symm
REM
REM
REM
REM
REM
REM ./C.cell (1df0a924f5614ab8850e4351716899ee)
REM
REM compiler GCC version 9.2.1 20190827 (Red Hat 9.2.1-1)
REM options -cpp -mtune=generic -march=x86-64 -g -O0 -fpre-include=/usr/include/finclude/math-vector-fortran.h
REM seed -170344420 910527789 -1014985711 -1172799442 479432150 1171793101 -1894338223 942633988 2095567540 -299179094 1642350410 -1164679755 1560099312 2053863885 412683360 758913559 -81194345 -445455067 -1653645670 58436081 -600696837 197714297 1987528667 799820103 -1983488354 -1748830218 -437455467 203416357 1276062601 -842911556 -402314860 44088330 -647106526
REM
CELL 1.54180   50.00000   50.00000   50.00000   90.00000   90.00000   90.00000
LATT -1
SFAC C  
C      1  0.5651540000000  0.5242160000000  0.5139050000000 1.0
C      1  0.5139040000000  0.5651540000000  0.5242200000000 1.0
C      1  0.5242150000000  0.5139040000000  0.5651550000000 1.0
C      1  0.4348470000000  0.5242150000000  0.4860970000000 1.0
C      1  0.5651540000000  0.4757870000000  0.4860950000000 1.0
C      1  0.4348470000000  0.4757820000000  0.5139030000000 1.0
C      1  0.4860960000000  0.5651530000000  0.4757880000000 1.0
C      1  0.5139050000000  0.4348460000000  0.4757800000000 1.0
C      1  0.4860960000000  0.4348460000000  0.5242120000000 1.0
C      1  0.4757850000000  0.5139050000000  0.4348470000000 1.0
C      1  0.5242170000000  0.4860970000000  0.4348450000000 1.0
C      1  0.4757840000000  0.4860950000000  0.5651530000000 1.0
C      1  0.5651530000000  0.4757850000000  0.5139030000000 1.0
C      1  0.5139040000000  0.4348470000000  0.5242110000000 1.0
C      1  0.5242150000000  0.4860960000000  0.5651530000000 1.0
C      1  0.4348460000000  0.4757840000000  0.4860950000000 1.0
C      1  0.5651530000000  0.5242180000000  0.4860970000000 1.0
C      1  0.4348460000000  0.5242140000000  0.5139050000000 1.0
C      1  0.4860960000000  0.4348450000000  0.4757800000000 1.0
C      1  0.5139040000000  0.5651540000000  0.4757890000000 1.0
C      1  0.4860950000000  0.5651540000000  0.5242200000000 1.0
C      1  0.4757850000000  0.4860960000000  0.4348450000000 1.0
C      1  0.5242160000000  0.5139050000000  0.4348470000000 1.0
C      1  0.4757830000000  0.5139030000000  0.5651550000000 1.0
C      1  0.5000010000000  0.4466460000000  0.4547960000000 1.0
C      1  0.4548010000000  0.5000000000000  0.4466470000000 1.0
C      1  0.4466470000000  0.4547990000000  0.4999970000000 1.0
C      1  0.5000000000000  0.4466480000000  0.5451950000000 1.0
C      1  0.4999990000000  0.5533540000000  0.5452040000000 1.0
C      1  0.5000000000000  0.5533520000000  0.4548050000000 1.0
C      1  0.5451990000000  0.5000000000000  0.5533530000000 1.0
C      1  0.4548000000000  0.4999980000000  0.5533530000000 1.0
C      1  0.5452000000000  0.5000020000000  0.4466470000000 1.0
C      1  0.5533530000000  0.4548020000000  0.4999970000000 1.0
C      1  0.4466470000000  0.5451980000000  0.5000030000000 1.0
C      1  0.5533530000000  0.5452010000000  0.5000030000000 1.0
C      1  0.5273430000000  0.4429720000000  0.4999960000000 1.0
C      1  0.4726570000000  0.5570280000000  0.5000040000000 1.0
C      1  0.5000000000000  0.4726570000000  0.5570270000000 1.0
C      1  0.5000000000000  0.5273430000000  0.4429730000000 1.0
C      1  0.4999990000000  0.5273430000000  0.5570320000000 1.0
C      1  0.5570290000000  0.5000000000000  0.5273430000000 1.0
C      1  0.5570290000000  0.5000020000000  0.4726570000000 1.0
C      1  0.4429710000000  0.5000000000000  0.4726570000000 1.0
C      1  0.5000010000000  0.4726570000000  0.4429680000000 1.0
C      1  0.4429710000000  0.4999980000000  0.5273430000000 1.0
C      1  0.4726580000000  0.4429700000000  0.4999960000000 1.0
C      1  0.5273420000000  0.5570300000000  0.5000050000000 1.0
END
