TITL C-2441158-471-1141 0.0136627109999762 125000 -13785.4760088764 0 0 95 (C1) n - 1
REM
REM in /home/bkarasulu/work/CARBON/AIRSS/Generating-Clusters/ReaxFF-fromJPCA2015/Units_Real/with-SteepDescent/Higher-Symm
REM
REM
REM
REM
REM
REM ./C.cell (1df0a924f5614ab8850e4351716899ee)
REM
REM compiler GCC version 9.2.1 20190827 (Red Hat 9.2.1-1)
REM options -cpp -mtune=generic -march=x86-64 -g -O0 -fpre-include=/usr/include/finclude/math-vector-fortran.h
REM seed -624118072 2072146028 629285247 504166133 -574126803 331653349 1167216615 38728622 -914921646 -620772193 610788543 1120797085 -1628327595 287965138 1351949159 -88919176 -1664397310 -195085277 1385498977 -1690938178 -288986563 -1489432088 -2031558657 737949262 -956322955 -591282303 -977673717 1575433345 1752213415 -822012044 1812470955 91058741 -1310867648
REM
CELL 1.54180   50.00000   50.00000   50.00000   90.00000   90.00000   90.00000
LATT -1
SFAC C  
C      1  0.5401890000000  0.5265150000000  0.4242470000000 1.0
C      1  0.5833820000000  0.5282130000000  0.5148810000000 1.0
C      1  0.5126190000000  0.5256430000000  0.5834820000000 1.0
C      1  0.4233110000000  0.5271390000000  0.5384800000000 1.0
C      1  0.4417120000000  0.5268370000000  0.4379810000000 1.0
C      1  0.5403600000000  0.5285080000000  0.5752910000000 1.0
C      1  0.5831210000000  0.5250030000000  0.4862230000000 1.0
C      1  0.5125500000000  0.5273620000000  0.4153980000000 1.0
C      1  0.4242420000000  0.5269900000000  0.4609470000000 1.0
C      1  0.4398330000000  0.5282030000000  0.5622380000000 1.0
C      1  0.5271160000000  0.5557090000000  0.4600410000000 1.0
C      1  0.5511920000000  0.5553800000000  0.5098420000000 1.0
C      1  0.4992580000000  0.5626130000000  0.5552850000000 1.0
C      1  0.4496520000000  0.5621200000000  0.5144350000000 1.0
C      1  0.4731390000000  0.5561730000000  0.4609360000000 1.0
C      1  0.5253350000000  0.5552610000000  0.5447720000000 1.0
C      1  0.5523010000000  0.5616080000000  0.4818060000000 1.0
C      1  0.4994100000000  0.5617020000000  0.4483600000000 1.0
C      1  0.4499630000000  0.5620840000000  0.4857750000000 1.0
C      1  0.4725350000000  0.5569270000000  0.5396060000000 1.0
C      1  0.4858100000000  0.4809520000000  0.4087640000000 1.0
C      1  0.5803170000000  0.4785430000000  0.4576530000000 1.0
C      1  0.5681620000000  0.4798420000000  0.5674590000000 1.0
C      1  0.4580670000000  0.4808620000000  0.5832310000000 1.0
C      1  0.4101860000000  0.4807230000000  0.4857320000000 1.0
C      1  0.4851470000000  0.4782470000000  0.5899200000000 1.0
C      1  0.5844560000000  0.4805460000000  0.5445490000000 1.0
C      1  0.5651300000000  0.4808910000000  0.4343370000000 1.0
C      1  0.4593560000000  0.4811980000000  0.4175210000000 1.0
C      1  0.4110380000000  0.4794270000000  0.5143060000000 1.0
C      1  0.4766370000000  0.5294090000000  0.5300910000000 1.0
C      1  0.4585200000000  0.5155190000000  0.4857310000000 1.0
C      1  0.4985380000000  0.5149980000000  0.4611850000000 1.0
C      1  0.5368040000000  0.5143750000000  0.4866830000000 1.0
C      1  0.5232970000000  0.5290310000000  0.5326020000000 1.0
C      1  0.4766910000000  0.5295630000000  0.4703630000000 1.0
C      1  0.4581710000000  0.5155040000000  0.5143680000000 1.0
C      1  0.4993960000000  0.5144630000000  0.5357580000000 1.0
C      1  0.5410470000000  0.5279480000000  0.5115550000000 1.0
C      1  0.5221420000000  0.5284120000000  0.4677230000000 1.0
C      1  0.5226630000000  0.4752350000000  0.4678370000000 1.0
C      1  0.5387040000000  0.4745390000000  0.5108960000000 1.0
C      1  0.4992090000000  0.4874930000000  0.5351590000000 1.0
C      1  0.4582090000000  0.4870550000000  0.5143490000000 1.0
C      1  0.4771950000000  0.4733150000000  0.4702160000000 1.0
C      1  0.5227670000000  0.4747560000000  0.5329750000000 1.0
C      1  0.5358550000000  0.4872060000000  0.4867620000000 1.0
C      1  0.4995800000000  0.4870760000000  0.4617240000000 1.0
C      1  0.4583330000000  0.4870670000000  0.4855740000000 1.0
C      1  0.4773750000000  0.4737340000000  0.5296270000000 1.0
C      1  0.5542160000000  0.4496910000000  0.5095170000000 1.0
C      1  0.4983500000000  0.4415200000000  0.5549270000000 1.0
C      1  0.4501350000000  0.4418230000000  0.5137000000000 1.0
C      1  0.4728790000000  0.4466000000000  0.4593890000000 1.0
C      1  0.5283470000000  0.4497680000000  0.4587550000000 1.0
C      1  0.5528080000000  0.4416150000000  0.4822780000000 1.0
C      1  0.5009780000000  0.4427310000000  0.4472260000000 1.0
C      1  0.4511750000000  0.4414490000000  0.4853550000000 1.0
C      1  0.4713130000000  0.4485370000000  0.5399510000000 1.0
C      1  0.5251380000000  0.4503600000000  0.5488140000000 1.0
C      1  0.5073990000000  0.4990750000000  0.4086650000000 1.0
C      1  0.5880010000000  0.4955220000000  0.4809890000000 1.0
C      1  0.5503420000000  0.5002280000000  0.5786350000000 1.0
C      1  0.4407410000000  0.4997000000000  0.5716030000000 1.0
C      1  0.4161840000000  0.4978890000000  0.4633510000000 1.0
C      1  0.5087850000000  0.4959270000000  0.5898390000000 1.0
C      1  0.5905350000000  0.5005180000000  0.5238200000000 1.0
C      1  0.5462690000000  0.4973330000000  0.4224030000000 1.0
C      1  0.4412420000000  0.4978720000000  0.4303350000000 1.0
C      1  0.4157900000000  0.4975400000000  0.5367090000000 1.0
C      1  0.5696100000000  0.5483720000000  0.5319580000000 1.0
C      1  0.4910880000000  0.5444140000000  0.5762160000000 1.0
C      1  0.4262080000000  0.5458210000000  0.5160970000000 1.0
C      1  0.4638490000000  0.5455050000000  0.4343090000000 1.0
C      1  0.5510990000000  0.5449970000000  0.4438050000000 1.0
C      1  0.5695590000000  0.5440410000000  0.4673910000000 1.0
C      1  0.4921090000000  0.5457750000000  0.4259130000000 1.0
C      1  0.4267080000000  0.5457570000000  0.4835100000000 1.0
C      1  0.4629030000000  0.5452760000000  0.5659810000000 1.0
C      1  0.5514260000000  0.5476540000000  0.5558600000000 1.0
C      1  0.4578120000000  0.4565000000000  0.5673020000000 1.0
C      1  0.4248180000000  0.4547980000000  0.4825190000000 1.0
C      1  0.4914970000000  0.4557810000000  0.4235670000000 1.0
C      1  0.5696010000000  0.4507620000000  0.4608710000000 1.0
C      1  0.5532830000000  0.4563360000000  0.5576460000000 1.0
C      1  0.4612060000000  0.4574790000000  0.4330370000000 1.0
C      1  0.4223880000000  0.4519540000000  0.5131380000000 1.0
C      1  0.4849690000000  0.4509240000000  0.5785480000000 1.0
C      1  0.5714590000000  0.4566540000000  0.5338270000000 1.0
C      1  0.5513160000000  0.4561330000000  0.4378620000000 1.0
C      1  0.5312290000000  0.4813570000000  0.5822790000000 1.0
C      1  0.5882670000000  0.4810890000000  0.5048350000000 1.0
C      1  0.5248300000000  0.4798860000000  0.4185990000000 1.0
C      1  0.4299510000000  0.4815850000000  0.5546260000000 1.0
C      1  0.4321690000000  0.4794300000000  0.4493640000000 1.0
END
