TITL C-2441155-8282-208 3.29747375359988e-13 125000 -470.4403739277 0 0 4 (D(inf)h) n - 1
REM
REM in /home/bkarasulu/work/CARBON/AIRSS/Generating-Clusters/ReaxFF-fromJPCA2015/Units_Real/with-SteepDescent/Higher-Symm
REM
REM
REM
REM
REM
REM ./C.cell (1df0a924f5614ab8850e4351716899ee)
REM
REM compiler GCC version 9.2.1 20190827 (Red Hat 9.2.1-1)
REM options -cpp -mtune=generic -march=x86-64 -g -O0 -fpre-include=/usr/include/finclude/math-vector-fortran.h
REM seed -9465327 -836065634 2116030873 -2146297171 1881632895 1491364037 847556457 14888467 512787036 772766882 -438461922 1130929261 -1432500365 -1392285924 -387684189 -134193535 1080284250 1992553099 786570726 490323278 -86975017 -1859522217 868980201 -238980279 500172661 425091148 -1010257245 274127394 -61646479 780699167 -502041201 -644144191 -723270561
REM
CELL 1.54180   50.00000   50.00000   50.00000   90.00000   90.00000   90.00000
LATT -1
SFAC C  
C      1  0.5000370000000  0.4869840000000  0.5000940000000 1.0
C      1  0.5000370000000  0.5130160000000  0.5000940000000 1.0
C      1  0.5000370000000  0.5373890000000  0.5000940000000 1.0
C      1  0.5000370000000  0.4626110000000  0.5000940000000 1.0
END
