TITL C-2441166-8118-300 0.00354157179646818 125000 -15324.0488345317 0 0 102 (C1) n - 1
REM
REM in /home/bkarasulu/work/CARBON/AIRSS/Generating-Clusters/ReaxFF-fromJPCA2015/Units_Real/with-SteepDescent/Higher-Symm
REM
REM
REM
REM
REM
REM ./C.cell (1df0a924f5614ab8850e4351716899ee)
REM
REM compiler GCC version 9.2.1 20190827 (Red Hat 9.2.1-1)
REM options -cpp -mtune=generic -march=x86-64 -g -O0 -fpre-include=/usr/include/finclude/math-vector-fortran.h
REM seed 733335496 -655477119 -469296873 709645793 -899669073 1212342397 672797233 582863836 -1581478762 964909295 -1335970749 914610171 -96721025 -894872721 -746472719 -1149158004 -321488465 1472926673 -645592791 -187841130 1257638011 -399961398 -1480173484 -1403740987 -1670230913 682292430 1962058028 -1814933989 862177688 -445765551 1611759295 840420965 -824747787
REM
CELL 1.54180   50.00000   50.00000   50.00000   90.00000   90.00000   90.00000
LATT -1
SFAC C  
C      1  0.4265850000000  0.5582150000000  0.5150030000000 1.0
C      1  0.5150750000000  0.4239060000000  0.5582170000000 1.0
C      1  0.5559760000000  0.5134570000000  0.4266130000000 1.0
C      1  0.5738410000000  0.4429600000000  0.5157930000000 1.0
C      1  0.5757430000000  0.5592580000000  0.4841080000000 1.0
C      1  0.4252770000000  0.4432930000000  0.4838380000000 1.0
C      1  0.4857930000000  0.5725080000000  0.5546800000000 1.0
C      1  0.4839050000000  0.4248650000000  0.4413420000000 1.0
C      1  0.5146520000000  0.5733550000000  0.4433040000000 1.0
C      1  0.4421200000000  0.4865590000000  0.4235560000000 1.0
C      1  0.4441250000000  0.5136350000000  0.5739940000000 1.0
C      1  0.5566290000000  0.4860250000000  0.5754280000000 1.0
C      1  0.4250770000000  0.5564410000000  0.4851730000000 1.0
C      1  0.5139790000000  0.4238290000000  0.4414590000000 1.0
C      1  0.5572960000000  0.5159150000000  0.5751620000000 1.0
C      1  0.5733180000000  0.4447610000000  0.4857970000000 1.0
C      1  0.5754160000000  0.5570720000000  0.5139590000000 1.0
C      1  0.4255280000000  0.4442410000000  0.5139160000000 1.0
C      1  0.4847570000000  0.5760890000000  0.4413890000000 1.0
C      1  0.4848700000000  0.4236240000000  0.5580370000000 1.0
C      1  0.5156270000000  0.5748310000000  0.5566980000000 1.0
C      1  0.4415240000000  0.4835930000000  0.5745050000000 1.0
C      1  0.4418230000000  0.5162840000000  0.4250910000000 1.0
C      1  0.5583310000000  0.4836120000000  0.4273530000000 1.0
C      1  0.4823550000000  0.5051790000000  0.5505770000000 1.0
C      1  0.5393720000000  0.4730480000000  0.5197450000000 1.0
C      1  0.5222200000000  0.5480880000000  0.4821570000000 1.0
C      1  0.5247680000000  0.4818950000000  0.5437800000000 1.0
C      1  0.5163680000000  0.5044140000000  0.4482250000000 1.0
C      1  0.4750440000000  0.4829910000000  0.4523420000000 1.0
C      1  0.4585380000000  0.5297040000000  0.5167800000000 1.0
C      1  0.4602430000000  0.4748500000000  0.4753690000000 1.0
C      1  0.5423680000000  0.5288770000000  0.4754900000000 1.0
C      1  0.4857600000000  0.4501420000000  0.4796990000000 1.0
C      1  0.4850040000000  0.5428760000000  0.5183890000000 1.0
C      1  0.5184840000000  0.4473910000000  0.5186060000000 1.0
C      1  0.4784140000000  0.5272950000000  0.4502240000000 1.0
C      1  0.5466850000000  0.4831960000000  0.4878250000000 1.0
C      1  0.5244760000000  0.5395230000000  0.5274380000000 1.0
C      1  0.5264220000000  0.4785810000000  0.4604060000000 1.0
C      1  0.5196340000000  0.5263460000000  0.5513810000000 1.0
C      1  0.4715510000000  0.4797500000000  0.5401060000000 1.0
C      1  0.4512390000000  0.5186880000000  0.4902260000000 1.0
C      1  0.4509590000000  0.4836620000000  0.5201960000000 1.0
C      1  0.5459860000000  0.5218280000000  0.5181610000000 1.0
C      1  0.4866080000000  0.4526390000000  0.5266820000000 1.0
C      1  0.4757820000000  0.5425520000000  0.4723750000000 1.0
C      1  0.5126960000000  0.4541360000000  0.4696670000000 1.0
C      1  0.5761640000000  0.5153700000000  0.5523750000000 1.0
C      1  0.5531230000000  0.5765810000000  0.5152490000000 1.0
C      1  0.5147190000000  0.5547460000000  0.5785410000000 1.0
C      1  0.4211840000000  0.4855060000000  0.5526820000000 1.0
C      1  0.4238820000000  0.5152650000000  0.4488170000000 1.0
C      1  0.5776430000000  0.4860440000000  0.4502710000000 1.0
C      1  0.4475540000000  0.4246060000000  0.5147460000000 1.0
C      1  0.4468780000000  0.5771130000000  0.4833220000000 1.0
C      1  0.5512650000000  0.4249090000000  0.4848900000000 1.0
C      1  0.4842250000000  0.4473770000000  0.5759100000000 1.0
C      1  0.4850520000000  0.5543560000000  0.4209610000000 1.0
C      1  0.5155340000000  0.4474710000000  0.4237360000000 1.0
C      1  0.5773650000000  0.5159170000000  0.4470250000000 1.0
C      1  0.5529560000000  0.5783480000000  0.4851570000000 1.0
C      1  0.5141340000000  0.5496060000000  0.4258700000000 1.0
C      1  0.4232280000000  0.4848370000000  0.4464850000000 1.0
C      1  0.4242090000000  0.5152470000000  0.5524520000000 1.0
C      1  0.5753200000000  0.4852070000000  0.5524020000000 1.0
C      1  0.4474460000000  0.4230290000000  0.4843960000000 1.0
C      1  0.4498480000000  0.5765430000000  0.5133210000000 1.0
C      1  0.5526390000000  0.4219430000000  0.5149040000000 1.0
C      1  0.4852500000000  0.4481880000000  0.4228950000000 1.0
C      1  0.4856940000000  0.5500340000000  0.5740510000000 1.0
C      1  0.5145190000000  0.4475980000000  0.5760250000000 1.0
C      1  0.4683460000000  0.4723880000000  0.4263440000000 1.0
C      1  0.4314930000000  0.4667290000000  0.4677750000000 1.0
C      1  0.4711710000000  0.4261120000000  0.4677630000000 1.0
C      1  0.5285650000000  0.5236060000000  0.4314480000000 1.0
C      1  0.5314070000000  0.4711710000000  0.5698900000000 1.0
C      1  0.4712410000000  0.5242890000000  0.5685410000000 1.0
C      1  0.5695690000000  0.5358620000000  0.4672140000000 1.0
C      1  0.5669130000000  0.4674810000000  0.5302480000000 1.0
C      1  0.4336470000000  0.5340410000000  0.5308470000000 1.0
C      1  0.5279260000000  0.5739390000000  0.4700530000000 1.0
C      1  0.5289580000000  0.4231910000000  0.5322270000000 1.0
C      1  0.4746930000000  0.5694360000000  0.5275180000000 1.0
C      1  0.4650040000000  0.4678350000000  0.5674100000000 1.0
C      1  0.4262100000000  0.4707720000000  0.5273860000000 1.0
C      1  0.4711100000000  0.4279980000000  0.5323750000000 1.0
C      1  0.5320570000000  0.5311480000000  0.5752240000000 1.0
C      1  0.5351510000000  0.4671140000000  0.4336400000000 1.0
C      1  0.4666330000000  0.5319780000000  0.4257910000000 1.0
C      1  0.5720350000000  0.5305140000000  0.5271300000000 1.0
C      1  0.5715960000000  0.4722530000000  0.4754360000000 1.0
C      1  0.4275920000000  0.5294180000000  0.4741550000000 1.0
C      1  0.5305770000000  0.5680170000000  0.5322500000000 1.0
C      1  0.5271520000000  0.4288690000000  0.4677630000000 1.0
C      1  0.4689660000000  0.5710380000000  0.4654500000000 1.0
C      1  0.4573840000000  0.4925010000000  0.4955740000000 1.0
C      1  0.4958140000000  0.4424330000000  0.5033510000000 1.0
C      1  0.5430430000000  0.5097300000000  0.4938960000000 1.0
C      1  0.4962660000000  0.5399420000000  0.4916700000000 1.0
C      1  0.4903220000000  0.5053160000000  0.4538660000000 1.0
C      1  0.5087830000000  0.5041260000000  0.5466180000000 1.0
END
