TITL C-2441165-58-266 0.0748690810973019 125000 -8057.10891455556 0 0 80 (C1) n - 1
REM
REM in /home/bkarasulu/work/CARBON/AIRSS/Generating-Clusters/ReaxFF-fromJPCA2015/Units_Real/with-SteepDescent/Higher-Symm
REM
REM
REM
REM
REM
REM ./C.cell (1df0a924f5614ab8850e4351716899ee)
REM
REM compiler GCC version 9.2.1 20190827 (Red Hat 9.2.1-1)
REM options -cpp -mtune=generic -march=x86-64 -g -O0 -fpre-include=/usr/include/finclude/math-vector-fortran.h
REM seed -1148648236 -1858247915 -332476461 1045977326 333991511 1728966737 1578944958 416566404 593190633 1361235448 648777957 1568828290 -786912110 903896942 -1662868211 -587533188 -1341463704 -1876867431 -114097562 -1409359273 234779033 814793110 1580975917 1552559456 -1290485833 -557016268 -1122836224 -184851201 1017017178 -519945136 -446223559 371051263 1392920234
REM
CELL 1.54180   50.00000   50.00000   50.00000   90.00000   90.00000   90.00000
LATT -1
SFAC C  
C      1  0.5115030000000  0.4361740000000  0.4678470000000 1.0
C      1  0.4499810000000  0.4576680000000  0.4687100000000 1.0
C      1  0.4387990000000  0.5220180000000  0.4679160000000 1.0
C      1  0.4938370000000  0.5680950000000  0.4705160000000 1.0
C      1  0.5524620000000  0.5414670000000  0.4705790000000 1.0
C      1  0.5626990000000  0.4738310000000  0.4702640000000 1.0
C      1  0.5100870000000  0.5635390000000  0.5295700000000 1.0
C      1  0.4456620000000  0.5399080000000  0.5275760000000 1.0
C      1  0.4350390000000  0.4745610000000  0.5289020000000 1.0
C      1  0.4910560000000  0.4316640000000  0.5271680000000 1.0
C      1  0.5494990000000  0.4583360000000  0.5290570000000 1.0
C      1  0.5603310000000  0.5215540000000  0.5298700000000 1.0
C      1  0.4282440000000  0.4867130000000  0.5031380000000 1.0
C      1  0.4532040000000  0.5551210000000  0.5036330000000 1.0
C      1  0.5222470000000  0.5687320000000  0.5052370000000 1.0
C      1  0.5715540000000  0.5134700000000  0.5052230000000 1.0
C      1  0.5488130000000  0.4452270000000  0.5037420000000 1.0
C      1  0.4749330000000  0.4307650000000  0.5044970000000 1.0
C      1  0.4289480000000  0.5137080000000  0.4931640000000 1.0
C      1  0.4512100000000  0.4452730000000  0.4936140000000 1.0
C      1  0.5236250000000  0.4306190000000  0.4928250000000 1.0
C      1  0.5704570000000  0.4860180000000  0.4945020000000 1.0
C      1  0.5456750000000  0.5544680000000  0.4953420000000 1.0
C      1  0.4762690000000  0.5677590000000  0.4930650000000 1.0
C      1  0.4506320000000  0.5060310000000  0.5620420000000 1.0
C      1  0.4849540000000  0.5423960000000  0.5644480000000 1.0
C      1  0.5245130000000  0.5375080000000  0.5653390000000 1.0
C      1  0.5482290000000  0.4935190000000  0.5630290000000 1.0
C      1  0.5143820000000  0.4568710000000  0.5649700000000 1.0
C      1  0.4745840000000  0.4616960000000  0.5650510000000 1.0
C      1  0.4564790000000  0.4915780000000  0.4328510000000 1.0
C      1  0.4800520000000  0.4594600000000  0.4325870000000 1.0
C      1  0.5283490000000  0.4658220000000  0.4337080000000 1.0
C      1  0.5435570000000  0.5024010000000  0.4343450000000 1.0
C      1  0.5140900000000  0.5414650000000  0.4339510000000 1.0
C      1  0.4745400000000  0.5364560000000  0.4345930000000 1.0
C      1  0.4665550000000  0.5128780000000  0.4429060000000 1.0
C      1  0.4945880000000  0.5354200000000  0.4477350000000 1.0
C      1  0.5285990000000  0.5216610000000  0.4410550000000 1.0
C      1  0.5310800000000  0.4861540000000  0.4477710000000 1.0
C      1  0.5037270000000  0.4636320000000  0.4411480000000 1.0
C      1  0.4716790000000  0.4778070000000  0.4458670000000 1.0
C      1  0.4695830000000  0.4873390000000  0.5554450000000 1.0
C      1  0.4946190000000  0.4605330000000  0.5528170000000 1.0
C      1  0.5252960000000  0.4806530000000  0.5539230000000 1.0
C      1  0.5346630000000  0.5148960000000  0.5582270000000 1.0
C      1  0.5047610000000  0.5339120000000  0.5519560000000 1.0
C      1  0.4692940000000  0.5237670000000  0.5574120000000 1.0
C      1  0.4611970000000  0.5447590000000  0.4631330000000 1.0
C      1  0.5232700000000  0.5557540000000  0.4609040000000 1.0
C      1  0.5582900000000  0.5076540000000  0.4620990000000 1.0
C      1  0.5350840000000  0.4505750000000  0.4589860000000 1.0
C      1  0.4772640000000  0.4440550000000  0.4608870000000 1.0
C      1  0.4398880000000  0.4911160000000  0.4603110000000 1.0
C      1  0.4617340000000  0.4547760000000  0.5355120000000 1.0
C      1  0.5250820000000  0.4448730000000  0.5375550000000 1.0
C      1  0.5571780000000  0.4926700000000  0.5361090000000 1.0
C      1  0.5365720000000  0.5473900000000  0.5374350000000 1.0
C      1  0.4784440000000  0.5554040000000  0.5361470000000 1.0
C      1  0.4421490000000  0.5063580000000  0.5352590000000 1.0
C      1  0.4818210000000  0.5256280000000  0.4823620000000 1.0
C      1  0.5139220000000  0.5279580000000  0.4833270000000 1.0
C      1  0.5313770000000  0.5021530000000  0.4834270000000 1.0
C      1  0.5159870000000  0.4748880000000  0.4850800000000 1.0
C      1  0.4854380000000  0.4724150000000  0.4844580000000 1.0
C      1  0.4692830000000  0.4979870000000  0.4831620000000 1.0
C      1  0.4823220000000  0.4731570000000  0.5155970000000 1.0
C      1  0.5131760000000  0.4725600000000  0.5155490000000 1.0
C      1  0.5301990000000  0.4977030000000  0.5157710000000 1.0
C      1  0.5166360000000  0.5251100000000  0.5145800000000 1.0
C      1  0.4855890000000  0.5283310000000  0.5148870000000 1.0
C      1  0.4684590000000  0.5021780000000  0.5150460000000 1.0
C      1  0.4991440000000  0.5821590000000  0.4953550000000 1.0
C      1  0.4997680000000  0.4185030000000  0.5026930000000 1.0
C      1  0.4288110000000  0.5406150000000  0.5034980000000 1.0
C      1  0.5697950000000  0.5404740000000  0.4945580000000 1.0
C      1  0.4284250000000  0.4603420000000  0.5028310000000 1.0
C      1  0.5709230000000  0.4592570000000  0.4948290000000 1.0
C      1  0.4994890000000  0.4996540000000  0.4524330000000 1.0
C      1  0.4998130000000  0.4991840000000  0.5475870000000 1.0
END
