TITL C-2441168-9922-520 0.000121342821367046 125000 -7116.82238053093 0 0 49 (C1) n - 1
REM
REM in /home/bkarasulu/work/CARBON/AIRSS/Generating-Clusters/ReaxFF-fromJPCA2015/Units_Real/with-SteepDescent/Higher-Symm
REM
REM
REM
REM
REM
REM ./C.cell (1df0a924f5614ab8850e4351716899ee)
REM
REM compiler GCC version 9.2.1 20190827 (Red Hat 9.2.1-1)
REM options -cpp -mtune=generic -march=x86-64 -g -O0 -fpre-include=/usr/include/finclude/math-vector-fortran.h
REM seed 1158352527 442042793 -382513325 -1582893418 -374155653 -1616428151 241710149 351617470 -1771918516 -1974389553 413752844 755416391 1750193969 1277116030 -1354761941 -5477747 -902858551 714555756 2056345506 -1241573211 -199149774 1532678235 -1302604301 467534995 -2112595611 -1494446750 408763729 1110222989 -701583724 -1740153427 -220654195 -1139960863 1976725179
REM
CELL 1.54180   50.00000   50.00000   50.00000   90.00000   90.00000   90.00000
LATT -1
SFAC C  
C      1  0.5419390000000  0.4881210000000  0.4544620000000 1.0
C      1  0.5555550000000  0.5345620000000  0.4562250000000 1.0
C      1  0.5073810000000  0.5430630000000  0.4521830000000 1.0
C      1  0.4590560000000  0.5317400000000  0.4545290000000 1.0
C      1  0.4371010000000  0.4915300000000  0.4559460000000 1.0
C      1  0.4780710000000  0.4661750000000  0.4545830000000 1.0
C      1  0.5212820000000  0.4444160000000  0.4547650000000 1.0
C      1  0.5327930000000  0.5047630000000  0.5481940000000 1.0
C      1  0.5167540000000  0.5286720000000  0.5480890000000 1.0
C      1  0.4880450000000  0.5309040000000  0.5479370000000 1.0
C      1  0.4681510000000  0.5100790000000  0.5486630000000 1.0
C      1  0.4724040000000  0.4816360000000  0.5483040000000 1.0
C      1  0.4971940000000  0.4671700000000  0.5478900000000 1.0
C      1  0.5240590000000  0.4774230000000  0.5479920000000 1.0
C      1  0.5413940000000  0.4609250000000  0.4968680000000 1.0
C      1  0.5576050000000  0.5086420000000  0.4977320000000 1.0
C      1  0.5304700000000  0.5496020000000  0.4972390000000 1.0
C      1  0.4805040000000  0.5503510000000  0.4962380000000 1.0
C      1  0.4418030000000  0.5176070000000  0.4990930000000 1.0
C      1  0.4515640000000  0.4693700000000  0.4972790000000 1.0
C      1  0.4950850000000  0.4440590000000  0.4967000000000 1.0
C      1  0.4581170000000  0.4812180000000  0.4415620000000 1.0
C      1  0.5016920000000  0.4584020000000  0.4409130000000 1.0
C      1  0.5282340000000  0.4674160000000  0.4408900000000 1.0
C      1  0.5479710000000  0.5124900000000  0.4412680000000 1.0
C      1  0.5331940000000  0.5361810000000  0.4394280000000 1.0
C      1  0.4834700000000  0.5329160000000  0.4450260000000 1.0
C      1  0.4517450000000  0.5087000000000  0.4386850000000 1.0
C      1  0.5059600000000  0.5502810000000  0.4829480000000 1.0
C      1  0.4577960000000  0.5365570000000  0.4849010000000 1.0
C      1  0.4377760000000  0.4919720000000  0.4854860000000 1.0
C      1  0.4740450000000  0.4583220000000  0.4829350000000 1.0
C      1  0.5214380000000  0.4439150000000  0.4844070000000 1.0
C      1  0.5486830000000  0.4852540000000  0.4831200000000 1.0
C      1  0.5527190000000  0.5345490000000  0.4856460000000 1.0
C      1  0.5719880000000  0.5197840000000  0.5468080000000 1.0
C      1  0.5294780000000  0.5689310000000  0.5462990000000 1.0
C      1  0.4646250000000  0.5661870000000  0.5438080000000 1.0
C      1  0.4262380000000  0.5130950000000  0.5489250000000 1.0
C      1  0.4439850000000  0.4505330000000  0.5458200000000 1.0
C      1  0.5032040000000  0.4256150000000  0.5450190000000 1.0
C      1  0.5606090000000  0.4565350000000  0.5456220000000 1.0
C      1  0.5585600000000  0.5078030000000  0.5287410000000 1.0
C      1  0.5294320000000  0.5509830000000  0.5287970000000 1.0
C      1  0.4797070000000  0.5541170000000  0.5276030000000 1.0
C      1  0.4427110000000  0.5179360000000  0.5303920000000 1.0
C      1  0.4512460000000  0.4672890000000  0.5284350000000 1.0
C      1  0.4942680000000  0.4419910000000  0.5276230000000 1.0
C      1  0.5429010000000  0.4602170000000  0.5279840000000 1.0
END
