TITL C-2441165-58-777 -0.00475990306246598 125000 -14040.4743306052 0 0 96 (Cs) n - 1
REM
REM in /home/bkarasulu/work/CARBON/AIRSS/Generating-Clusters/ReaxFF-fromJPCA2015/Units_Real/with-SteepDescent/Higher-Symm
REM
REM
REM
REM
REM
REM ./C.cell (1df0a924f5614ab8850e4351716899ee)
REM
REM compiler GCC version 9.2.1 20190827 (Red Hat 9.2.1-1)
REM options -cpp -mtune=generic -march=x86-64 -g -O0 -fpre-include=/usr/include/finclude/math-vector-fortran.h
REM seed 1125933074 -1495303941 1686421406 -1235872708 1267543518 2126593084 211470368 518248741 -1948280648 -239883480 -549383943 -376381741 655972375 2132117030 -543038124 165998446 398645999 -272163866 -1250890088 1956431311 -1250318152 -2098987883 -213301129 2008265366 -281214115 355806636 -1317711388 -1440234026 -1249643188 440845881 1362014691 -378249289 -1287487151
REM
CELL 1.54180   50.00000   50.00000   50.00000   90.00000   90.00000   90.00000
LATT -1
SFAC C  
C      1  0.5851460000000  0.5198990000000  0.4865890000000 1.0
C      1  0.4385420000000  0.5627230000000  0.4883470000000 1.0
C      1  0.4751560000000  0.4158680000000  0.4868220000000 1.0
C      1  0.5851450000000  0.5199020000000  0.5134180000000 1.0
C      1  0.4385410000000  0.5627190000000  0.5116310000000 1.0
C      1  0.4751520000000  0.4158600000000  0.5131980000000 1.0
C      1  0.5849580000000  0.4781040000000  0.4882570000000 1.0
C      1  0.4391170000000  0.4366590000000  0.4869560000000 1.0
C      1  0.4760770000000  0.5846290000000  0.4883450000000 1.0
C      1  0.5849570000000  0.4781060000000  0.5117470000000 1.0
C      1  0.4391200000000  0.4366610000000  0.5130200000000 1.0
C      1  0.4760760000000  0.5846280000000  0.5116390000000 1.0
C      1  0.5361840000000  0.5301360000000  0.5151370000000 1.0
C      1  0.4556490000000  0.5161040000000  0.5151100000000 1.0
C      1  0.5079900000000  0.4537760000000  0.5151270000000 1.0
C      1  0.5362070000000  0.5302050000000  0.4848400000000 1.0
C      1  0.4556660000000  0.5161240000000  0.4848880000000 1.0
C      1  0.5080340000000  0.4538150000000  0.4848920000000 1.0
C      1  0.5359790000000  0.4698570000000  0.5151610000000 1.0
C      1  0.4557940000000  0.4837580000000  0.5150820000000 1.0
C      1  0.5080530000000  0.5460760000000  0.5151690000000 1.0
C      1  0.5360110000000  0.4698280000000  0.4848330000000 1.0
C      1  0.4558100000000  0.4837710000000  0.4849490000000 1.0
C      1  0.5080300000000  0.5459790000000  0.4849360000000 1.0
C      1  0.5244370000000  0.5739350000000  0.4476660000000 1.0
C      1  0.4239220000000  0.4845580000000  0.4472280000000 1.0
C      1  0.5518880000000  0.4417980000000  0.4473720000000 1.0
C      1  0.5244560000000  0.5739860000000  0.5524050000000 1.0
C      1  0.4239080000000  0.4845420000000  0.5527910000000 1.0
C      1  0.5518580000000  0.4418000000000  0.5525930000000 1.0
C      1  0.5248030000000  0.4263290000000  0.4473950000000 1.0
C      1  0.4237590000000  0.5156770000000  0.4472270000000 1.0
C      1  0.5513070000000  0.5584180000000  0.4470550000000 1.0
C      1  0.5248330000000  0.4263220000000  0.5526350000000 1.0
C      1  0.4237650000000  0.5156730000000  0.5527960000000 1.0
C      1  0.5512780000000  0.5583830000000  0.5528790000000 1.0
C      1  0.5810690000000  0.4854820000000  0.5389370000000 1.0
C      1  0.4722740000000  0.5778370000000  0.5391380000000 1.0
C      1  0.4464290000000  0.4370800000000  0.5401540000000 1.0
C      1  0.5810670000000  0.4854800000000  0.4610660000000 1.0
C      1  0.4722780000000  0.5778380000000  0.4608440000000 1.0
C      1  0.4464040000000  0.4370960000000  0.4598050000000 1.0
C      1  0.5808910000000  0.5153080000000  0.5407630000000 1.0
C      1  0.4725640000000  0.4220000000000  0.5404630000000 1.0
C      1  0.4464660000000  0.5627390000000  0.5391180000000 1.0
C      1  0.5808910000000  0.5153040000000  0.4592460000000 1.0
C      1  0.4725390000000  0.4220080000000  0.4595690000000 1.0
C      1  0.4464650000000  0.5627440000000  0.4608580000000 1.0
C      1  0.4402220000000  0.4605850000000  0.5588440000000 1.0
C      1  0.5644720000000  0.4680780000000  0.5580090000000 1.0
C      1  0.4952870000000  0.5718840000000  0.5579290000000 1.0
C      1  0.4402160000000  0.4605910000000  0.4411420000000 1.0
C      1  0.5644650000000  0.4680800000000  0.4419980000000 1.0
C      1  0.4952900000000  0.5718880000000  0.4420610000000 1.0
C      1  0.4403840000000  0.5397880000000  0.5579740000000 1.0
C      1  0.5638020000000  0.5322380000000  0.5592270000000 1.0
C      1  0.4959520000000  0.4284270000000  0.5588990000000 1.0
C      1  0.4403850000000  0.5397920000000  0.4420170000000 1.0
C      1  0.5638030000000  0.5322370000000  0.4407700000000 1.0
C      1  0.4959480000000  0.4284250000000  0.4410930000000 1.0
C      1  0.5248850000000  0.5140860000000  0.4561960000000 1.0
C      1  0.4753220000000  0.5143620000000  0.4565700000000 1.0
C      1  0.4998970000000  0.4714370000000  0.4562920000000 1.0
C      1  0.5249170000000  0.5140820000000  0.5437260000000 1.0
C      1  0.4753440000000  0.5143700000000  0.5434280000000 1.0
C      1  0.4999030000000  0.4714480000000  0.5437290000000 1.0
C      1  0.5250130000000  0.4859000000000  0.4561780000000 1.0
C      1  0.4754030000000  0.4853780000000  0.4564500000000 1.0
C      1  0.4997540000000  0.5285430000000  0.4563270000000 1.0
C      1  0.5250360000000  0.4858890000000  0.5437760000000 1.0
C      1  0.4754040000000  0.4853760000000  0.5435490000000 1.0
C      1  0.4997700000000  0.5285530000000  0.5436800000000 1.0
C      1  0.4905990000000  0.5452950000000  0.4324330000000 1.0
C      1  0.4659480000000  0.4694890000000  0.4325230000000 1.0
C      1  0.5439200000000  0.4854220000000  0.4321430000000 1.0
C      1  0.4906040000000  0.5452970000000  0.5675790000000 1.0
C      1  0.4659430000000  0.4694800000000  0.5674720000000 1.0
C      1  0.5439210000000  0.4854240000000  0.5678420000000 1.0
C      1  0.4907720000000  0.4551740000000  0.4324910000000 1.0
C      1  0.4659510000000  0.5306660000000  0.4328440000000 1.0
C      1  0.5433560000000  0.5141800000000  0.4321860000000 1.0
C      1  0.4907730000000  0.4551700000000  0.5675130000000 1.0
C      1  0.4659540000000  0.5306640000000  0.5671380000000 1.0
C      1  0.5433590000000  0.5141720000000  0.5677820000000 1.0
C      1  0.5496960000000  0.4439140000000  0.4762510000000 1.0
C      1  0.5240970000000  0.5704820000000  0.4764830000000 1.0
C      1  0.4266840000000  0.4855180000000  0.4761220000000 1.0
C      1  0.5496400000000  0.4438950000000  0.5237490000000 1.0
C      1  0.5239880000000  0.5706690000000  0.5236150000000 1.0
C      1  0.4267030000000  0.4855000000000  0.5238920000000 1.0
C      1  0.5497150000000  0.5560380000000  0.4759650000000 1.0
C      1  0.5241090000000  0.4293960000000  0.4762410000000 1.0
C      1  0.4264240000000  0.5149220000000  0.4760590000000 1.0
C      1  0.5494870000000  0.5560330000000  0.5239830000000 1.0
C      1  0.5241050000000  0.4293230000000  0.5237880000000 1.0
C      1  0.4264350000000  0.5149150000000  0.5239500000000 1.0
END
