TITL C-2441167-4473-1280 0.00662753471268055 125000 -6698.69602727064 0 0 47 (C1) n - 1
REM
REM in /home/bkarasulu/work/CARBON/AIRSS/Generating-Clusters/ReaxFF-fromJPCA2015/Units_Real/with-SteepDescent/Higher-Symm
REM
REM
REM
REM
REM
REM ./C.cell (1df0a924f5614ab8850e4351716899ee)
REM
REM compiler GCC version 9.2.1 20190827 (Red Hat 9.2.1-1)
REM options -cpp -mtune=generic -march=x86-64 -g -O0 -fpre-include=/usr/include/finclude/math-vector-fortran.h
REM seed -1827767297 -957430876 -104023543 -128205375 -1754568461 992269171 -1076265340 342479845 1174574656 -1774100576 448148680 809209139 -2114375370 -1928927898 -186272911 -228508843 -1035484717 -2063261671 -516175988 -298214478 945328916 -1210243567 -1423015726 -748967099 -1710838682 -1551755558 1471445084 796021608 -1412005664 -836585581 1198736110 -2133870658 -581544445
REM
CELL 1.54180   50.00000   50.00000   50.00000   90.00000   90.00000   90.00000
LATT -1
SFAC C  
C      1  0.5193660000000  0.5302310000000  0.4480210000000 1.0
C      1  0.5601860000000  0.5242540000000  0.4916320000000 1.0
C      1  0.5188160000000  0.5271670000000  0.5506810000000 1.0
C      1  0.4622930000000  0.5296490000000  0.5343480000000 1.0
C      1  0.4506680000000  0.5245540000000  0.4728660000000 1.0
C      1  0.5571430000000  0.5034420000000  0.5394680000000 1.0
C      1  0.4598020000000  0.4946430000000  0.5695580000000 1.0
C      1  0.4233000000000  0.4921130000000  0.4950360000000 1.0
C      1  0.4818150000000  0.5028490000000  0.4362170000000 1.0
C      1  0.5631160000000  0.4911420000000  0.4577840000000 1.0
C      1  0.5240270000000  0.4803570000000  0.5683790000000 1.0
C      1  0.4351950000000  0.4811110000000  0.5404410000000 1.0
C      1  0.4412570000000  0.4790390000000  0.4520190000000 1.0
C      1  0.5244090000000  0.4805850000000  0.4299770000000 1.0
C      1  0.5769550000000  0.4774660000000  0.5018320000000 1.0
C      1  0.5759290000000  0.5003560000000  0.4832520000000 1.0
C      1  0.5354090000000  0.5046120000000  0.5585520000000 1.0
C      1  0.4460670000000  0.5089630000000  0.5496700000000 1.0
C      1  0.4331250000000  0.5019650000000  0.4685500000000 1.0
C      1  0.5101790000000  0.5058470000000  0.4330580000000 1.0
C      1  0.4516240000000  0.4620470000000  0.5248380000000 1.0
C      1  0.4632730000000  0.4613660000000  0.4604370000000 1.0
C      1  0.5238790000000  0.4603190000000  0.4505940000000 1.0
C      1  0.5536710000000  0.4612260000000  0.5097720000000 1.0
C      1  0.5101420000000  0.4615350000000  0.5527320000000 1.0
C      1  0.4963860000000  0.4778670000000  0.5720530000000 1.0
C      1  0.4250390000000  0.4700740000000  0.5149740000000 1.0
C      1  0.4660070000000  0.4780940000000  0.4364990000000 1.0
C      1  0.5499970000000  0.4703400000000  0.4411880000000 1.0
C      1  0.5675790000000  0.4780240000000  0.5294970000000 1.0
C      1  0.4828370000000  0.4619210000000  0.4825170000000 1.0
C      1  0.5115440000000  0.4613840000000  0.4773770000000 1.0
C      1  0.5248250000000  0.4616940000000  0.5034220000000 1.0
C      1  0.5042830000000  0.4614190000000  0.5240620000000 1.0
C      1  0.4780210000000  0.4622660000000  0.5114300000000 1.0
C      1  0.4732140000000  0.5241040000000  0.4549930000000 1.0
C      1  0.5375400000000  0.5001140000000  0.4673140000000 1.0
C      1  0.5544880000000  0.5249320000000  0.5203060000000 1.0
C      1  0.4848550000000  0.5003530000000  0.5602980000000 1.0
C      1  0.4421070000000  0.5067040000000  0.5085890000000 1.0
C      1  0.4907910000000  0.5235390000000  0.5428570000000 1.0
C      1  0.4547910000000  0.5294750000000  0.5053750000000 1.0
C      1  0.4957490000000  0.5420280000000  0.4606080000000 1.0
C      1  0.5355900000000  0.5275830000000  0.4739010000000 1.0
C      1  0.5304800000000  0.5377900000000  0.5282660000000 1.0
C      1  0.4970660000000  0.5499170000000  0.4901440000000 1.0
C      1  0.5066540000000  0.5344670000000  0.5124600000000 1.0
END
