TITL C-2441166-8118-1221 0.0524561420969919 125000 -14680.2457797927 0 0 108 (C1) n - 1
REM
REM in /home/bkarasulu/work/CARBON/AIRSS/Generating-Clusters/ReaxFF-fromJPCA2015/Units_Real/with-SteepDescent/Higher-Symm
REM
REM
REM
REM
REM
REM ./C.cell (1df0a924f5614ab8850e4351716899ee)
REM
REM compiler GCC version 9.2.1 20190827 (Red Hat 9.2.1-1)
REM options -cpp -mtune=generic -march=x86-64 -g -O0 -fpre-include=/usr/include/finclude/math-vector-fortran.h
REM seed 524595879 -1910166031 147443280 1123944157 -219909537 1563648738 2005384099 1212435753 -2103124067 -25945516 1261836695 2127543340 104160888 1999427082 -949431205 1160075275 1234091688 1865071183 1221447850 1685243856 950959806 831738020 -357101807 1380950980 2146660564 -1718767924 551593281 772312997 423788612 -1124081923 -2089138856 952000956 251132025
REM
CELL 1.54180   50.00000   50.00000   50.00000   90.00000   90.00000   90.00000
LATT -1
SFAC C  
C      1  0.5076660000000  0.5338650000000  0.4599510000000 1.0
C      1  0.5216740000000  0.5083060000000  0.4685010000000 1.0
C      1  0.5165750000000  0.4788340000000  0.4628400000000 1.0
C      1  0.4876280000000  0.4784760000000  0.4631990000000 1.0
C      1  0.4791580000000  0.5039500000000  0.4737290000000 1.0
C      1  0.5004630000000  0.5237730000000  0.5301600000000 1.0
C      1  0.5228810000000  0.5069080000000  0.5316520000000 1.0
C      1  0.5137330000000  0.4802980000000  0.5335800000000 1.0
C      1  0.4851590000000  0.4815950000000  0.5347570000000 1.0
C      1  0.4779270000000  0.5085360000000  0.5323120000000 1.0
C      1  0.4551960000000  0.5121190000000  0.5142160000000 1.0
C      1  0.4938500000000  0.5440180000000  0.5108090000000 1.0
C      1  0.5446920000000  0.5127080000000  0.5135030000000 1.0
C      1  0.5319360000000  0.4697040000000  0.5140160000000 1.0
C      1  0.4723860000000  0.4642000000000  0.5149810000000 1.0
C      1  0.4546430000000  0.5030120000000  0.4862500000000 1.0
C      1  0.5012380000000  0.5499730000000  0.4823680000000 1.0
C      1  0.5432090000000  0.5165050000000  0.4844280000000 1.0
C      1  0.5330750000000  0.4716940000000  0.4857590000000 1.0
C      1  0.4793290000000  0.4630590000000  0.4861360000000 1.0
C      1  0.4967760000000  0.5298180000000  0.5849360000000 1.0
C      1  0.5168990000000  0.4747890000000  0.5817420000000 1.0
C      1  0.4900830000000  0.4657970000000  0.5895110000000 1.0
C      1  0.4791380000000  0.4921630000000  0.5840870000000 1.0
C      1  0.4694410000000  0.5193890000000  0.5885740000000 1.0
C      1  0.5075650000000  0.5234250000000  0.4169910000000 1.0
C      1  0.5285110000000  0.5037230000000  0.4169830000000 1.0
C      1  0.5178170000000  0.4765490000000  0.4160530000000 1.0
C      1  0.4892890000000  0.4746250000000  0.4189420000000 1.0
C      1  0.4665340000000  0.5191590000000  0.4147830000000 1.0
C      1  0.4476020000000  0.5232910000000  0.5687490000000 1.0
C      1  0.4981210000000  0.5540640000000  0.5685210000000 1.0
C      1  0.5447270000000  0.5367550000000  0.5618700000000 1.0
C      1  0.5306760000000  0.4546190000000  0.5647340000000 1.0
C      1  0.4744070000000  0.4478960000000  0.5710390000000 1.0
C      1  0.4430250000000  0.5231650000000  0.4300170000000 1.0
C      1  0.4806760000000  0.5606000000000  0.4289680000000 1.0
C      1  0.5537770000000  0.5082290000000  0.4331310000000 1.0
C      1  0.5295190000000  0.4574740000000  0.4364840000000 1.0
C      1  0.4723930000000  0.4589250000000  0.4386270000000 1.0
C      1  0.4843280000000  0.4118510000000  0.4860150000000 1.0
C      1  0.4123720000000  0.4906700000000  0.4877480000000 1.0
C      1  0.4614120000000  0.5781420000000  0.4839150000000 1.0
C      1  0.5705520000000  0.5592500000000  0.4837010000000 1.0
C      1  0.5755120000000  0.4546620000000  0.4855680000000 1.0
C      1  0.4833810000000  0.4116020000000  0.5155560000000 1.0
C      1  0.4149020000000  0.4923690000000  0.5168720000000 1.0
C      1  0.4621120000000  0.5747990000000  0.5130750000000 1.0
C      1  0.5709820000000  0.5600000000000  0.5130560000000 1.0
C      1  0.5750930000000  0.4544250000000  0.5146970000000 1.0
C      1  0.4676600000000  0.4204460000000  0.4641190000000 1.0
C      1  0.4092000000000  0.5151040000000  0.4714050000000 1.0
C      1  0.4836610000000  0.5929050000000  0.4709990000000 1.0
C      1  0.5833660000000  0.5387110000000  0.4654760000000 1.0
C      1  0.5612900000000  0.4401080000000  0.4643900000000 1.0
C      1  0.4670370000000  0.4172110000000  0.5388730000000 1.0
C      1  0.4112700000000  0.5148440000000  0.5372870000000 1.0
C      1  0.4817640000000  0.5811460000000  0.5351200000000 1.0
C      1  0.5863330000000  0.5466570000000  0.5350700000000 1.0
C      1  0.5629150000000  0.4355750000000  0.5339610000000 1.0
C      1  0.4892120000000  0.4283570000000  0.5555100000000 1.0
C      1  0.4325990000000  0.5025270000000  0.5536220000000 1.0
C      1  0.4723090000000  0.5642770000000  0.5563230000000 1.0
C      1  0.5660740000000  0.5524630000000  0.5539630000000 1.0
C      1  0.5567380000000  0.4584940000000  0.5516760000000 1.0
C      1  0.4867500000000  0.4326790000000  0.4460430000000 1.0
C      1  0.4233250000000  0.5126640000000  0.4479360000000 1.0
C      1  0.4867030000000  0.5823640000000  0.4452760000000 1.0
C      1  0.5665160000000  0.5287930000000  0.4452550000000 1.0
C      1  0.5590180000000  0.4597840000000  0.4434090000000 1.0
C      1  0.5155550000000  0.4334930000000  0.4489570000000 1.0
C      1  0.4467710000000  0.4614150000000  0.4560810000000 1.0
C      1  0.4588360000000  0.5463400000000  0.4441570000000 1.0
C      1  0.5070870000000  0.5472980000000  0.4345170000000 1.0
C      1  0.5676070000000  0.4869280000000  0.4510830000000 1.0
C      1  0.5177010000000  0.4329490000000  0.5501150000000 1.0
C      1  0.4492710000000  0.4513100000000  0.5548850000000 1.0
C      1  0.4473750000000  0.5479600000000  0.5535720000000 1.0
C      1  0.5236830000000  0.5571710000000  0.5552510000000 1.0
C      1  0.5616410000000  0.5114580000000  0.5521430000000 1.0
C      1  0.5838000000000  0.5170760000000  0.5335070000000 1.0
C      1  0.5360720000000  0.4235730000000  0.5276940000000 1.0
C      1  0.4434240000000  0.4347780000000  0.5300130000000 1.0
C      1  0.4234610000000  0.5421550000000  0.5336100000000 1.0
C      1  0.5120480000000  0.5761730000000  0.5341540000000 1.0
C      1  0.5855840000000  0.5122710000000  0.4770100000000 1.0
C      1  0.5353590000000  0.4260820000000  0.4701890000000 1.0
C      1  0.4445560000000  0.4382800000000  0.4730280000000 1.0
C      1  0.4250580000000  0.5409760000000  0.4798790000000 1.0
C      1  0.5092010000000  0.5786380000000  0.4797640000000 1.0
C      1  0.4660060000000  0.5465720000000  0.5178180000000 1.0
C      1  0.5459840000000  0.5436950000000  0.5140970000000 1.0
C      1  0.5579230000000  0.4762720000000  0.5270990000000 1.0
C      1  0.4910590000000  0.4396260000000  0.5159440000000 1.0
C      1  0.4419540000000  0.4884190000000  0.5285150000000 1.0
C      1  0.4502850000000  0.5548810000000  0.4697200000000 1.0
C      1  0.5449600000000  0.5452580000000  0.4847550000000 1.0
C      1  0.5606780000000  0.4790290000000  0.4791370000000 1.0
C      1  0.4942520000000  0.4394530000000  0.4894780000000 1.0
C      1  0.4375750000000  0.4833880000000  0.4735390000000 1.0
C      1  0.4244130000000  0.5420300000000  0.5068470000000 1.0
C      1  0.5885850000000  0.5073740000000  0.5038370000000 1.0
C      1  0.5324650000000  0.4207610000000  0.4989460000000 1.0
C      1  0.4375250000000  0.4393210000000  0.5017760000000 1.0
C      1  0.5207680000000  0.5830450000000  0.5069890000000 1.0
C      1  0.5062820000000  0.5023940000000  0.5771500000000 1.0
C      1  0.4872260000000  0.5033530000000  0.4247060000000 1.0
C      1  0.5004350000000  0.5065310000000  0.4929520000000 1.0
END
