TITL C-2441162-9305-689 -9.8367237787778e-09 125000 -1212.69639443714 0 0 9 (D3h) n - 1
REM
REM in /home/bkarasulu/work/CARBON/AIRSS/Generating-Clusters/ReaxFF-fromJPCA2015/Units_Real/with-SteepDescent/Higher-Symm
REM
REM
REM
REM
REM
REM ./C.cell (1df0a924f5614ab8850e4351716899ee)
REM
REM compiler GCC version 9.2.1 20190827 (Red Hat 9.2.1-1)
REM options -cpp -mtune=generic -march=x86-64 -g -O0 -fpre-include=/usr/include/finclude/math-vector-fortran.h
REM seed -2087233278 676535516 -1914467443 833584786 -647520468 1029126136 -439752121 1222530975 -1531013963 -1586587248 -1189579885 670501263 2086931385 208068032 170410627 15390721 906422269 1147701214 -1078996983 -641839326 -1818930339 1088965380 -770853807 1095803145 1974393234 868105082 1699916877 517259579 -1640052183 -805203470 1697077650 -2107145815 1657602231
REM
CELL 1.54180   50.00000   50.00000   50.00000   90.00000   90.00000   90.00000
LATT -1
SFAC C  
C      1  0.5020460000000  0.4795680000000  0.4732840000000 1.0
C      1  0.5020460000000  0.5333530000000  0.4956640000000 1.0
C      1  0.5020460000000  0.5204320000000  0.4732840000000 1.0
C      1  0.5020460000000  0.4666470000000  0.4956640000000 1.0
C      1  0.5020460000000  0.4870790000000  0.5310530000000 1.0
C      1  0.5020460000000  0.5129210000000  0.5310530000000 1.0
C      1  0.5020460000000  0.4644780000000  0.5205090000000 1.0
C      1  0.5020460000000  0.5355220000000  0.5205090000000 1.0
C      1  0.5020460000000  0.5000000000000  0.4589830000000 1.0
END
