TITL C-2441168-9922-587 0.172972629831904 125000 -10208.3924806389 0 0 99 (C2v) n - 1
REM
REM in /home/bkarasulu/work/CARBON/AIRSS/Generating-Clusters/ReaxFF-fromJPCA2015/Units_Real/with-SteepDescent/Higher-Symm
REM
REM
REM
REM
REM
REM ./C.cell (1df0a924f5614ab8850e4351716899ee)
REM
REM compiler GCC version 9.2.1 20190827 (Red Hat 9.2.1-1)
REM options -cpp -mtune=generic -march=x86-64 -g -O0 -fpre-include=/usr/include/finclude/math-vector-fortran.h
REM seed -1415601964 -1373003779 -1050770827 271071133 -89579269 811194800 -1608593196 508257848 1278617314 2042473735 101617267 2132203196 -897637328 -659657357 -919135347 -1820992708 103027981 -257873265 570846715 -907604132 -428507877 322748764 791081539 -1320370432 -1914383101 1742188185 1925774693 -2055715722 -2045962549 474126116 1156048255 94259330 -1223415396
REM
CELL 1.54180   50.00000   50.00000   50.00000   90.00000   90.00000   90.00000
LATT -1
SFAC C  
C      1  0.4707670000000  0.4202330000000  0.4741670000000 1.0
C      1  0.5859980000000  0.5143890000000  0.4733450000000 1.0
C      1  0.4452580000000  0.5646870000000  0.4750460000000 1.0
C      1  0.4718280000000  0.4207890000000  0.5235360000000 1.0
C      1  0.5863110000000  0.5143790000000  0.5249920000000 1.0
C      1  0.4456580000000  0.5651380000000  0.5240700000000 1.0
C      1  0.4707780000000  0.5797590000000  0.4741630000000 1.0
C      1  0.5859940000000  0.4856110000000  0.4733410000000 1.0
C      1  0.4452500000000  0.4353010000000  0.4750200000000 1.0
C      1  0.4719170000000  0.5792720000000  0.5234880000000 1.0
C      1  0.5863150000000  0.4856040000000  0.5249830000000 1.0
C      1  0.4456820000000  0.4351060000000  0.5238610000000 1.0
C      1  0.5316410000000  0.5279470000000  0.5573840000000 1.0
C      1  0.4608360000000  0.5131680000000  0.5573380000000 1.0
C      1  0.5079320000000  0.4598310000000  0.5567560000000 1.0
C      1  0.5315450000000  0.5282000000000  0.4411420000000 1.0
C      1  0.4607270000000  0.5132670000000  0.4412350000000 1.0
C      1  0.5083330000000  0.4595920000000  0.4413810000000 1.0
C      1  0.5316450000000  0.4720540000000  0.5573810000000 1.0
C      1  0.4608490000000  0.4868330000000  0.5573230000000 1.0
C      1  0.5079190000000  0.5401850000000  0.5567410000000 1.0
C      1  0.5315410000000  0.4718010000000  0.4411420000000 1.0
C      1  0.4607300000000  0.4867390000000  0.4412330000000 1.0
C      1  0.5083290000000  0.5404040000000  0.4413770000000 1.0
C      1  0.4735720000000  0.4762200000000  0.4171730000000 1.0
C      1  0.5339120000000  0.4887140000000  0.4170420000000 1.0
C      1  0.4926270000000  0.5347360000000  0.4169740000000 1.0
C      1  0.4735880000000  0.4762450000000  0.5815330000000 1.0
C      1  0.5338850000000  0.4887000000000  0.5815980000000 1.0
C      1  0.4925280000000  0.5347080000000  0.5817390000000 1.0
C      1  0.4735710000000  0.5237810000000  0.4171750000000 1.0
C      1  0.5339120000000  0.5112870000000  0.4170430000000 1.0
C      1  0.4926270000000  0.4652630000000  0.4169790000000 1.0
C      1  0.4735870000000  0.5237540000000  0.5815310000000 1.0
C      1  0.5338850000000  0.5112980000000  0.5816020000000 1.0
C      1  0.4925350000000  0.4652900000000  0.5817280000000 1.0
C      1  0.4760450000000  0.4859900000000  0.5227700000000 1.0
C      1  0.5235750000000  0.4864920000000  0.5229490000000 1.0
C      1  0.4995430000000  0.5280070000000  0.5236260000000 1.0
C      1  0.4760010000000  0.4859910000000  0.4757130000000 1.0
C      1  0.5236440000000  0.4865030000000  0.4758330000000 1.0
C      1  0.4995890000000  0.5278270000000  0.4757640000000 1.0
C      1  0.4760590000000  0.5139870000000  0.5227540000000 1.0
C      1  0.5235550000000  0.5135130000000  0.5229510000000 1.0
C      1  0.4995410000000  0.4719920000000  0.5236270000000 1.0
C      1  0.4760010000000  0.5140110000000  0.4757140000000 1.0
C      1  0.5236590000000  0.5134970000000  0.4758360000000 1.0
C      1  0.4995960000000  0.4721660000000  0.4757660000000 1.0
C      1  0.4547460000000  0.5293520000000  0.5122800000000 1.0
C      1  0.4969690000000  0.4456310000000  0.5123070000000 1.0
C      1  0.5454480000000  0.5248440000000  0.5116350000000 1.0
C      1  0.4547090000000  0.5292500000000  0.4864550000000 1.0
C      1  0.4970890000000  0.4459960000000  0.4863160000000 1.0
C      1  0.5455640000000  0.5249400000000  0.4871250000000 1.0
C      1  0.4546740000000  0.4704330000000  0.5123390000000 1.0
C      1  0.4969530000000  0.5543550000000  0.5123070000000 1.0
C      1  0.5454450000000  0.4751630000000  0.5116490000000 1.0
C      1  0.4547120000000  0.4707430000000  0.4864510000000 1.0
C      1  0.4971140000000  0.5539960000000  0.4863040000000 1.0
C      1  0.5455800000000  0.4750720000000  0.4871100000000 1.0
C      1  0.5476180000000  0.4473090000000  0.5205990000000 1.0
C      1  0.5217900000000  0.5674810000000  0.5221800000000 1.0
C      1  0.4309420000000  0.4853150000000  0.5220400000000 1.0
C      1  0.5476540000000  0.4471850000000  0.4782550000000 1.0
C      1  0.5216330000000  0.5673230000000  0.4769020000000 1.0
C      1  0.4308700000000  0.4853190000000  0.4764000000000 1.0
C      1  0.5476130000000  0.5527130000000  0.5205910000000 1.0
C      1  0.5217920000000  0.4325340000000  0.5221740000000 1.0
C      1  0.4309290000000  0.5146700000000  0.5220380000000 1.0
C      1  0.5476670000000  0.5528040000000  0.4782450000000 1.0
C      1  0.5216390000000  0.4326890000000  0.4768960000000 1.0
C      1  0.4308640000000  0.5146760000000  0.4764020000000 1.0
C      1  0.4518550000000  0.5525600000000  0.4497390000000 1.0
C      1  0.4787990000000  0.4321510000000  0.4489490000000 1.0
C      1  0.5696850000000  0.5159330000000  0.4497540000000 1.0
C      1  0.4516070000000  0.5525610000000  0.5495710000000 1.0
C      1  0.4783710000000  0.4319480000000  0.5494670000000 1.0
C      1  0.5701350000000  0.5158730000000  0.5487490000000 1.0
C      1  0.4518490000000  0.4474460000000  0.4497280000000 1.0
C      1  0.4788040000000  0.5678440000000  0.4489430000000 1.0
C      1  0.5696870000000  0.4840720000000  0.4497550000000 1.0
C      1  0.4516120000000  0.4473810000000  0.5495160000000 1.0
C      1  0.4782290000000  0.5680240000000  0.5493340000000 1.0
C      1  0.5701180000000  0.4841070000000  0.5487440000000 1.0
C      1  0.4376450000000  0.5270000000000  0.5474740000000 1.0
C      1  0.5075510000000  0.4321570000000  0.5474700000000 1.0
C      1  0.5541730000000  0.5398590000000  0.5467160000000 1.0
C      1  0.4378750000000  0.5272220000000  0.4512100000000 1.0
C      1  0.5079160000000  0.4323290000000  0.4512430000000 1.0
C      1  0.5539410000000  0.5400890000000  0.4520350000000 1.0
C      1  0.4376280000000  0.4729940000000  0.5474860000000 1.0
C      1  0.5075310000000  0.5678400000000  0.5474570000000 1.0
C      1  0.5541780000000  0.4601440000000  0.5467150000000 1.0
C      1  0.4378680000000  0.4727790000000  0.4512030000000 1.0
C      1  0.5079260000000  0.5676820000000  0.4512350000000 1.0
C      1  0.5539410000000  0.4598960000000  0.4520290000000 1.0
C      1  0.4625810000000  0.5645420000000  0.4989570000000 1.0
C      1  0.4625900000000  0.4355170000000  0.4989800000000 1.0
C      1  0.5750720000000  0.4999970000000  0.4993070000000 1.0
END
