TITL C-2441157-2117-82 -0.000460657164137466 125000 -3065.55725651044 0 0 22 (Ci) n - 1
REM
REM in /home/bkarasulu/work/CARBON/AIRSS/Generating-Clusters/ReaxFF-fromJPCA2015/Units_Real/with-SteepDescent/Higher-Symm
REM
REM
REM
REM
REM
REM ./C.cell (1df0a924f5614ab8850e4351716899ee)
REM
REM compiler GCC version 9.2.1 20190827 (Red Hat 9.2.1-1)
REM options -cpp -mtune=generic -march=x86-64 -g -O0 -fpre-include=/usr/include/finclude/math-vector-fortran.h
REM seed -423418983 1830231743 1509994384 13408111 1656364053 2044972114 -1064724934 -766049291 -1805061209 1278541879 39275935 -1014921258 -2033680431 -865148503 -880066217 1524033801 144228192 353418640 -328944687 283791983 -1142742423 801438211 263006079 -664085162 -1019432297 1593510603 -968751551 956268775 985528656 -984157758 -1495717209 895782974 -1584982940
REM
CELL 1.54180   50.00000   50.00000   50.00000   90.00000   90.00000   90.00000
LATT -1
SFAC C  
C      1  0.4700850000000  0.4827950000000  0.5653080000000 1.0
C      1  0.4349000000000  0.4965510000000  0.4810130000000 1.0
C      1  0.5195510000000  0.4965450000000  0.4254130000000 1.0
C      1  0.5577520000000  0.4821120000000  0.5225380000000 1.0
C      1  0.4789380000000  0.5105880000000  0.5711400000000 1.0
C      1  0.4405930000000  0.5250320000000  0.4741630000000 1.0
C      1  0.5286470000000  0.5242640000000  0.4312760000000 1.0
C      1  0.5635630000000  0.5105820000000  0.5155870000000 1.0
C      1  0.5186390000000  0.5308740000000  0.4855640000000 1.0
C      1  0.4969380000000  0.5275270000000  0.5219720000000 1.0
C      1  0.4668600000000  0.5229230000000  0.4911700000000 1.0
C      1  0.5126370000000  0.5232420000000  0.4578740000000 1.0
C      1  0.5316700000000  0.4841910000000  0.5052800000000 1.0
C      1  0.4859520000000  0.4839840000000  0.5386300000000 1.0
C      1  0.4798800000000  0.4763060000000  0.5109230000000 1.0
C      1  0.5014520000000  0.4797630000000  0.4745460000000 1.0
C      1  0.5021450000000  0.4963290000000  0.4520340000000 1.0
C      1  0.4962890000000  0.5109690000000  0.5444390000000 1.0
C      1  0.4621880000000  0.4957910000000  0.4967620000000 1.0
C      1  0.5363680000000  0.5113440000000  0.4997290000000 1.0
C      1  0.5060140000000  0.4684830000000  0.4989210000000 1.0
C      1  0.4924650000000  0.5386440000000  0.4974840000000 1.0
END
