TITL C-2441158-471-216 0.0465998489667269 125000 -17047.4380144685 0 0 124 (C1) n - 1
REM
REM in /home/bkarasulu/work/CARBON/AIRSS/Generating-Clusters/ReaxFF-fromJPCA2015/Units_Real/with-SteepDescent/Higher-Symm
REM
REM
REM
REM
REM
REM ./C.cell (1df0a924f5614ab8850e4351716899ee)
REM
REM compiler GCC version 9.2.1 20190827 (Red Hat 9.2.1-1)
REM options -cpp -mtune=generic -march=x86-64 -g -O0 -fpre-include=/usr/include/finclude/math-vector-fortran.h
REM seed 1740316824 -1211175375 9685646 -1347610726 -1151597753 -1899679375 -1511612036 -1997828341 -843479579 1881443768 -450517477 1158244803 -1155627053 1742679560 1676786767 1037672500 -1247722385 1218097440 769579447 -725671944 -331784518 581002987 855072456 -1780517108 1233595541 -616548834 -1397495842 -1477372642 30112679 844275317 1841232047 -49726069 1330175216
REM
CELL 1.54180   50.00000   50.00000   50.00000   90.00000   90.00000   90.00000
LATT -1
SFAC C  
C      1  0.5914500000000  0.5007710000000  0.4757180000000 1.0
C      1  0.4776710000000  0.5034270000000  0.5930080000000 1.0
C      1  0.4422750000000  0.5020040000000  0.4263630000000 1.0
C      1  0.4819540000000  0.5518810000000  0.5124830000000 1.0
C      1  0.5124570000000  0.5585530000000  0.4728400000000 1.0
C      1  0.5084210000000  0.5552140000000  0.5144940000000 1.0
C      1  0.5830510000000  0.4786000000000  0.4554080000000 1.0
C      1  0.4944590000000  0.4788140000000  0.5944940000000 1.0
C      1  0.4212030000000  0.4757460000000  0.4471850000000 1.0
C      1  0.5865880000000  0.4813850000000  0.4970360000000 1.0
C      1  0.4610070000000  0.4884610000000  0.5720440000000 1.0
C      1  0.4558190000000  0.4946720000000  0.4510240000000 1.0
C      1  0.5630680000000  0.5269850000000  0.4459730000000 1.0
C      1  0.5147800000000  0.5303990000000  0.5821780000000 1.0
C      1  0.4180890000000  0.5246720000000  0.4696450000000 1.0
C      1  0.5191880000000  0.4676870000000  0.5834090000000 1.0
C      1  0.4180730000000  0.4614870000000  0.4723690000000 1.0
C      1  0.5602790000000  0.4666200000000  0.4418790000000 1.0
C      1  0.5035870000000  0.4459600000000  0.5142850000000 1.0
C      1  0.4825950000000  0.4459240000000  0.4954390000000 1.0
C      1  0.5099720000000  0.4440490000000  0.4872990000000 1.0
C      1  0.5234870000000  0.5702440000000  0.5482900000000 1.0
C      1  0.4465590000000  0.5647740000000  0.4979800000000 1.0
C      1  0.5329730000000  0.5635410000000  0.4527640000000 1.0
C      1  0.5195580000000  0.4662470000000  0.5248070000000 1.0
C      1  0.4645130000000  0.4703620000000  0.4996910000000 1.0
C      1  0.5159490000000  0.4635780000000  0.4665990000000 1.0
C      1  0.5237320000000  0.4141140000000  0.4836860000000 1.0
C      1  0.4996650000000  0.4152220000000  0.5301600000000 1.0
C      1  0.4735130000000  0.4139710000000  0.4874570000000 1.0
C      1  0.5455840000000  0.5264200000000  0.4222460000000 1.0
C      1  0.5436440000000  0.5314960000000  0.5772260000000 1.0
C      1  0.4076030000000  0.5262780000000  0.4973050000000 1.0
C      1  0.5766800000000  0.5149190000000  0.5328580000000 1.0
C      1  0.4351010000000  0.5240380000000  0.5624680000000 1.0
C      1  0.4886790000000  0.5155970000000  0.4148680000000 1.0
C      1  0.4736970000000  0.4412620000000  0.5654360000000 1.0
C      1  0.4577960000000  0.4392640000000  0.4439400000000 1.0
C      1  0.5680940000000  0.4409540000000  0.4881660000000 1.0
C      1  0.4296790000000  0.5416090000000  0.5412990000000 1.0
C      1  0.5011800000000  0.5432170000000  0.4128010000000 1.0
C      1  0.5708820000000  0.5448090000000  0.5416650000000 1.0
C      1  0.4467300000000  0.5690410000000  0.4706730000000 1.0
C      1  0.5554110000000  0.5679780000000  0.4703220000000 1.0
C      1  0.4980140000000  0.5689920000000  0.5603160000000 1.0
C      1  0.5856200000000  0.5288930000000  0.4803210000000 1.0
C      1  0.4708320000000  0.5293590000000  0.5815930000000 1.0
C      1  0.4434730000000  0.5314960000000  0.4369560000000 1.0
C      1  0.5224150000000  0.4849960000000  0.4863120000000 1.0
C      1  0.5023380000000  0.4869000000000  0.5277490000000 1.0
C      1  0.4823130000000  0.4888640000000  0.4845980000000 1.0
C      1  0.4288150000000  0.4702990000000  0.5015970000000 1.0
C      1  0.5359910000000  0.4822070000000  0.4332860000000 1.0
C      1  0.5368940000000  0.4862640000000  0.5716960000000 1.0
C      1  0.5504800000000  0.5743520000000  0.5004610000000 1.0
C      1  0.4711550000000  0.5771200000000  0.5441030000000 1.0
C      1  0.4728330000000  0.5803160000000  0.4589070000000 1.0
C      1  0.5943030000000  0.4999820000000  0.5169110000000 1.0
C      1  0.4312590000000  0.4963850000000  0.5692800000000 1.0
C      1  0.4674460000000  0.4965780000000  0.4094950000000 1.0
C      1  0.5514140000000  0.4383940000000  0.4466250000000 1.0
C      1  0.5223430000000  0.4432420000000  0.5675220000000 1.0
C      1  0.4297240000000  0.4347290000000  0.4788540000000 1.0
C      1  0.4642270000000  0.4984910000000  0.5439920000000 1.0
C      1  0.4845980000000  0.5081620000000  0.4448980000000 1.0
C      1  0.5542130000000  0.5043560000000  0.5166520000000 1.0
C      1  0.5038250000000  0.5177640000000  0.5590360000000 1.0
C      1  0.4412320000000  0.5054670000000  0.4740780000000 1.0
C      1  0.5485590000000  0.5163330000000  0.4679660000000 1.0
C      1  0.4538870000000  0.4226560000000  0.4681680000000 1.0
C      1  0.5500810000000  0.4248560000000  0.4723800000000 1.0
C      1  0.4993350000000  0.4298090000000  0.5572540000000 1.0
C      1  0.5235630000000  0.5340320000000  0.5197490000000 1.0
C      1  0.4807430000000  0.5275510000000  0.4952220000000 1.0
C      1  0.5039490000000  0.5313920000000  0.4780000000000 1.0
C      1  0.5483290000000  0.5451270000000  0.5081090000000 1.0
C      1  0.4688050000000  0.5484420000000  0.5374940000000 1.0
C      1  0.4807980000000  0.5569640000000  0.4493300000000 1.0
C      1  0.4499900000000  0.4304360000000  0.5275610000000 1.0
C      1  0.4991080000000  0.4297510000000  0.4418390000000 1.0
C      1  0.5485510000000  0.4240840000000  0.5268390000000 1.0
C      1  0.5880960000000  0.4593680000000  0.4765380000000 1.0
C      1  0.4728290000000  0.4620740000000  0.5855650000000 1.0
C      1  0.4410340000000  0.4599720000000  0.4372510000000 1.0
C      1  0.5144510000000  0.4811130000000  0.4141850000000 1.0
C      1  0.5587700000000  0.4845120000000  0.5548700000000 1.0
C      1  0.4156460000000  0.4803370000000  0.5273630000000 1.0
C      1  0.4924900000000  0.5497480000000  0.5819580000000 1.0
C      1  0.4297240000000  0.5480430000000  0.4565290000000 1.0
C      1  0.5755900000000  0.5489120000000  0.4618010000000 1.0
C      1  0.5666170000000  0.4589930000000  0.5434350000000 1.0
C      1  0.4301570000000  0.4722540000000  0.5521720000000 1.0
C      1  0.4860570000000  0.4735850000000  0.4139500000000 1.0
C      1  0.5689650000000  0.4430180000000  0.5174350000000 1.0
C      1  0.4488210000000  0.4486390000000  0.5506740000000 1.0
C      1  0.4798840000000  0.4472020000000  0.4269370000000 1.0
C      1  0.5464380000000  0.5519770000000  0.5566120000000 1.0
C      1  0.4337250000000  0.5383170000000  0.5091810000000 1.0
C      1  0.5274230000000  0.5479080000000  0.4266220000000 1.0
C      1  0.4693860000000  0.5320650000000  0.4499910000000 1.0
C      1  0.5602230000000  0.5222760000000  0.4933980000000 1.0
C      1  0.4757920000000  0.5235050000000  0.5525680000000 1.0
C      1  0.4923140000000  0.4805760000000  0.4594250000000 1.0
C      1  0.5397490000000  0.4804660000000  0.5096180000000 1.0
C      1  0.4744850000000  0.4818230000000  0.5252550000000 1.0
C      1  0.4720120000000  0.4140050000000  0.5188150000000 1.0
C      1  0.4946860000000  0.4145040000000  0.4663610000000 1.0
C      1  0.5258910000000  0.4120890000000  0.5132590000000 1.0
C      1  0.4907470000000  0.5660690000000  0.4254240000000 1.0
C      1  0.5693120000000  0.5644090000000  0.5212880000000 1.0
C      1  0.4461640000000  0.5623160000000  0.5518220000000 1.0
C      1  0.4546630000000  0.5155100000000  0.4973830000000 1.0
C      1  0.5215090000000  0.5100020000000  0.4719650000000 1.0
C      1  0.5160670000000  0.5111630000000  0.5350040000000 1.0
C      1  0.5212200000000  0.5815030000000  0.5179880000000 1.0
C      1  0.4700390000000  0.5808070000000  0.5119380000000 1.0
C      1  0.4967700000000  0.5837990000000  0.4761130000000 1.0
C      1  0.5242760000000  0.4442800000000  0.4390770000000 1.0
C      1  0.5480300000000  0.4389850000000  0.5532210000000 1.0
C      1  0.4306180000000  0.4407640000000  0.5071360000000 1.0
C      1  0.5352550000000  0.5007160000000  0.4127990000000 1.0
C      1  0.5563540000000  0.5051920000000  0.5754990000000 1.0
C      1  0.4085730000000  0.5042320000000  0.5144770000000 1.0
C      1  0.4965050000000  0.5920000000000  0.5032610000000 1.0
END
