TITL C-2441164-471-1051 0.0166829040728503 125000 -12933.2695952416 0 0 90 (C1) n - 1
REM
REM in /home/bkarasulu/work/CARBON/AIRSS/Generating-Clusters/ReaxFF-fromJPCA2015/Units_Real/with-SteepDescent/Higher-Symm
REM
REM
REM
REM
REM
REM ./C.cell (1df0a924f5614ab8850e4351716899ee)
REM
REM compiler GCC version 9.2.1 20190827 (Red Hat 9.2.1-1)
REM options -cpp -mtune=generic -march=x86-64 -g -O0 -fpre-include=/usr/include/finclude/math-vector-fortran.h
REM seed -114620654 209255804 -1864748213 -918699866 1239129770 -1357967281 2091884258 1532969654 855690114 2014748726 -2063457490 798061675 -1500909748 -734366826 794511069 -158928227 706792743 -760617875 472894820 1543807212 102039579 227059442 215594788 -642119107 579842443 -793430663 -130490342 1198247210 -312848794 1676827368 2060392476 1436747137 1940345624
REM
CELL 1.54180   50.00000   50.00000   50.00000   90.00000   90.00000   90.00000
LATT -1
SFAC C  
C      1  0.5351520000000  0.5280960000000  0.5726710000000 1.0
C      1  0.4367260000000  0.5214960000000  0.5504870000000 1.0
C      1  0.4477340000000  0.4478200000000  0.4949860000000 1.0
C      1  0.5375090000000  0.5053410000000  0.5086610000000 1.0
C      1  0.5674480000000  0.5526650000000  0.5040590000000 1.0
C      1  0.4439710000000  0.4664190000000  0.5098340000000 1.0
C      1  0.4464800000000  0.4688880000000  0.4522590000000 1.0
C      1  0.4774100000000  0.5110880000000  0.4700130000000 1.0
C      1  0.4527350000000  0.5647090000000  0.5240000000000 1.0
C      1  0.4445640000000  0.4774660000000  0.5545730000000 1.0
C      1  0.5460510000000  0.4375140000000  0.4856940000000 1.0
C      1  0.4106510000000  0.5018840000000  0.4911130000000 1.0
C      1  0.5082540000000  0.4952550000000  0.4205160000000 1.0
C      1  0.5048170000000  0.4531810000000  0.4217170000000 1.0
C      1  0.4924030000000  0.4251150000000  0.5298100000000 1.0
C      1  0.4833050000000  0.5176810000000  0.4959640000000 1.0
C      1  0.4948840000000  0.4236130000000  0.4763930000000 1.0
C      1  0.5080810000000  0.5334120000000  0.4956190000000 1.0
C      1  0.5762400000000  0.4793560000000  0.4858800000000 1.0
C      1  0.5074200000000  0.5182690000000  0.5796930000000 1.0
C      1  0.5388800000000  0.5539380000000  0.4582340000000 1.0
C      1  0.5049770000000  0.5585480000000  0.5382170000000 1.0
C      1  0.4907020000000  0.5574920000000  0.4571740000000 1.0
C      1  0.5770240000000  0.5064430000000  0.4740990000000 1.0
C      1  0.5374400000000  0.4384510000000  0.5396330000000 1.0
C      1  0.4493370000000  0.4439670000000  0.4673620000000 1.0
C      1  0.4842640000000  0.5854780000000  0.5054080000000 1.0
C      1  0.5672170000000  0.5086410000000  0.5136380000000 1.0
C      1  0.5508120000000  0.5595530000000  0.5288470000000 1.0
C      1  0.5678730000000  0.4933740000000  0.5637070000000 1.0
C      1  0.5665360000000  0.4764910000000  0.5413500000000 1.0
C      1  0.5187260000000  0.5211760000000  0.4216180000000 1.0
C      1  0.4486830000000  0.4550090000000  0.5361740000000 1.0
C      1  0.5307040000000  0.4770630000000  0.5099910000000 1.0
C      1  0.4070700000000  0.4944700000000  0.5179300000000 1.0
C      1  0.4936560000000  0.4416990000000  0.5685560000000 1.0
C      1  0.4252070000000  0.4958050000000  0.5435040000000 1.0
C      1  0.5351070000000  0.4708970000000  0.5366130000000 1.0
C      1  0.4395260000000  0.4968570000000  0.4950950000000 1.0
C      1  0.5811410000000  0.5268530000000  0.4957770000000 1.0
C      1  0.5619600000000  0.5112020000000  0.4488570000000 1.0
C      1  0.5133960000000  0.5340930000000  0.5240200000000 1.0
C      1  0.4601500000000  0.5195980000000  0.5686820000000 1.0
C      1  0.5534140000000  0.5147980000000  0.5529800000000 1.0
C      1  0.5415150000000  0.5304730000000  0.4405850000000 1.0
C      1  0.5317420000000  0.4535570000000  0.5771170000000 1.0
C      1  0.5188180000000  0.4415600000000  0.4671190000000 1.0
C      1  0.4647990000000  0.4913710000000  0.5729530000000 1.0
C      1  0.5430510000000  0.4353350000000  0.5126290000000 1.0
C      1  0.4882120000000  0.4788780000000  0.4269660000000 1.0
C      1  0.5635650000000  0.4564480000000  0.4722360000000 1.0
C      1  0.5504290000000  0.5454880000000  0.5546900000000 1.0
C      1  0.4958490000000  0.4344040000000  0.5028880000000 1.0
C      1  0.5215830000000  0.4931270000000  0.4641180000000 1.0
C      1  0.4914650000000  0.5324870000000  0.4236250000000 1.0
C      1  0.4926720000000  0.4923060000000  0.5820350000000 1.0
C      1  0.4636560000000  0.5573960000000  0.4483620000000 1.0
C      1  0.4926580000000  0.5289710000000  0.4530580000000 1.0
C      1  0.5256000000000  0.5140940000000  0.4840160000000 1.0
C      1  0.4725480000000  0.4260440000000  0.4572730000000 1.0
C      1  0.5260630000000  0.5740500000000  0.5238780000000 1.0
C      1  0.4581030000000  0.4845500000000  0.4314990000000 1.0
C      1  0.4580740000000  0.5730440000000  0.4961710000000 1.0
C      1  0.4304050000000  0.5139090000000  0.4572400000000 1.0
C      1  0.4774130000000  0.4482560000000  0.5431710000000 1.0
C      1  0.4475510000000  0.5591680000000  0.4724940000000 1.0
C      1  0.4888570000000  0.4771340000000  0.5269520000000 1.0
C      1  0.4389600000000  0.5390460000000  0.5274610000000 1.0
C      1  0.4789940000000  0.5037740000000  0.5204960000000 1.0
C      1  0.5076340000000  0.4699270000000  0.4722540000000 1.0
C      1  0.4499350000000  0.4952190000000  0.4686720000000 1.0
C      1  0.5042770000000  0.4656910000000  0.5011210000000 1.0
C      1  0.5516360000000  0.4602260000000  0.4453880000000 1.0
C      1  0.4868060000000  0.5306290000000  0.5641320000000 1.0
C      1  0.5440500000000  0.4886250000000  0.4445890000000 1.0
C      1  0.5556930000000  0.5545800000000  0.4795180000000 1.0
C      1  0.4623660000000  0.5362260000000  0.4271490000000 1.0
C      1  0.5108950000000  0.4861020000000  0.5440120000000 1.0
C      1  0.5067290000000  0.4643280000000  0.5841240000000 1.0
C      1  0.5281330000000  0.4445590000000  0.4383810000000 1.0
C      1  0.4421820000000  0.5250460000000  0.5022020000000 1.0
C      1  0.4468490000000  0.5119910000000  0.4330240000000 1.0
C      1  0.5127890000000  0.4269220000000  0.5517520000000 1.0
C      1  0.4307980000000  0.5351940000000  0.4772910000000 1.0
C      1  0.5796700000000  0.4825290000000  0.5150510000000 1.0
C      1  0.5126810000000  0.5618420000000  0.4756860000000 1.0
C      1  0.4870910000000  0.4360700000000  0.4355550000000 1.0
C      1  0.5122310000000  0.5809470000000  0.4987760000000 1.0
C      1  0.4992970000000  0.5138190000000  0.5387250000000 1.0
C      1  0.4800460000000  0.5734960000000  0.5321560000000 1.0
END
