TITL C-2441167-4473-1207 0.00492833465425395 125000 -4011.92835746896 0 0 28 (Ci) n - 1
REM
REM in /home/bkarasulu/work/CARBON/AIRSS/Generating-Clusters/ReaxFF-fromJPCA2015/Units_Real/with-SteepDescent/Higher-Symm
REM
REM
REM
REM
REM
REM ./C.cell (1df0a924f5614ab8850e4351716899ee)
REM
REM compiler GCC version 9.2.1 20190827 (Red Hat 9.2.1-1)
REM options -cpp -mtune=generic -march=x86-64 -g -O0 -fpre-include=/usr/include/finclude/math-vector-fortran.h
REM seed -663686525 1579895195 -1144128587 -2068872131 -21145412 -1171882290 1565468412 -63930597 -1152293137 229803105 300421835 -2060726706 2033344624 1167729519 -143640996 836250542 1648087272 1636634819 1262389432 958291922 -2034862582 -1107125265 -390288946 326110908 -1891821920 -418593467 -419071326 457203354 69593188 921405935 -1571931778 -281578649 1876549784
REM
CELL 1.54180   50.00000   50.00000   50.00000   90.00000   90.00000   90.00000
LATT -1
SFAC C  
C      1  0.4942970000000  0.4683250000000  0.5067940000000 1.0
C      1  0.5057030000000  0.5316750000000  0.4932060000000 1.0
C      1  0.5135630000000  0.4962490000000  0.4570610000000 1.0
C      1  0.4864370000000  0.5037510000000  0.5429410000000 1.0
C      1  0.5280930000000  0.4498570000000  0.4670390000000 1.0
C      1  0.4719070000000  0.5501450000000  0.5329620000000 1.0
C      1  0.4591570000000  0.5404210000000  0.5082990000000 1.0
C      1  0.5408500000000  0.4595900000000  0.4916960000000 1.0
C      1  0.5224320000000  0.4673010000000  0.5146080000000 1.0
C      1  0.4775680000000  0.5326990000000  0.4853910000000 1.0
C      1  0.4889280000000  0.5059790000000  0.4430830000000 1.0
C      1  0.5110730000000  0.4940190000000  0.5569160000000 1.0
C      1  0.5039650000000  0.4664470000000  0.4580350000000 1.0
C      1  0.4960370000000  0.5335530000000  0.5419650000000 1.0
C      1  0.4883910000000  0.4817920000000  0.4280380000000 1.0
C      1  0.5116100000000  0.5182060000000  0.5719640000000 1.0
C      1  0.4697570000000  0.5125500000000  0.4659500000000 1.0
C      1  0.5302430000000  0.4874520000000  0.5340490000000 1.0
C      1  0.5377460000000  0.5131290000000  0.5224210000000 1.0
C      1  0.4622530000000  0.4868720000000  0.4775790000000 1.0
C      1  0.4524530000000  0.4929030000000  0.5049870000000 1.0
C      1  0.5475530000000  0.5070820000000  0.4950100000000 1.0
C      1  0.4833850000000  0.4668110000000  0.4798220000000 1.0
C      1  0.5166140000000  0.5331890000000  0.5201770000000 1.0
C      1  0.4774510000000  0.4879020000000  0.5206240000000 1.0
C      1  0.5225500000000  0.5120970000000  0.4793780000000 1.0
C      1  0.5617230000000  0.4818220000000  0.4892090000000 1.0
C      1  0.4382630000000  0.5181820000000  0.5107940000000 1.0
END
