TITL C-2441161-5029-443 0.0427241320146631 125000 -11625.8791728546 0 0 91 (C1) n - 1
REM
REM in /home/bkarasulu/work/CARBON/AIRSS/Generating-Clusters/ReaxFF-fromJPCA2015/Units_Real/with-SteepDescent/Higher-Symm
REM
REM
REM
REM
REM
REM ./C.cell (1df0a924f5614ab8850e4351716899ee)
REM
REM compiler GCC version 9.2.1 20190827 (Red Hat 9.2.1-1)
REM options -cpp -mtune=generic -march=x86-64 -g -O0 -fpre-include=/usr/include/finclude/math-vector-fortran.h
REM seed -380201099 -338036445 -545056406 234057112 -1332927887 862891698 1728240930 -170080376 -1202769907 236556480 -1584998099 2090572785 1012578415 174181040 -2028463393 588941870 -998743536 1864242385 -441802292 951088433 -301298835 -560719681 -157287609 1351836544 264285897 893988942 219833583 -239597920 1660688803 551619551 -2030167087 -1181705840 -705202067
REM
CELL 1.54180   50.00000   50.00000   50.00000   90.00000   90.00000   90.00000
LATT -1
SFAC C  
C      1  0.5601210000000  0.5613230000000  0.5175570000000 1.0
C      1  0.5603930000000  0.4396960000000  0.4824540000000 1.0
C      1  0.4375130000000  0.4662200000000  0.4856430000000 1.0
C      1  0.4385950000000  0.5314050000000  0.5048490000000 1.0
C      1  0.4663850000000  0.5642250000000  0.4511740000000 1.0
C      1  0.4674670000000  0.4373100000000  0.5478860000000 1.0
C      1  0.5442450000000  0.4793400000000  0.4458480000000 1.0
C      1  0.5447870000000  0.5204910000000  0.5534170000000 1.0
C      1  0.4821230000000  0.5099160000000  0.5720370000000 1.0
C      1  0.4781560000000  0.4893500000000  0.4263810000000 1.0
C      1  0.4281210000000  0.4582620000000  0.5359420000000 1.0
C      1  0.4264980000000  0.5396040000000  0.4656980000000 1.0
C      1  0.5192840000000  0.5636700000000  0.4822040000000 1.0
C      1  0.5192480000000  0.4356970000000  0.5172970000000 1.0
C      1  0.4267560000000  0.5121400000000  0.4787380000000 1.0
C      1  0.4190650000000  0.4804670000000  0.5202680000000 1.0
C      1  0.5477620000000  0.5048890000000  0.4296580000000 1.0
C      1  0.5483010000000  0.4942040000000  0.5687730000000 1.0
C      1  0.4509910000000  0.4822850000000  0.5635060000000 1.0
C      1  0.4496260000000  0.5225510000000  0.4359260000000 1.0
C      1  0.4542900000000  0.4773320000000  0.4395380000000 1.0
C      1  0.4619170000000  0.5296070000000  0.5643330000000 1.0
C      1  0.5276400000000  0.5217640000000  0.4985570000000 1.0
C      1  0.5298470000000  0.4774880000000  0.5008980000000 1.0
C      1  0.5698560000000  0.5378440000000  0.5052700000000 1.0
C      1  0.5704440000000  0.4623660000000  0.4950770000000 1.0
C      1  0.5366770000000  0.5109050000000  0.5259230000000 1.0
C      1  0.5388190000000  0.4874370000000  0.4754980000000 1.0
C      1  0.5008360000000  0.4494170000000  0.4355040000000 1.0
C      1  0.5027640000000  0.5500220000000  0.5689100000000 1.0
C      1  0.4596400000000  0.5426010000000  0.4696590000000 1.0
C      1  0.4596300000000  0.4568210000000  0.5284200000000 1.0
C      1  0.5160340000000  0.4477210000000  0.4765720000000 1.0
C      1  0.5154530000000  0.5512030000000  0.5236310000000 1.0
C      1  0.5184560000000  0.4885140000000  0.5378070000000 1.0
C      1  0.5313630000000  0.5173660000000  0.4708250000000 1.0
C      1  0.5162830000000  0.5717390000000  0.4550620000000 1.0
C      1  0.5157360000000  0.4271430000000  0.5437550000000 1.0
C      1  0.4767110000000  0.5110370000000  0.4713360000000 1.0
C      1  0.4665420000000  0.4897340000000  0.5148580000000 1.0
C      1  0.5627870000000  0.4618700000000  0.5372950000000 1.0
C      1  0.5598120000000  0.5345300000000  0.4621510000000 1.0
C      1  0.5794780000000  0.5132770000000  0.4670910000000 1.0
C      1  0.5785090000000  0.4853960000000  0.5316750000000 1.0
C      1  0.4566080000000  0.4521540000000  0.4522000000000 1.0
C      1  0.4656260000000  0.5560370000000  0.5518040000000 1.0
C      1  0.4951970000000  0.4639290000000  0.5677500000000 1.0
C      1  0.4950090000000  0.5346970000000  0.4306650000000 1.0
C      1  0.4519800000000  0.5567280000000  0.5058500000000 1.0
C      1  0.4524780000000  0.4405510000000  0.4908490000000 1.0
C      1  0.4908280000000  0.4283330000000  0.4506940000000 1.0
C      1  0.4914550000000  0.5716940000000  0.5562450000000 1.0
C      1  0.4687330000000  0.4311810000000  0.5184570000000 1.0
C      1  0.4693110000000  0.5691460000000  0.4794370000000 1.0
C      1  0.5551090000000  0.5564530000000  0.4882160000000 1.0
C      1  0.5555540000000  0.4438360000000  0.5126510000000 1.0
C      1  0.4596040000000  0.4856770000000  0.4865860000000 1.0
C      1  0.4439430000000  0.5108400000000  0.5239780000000 1.0
C      1  0.4909840000000  0.5062600000000  0.5122660000000 1.0
C      1  0.4978150000000  0.4958470000000  0.4861690000000 1.0
C      1  0.5248150000000  0.5047420000000  0.4146450000000 1.0
C      1  0.5270160000000  0.4929110000000  0.5857450000000 1.0
C      1  0.5153270000000  0.5760790000000  0.5384710000000 1.0
C      1  0.5179030000000  0.4225730000000  0.4614460000000 1.0
C      1  0.4922150000000  0.5334980000000  0.5219490000000 1.0
C      1  0.4953390000000  0.4673970000000  0.4790590000000 1.0
C      1  0.5046080000000  0.4847860000000  0.4128150000000 1.0
C      1  0.5072070000000  0.5127050000000  0.5886430000000 1.0
C      1  0.5198190000000  0.4490990000000  0.5626150000000 1.0
C      1  0.5195540000000  0.5495950000000  0.4362160000000 1.0
C      1  0.4385890000000  0.5015150000000  0.4493730000000 1.0
C      1  0.4431830000000  0.5089380000000  0.5547200000000 1.0
C      1  0.4710040000000  0.4440990000000  0.4715860000000 1.0
C      1  0.4700710000000  0.5518430000000  0.5251470000000 1.0
C      1  0.5448370000000  0.4650320000000  0.5616090000000 1.0
C      1  0.5445400000000  0.5340360000000  0.4358140000000 1.0
C      1  0.5676690000000  0.4920560000000  0.4873730000000 1.0
C      1  0.5659050000000  0.5071880000000  0.5132410000000 1.0
C      1  0.4945600000000  0.4894170000000  0.5539270000000 1.0
C      1  0.4890010000000  0.5092570000000  0.4442400000000 1.0
C      1  0.5245280000000  0.5322610000000  0.5717820000000 1.0
C      1  0.5221350000000  0.4664740000000  0.4310060000000 1.0
C      1  0.5131660000000  0.4663730000000  0.5193930000000 1.0
C      1  0.5089860000000  0.5345940000000  0.4813200000000 1.0
C      1  0.5395690000000  0.5582630000000  0.5391840000000 1.0
C      1  0.5404390000000  0.4424210000000  0.4609240000000 1.0
C      1  0.4967020000000  0.5791750000000  0.4746450000000 1.0
C      1  0.4962480000000  0.4207830000000  0.5234530000000 1.0
C      1  0.4657800000000  0.4577930000000  0.5687900000000 1.0
C      1  0.4670660000000  0.5444790000000  0.4298740000000 1.0
C      1  0.4172970000000  0.4873850000000  0.4930660000000 1.0
END
