TITL C-2441169-1362-241 -0.000268236804486761 125000 -6202.65450475594 0 0 42 (C1) n - 1
REM
REM in /home/bkarasulu/work/CARBON/AIRSS/Generating-Clusters/ReaxFF-fromJPCA2015/Units_Real/with-SteepDescent/Higher-Symm
REM
REM
REM
REM
REM
REM ./C.cell (1df0a924f5614ab8850e4351716899ee)
REM
REM compiler GCC version 9.2.1 20190827 (Red Hat 9.2.1-1)
REM options -cpp -mtune=generic -march=x86-64 -g -O0 -fpre-include=/usr/include/finclude/math-vector-fortran.h
REM seed -1145753730 -1979053284 2051624067 311999084 -249929998 1226116661 -1085999597 531163789 1407445334 -899256187 -78451212 -1898707251 298565584 -639603485 -1177134876 1852029045 432830305 862674920 802441731 879108532 -734607897 2075617302 1770603016 1404299939 945393112 -283604400 1362631562 -1184036659 1543697326 1902251659 -1892310094 906563390 1231069510
REM
CELL 1.54180   50.00000   50.00000   50.00000   90.00000   90.00000   90.00000
LATT -1
SFAC C  
C      1  0.4573740000000  0.4585640000000  0.4569610000000 1.0
C      1  0.5429200000000  0.5413020000000  0.4566770000000 1.0
C      1  0.5443730000000  0.4573670000000  0.5477040000000 1.0
C      1  0.4577000000000  0.5417780000000  0.5422250000000 1.0
C      1  0.4981430000000  0.4413770000000  0.5261690000000 1.0
C      1  0.4746050000000  0.5580760000000  0.4965280000000 1.0
C      1  0.5037190000000  0.4420370000000  0.4722780000000 1.0
C      1  0.5285150000000  0.5589260000000  0.5027100000000 1.0
C      1  0.5437270000000  0.5378480000000  0.4863600000000 1.0
C      1  0.5146250000000  0.4620650000000  0.5422340000000 1.0
C      1  0.4587140000000  0.5375180000000  0.5126070000000 1.0
C      1  0.4870360000000  0.4624990000000  0.4569320000000 1.0
C      1  0.4677110000000  0.4419100000000  0.5291670000000 1.0
C      1  0.4700180000000  0.5571950000000  0.4664660000000 1.0
C      1  0.5335170000000  0.4445650000000  0.4692120000000 1.0
C      1  0.5302300000000  0.5580290000000  0.5330910000000 1.0
C      1  0.4650030000000  0.4612520000000  0.5494220000000 1.0
C      1  0.4501190000000  0.5376840000000  0.4628990000000 1.0
C      1  0.5382660000000  0.4601770000000  0.4438730000000 1.0
C      1  0.5504320000000  0.5385510000000  0.5366540000000 1.0
C      1  0.4725880000000  0.4879320000000  0.5445560000000 1.0
C      1  0.4556240000000  0.5114190000000  0.4714390000000 1.0
C      1  0.5289020000000  0.4865200000000  0.4552240000000 1.0
C      1  0.5456500000000  0.5121520000000  0.5281330000000 1.0
C      1  0.4820680000000  0.5119910000000  0.4568930000000 1.0
C      1  0.5431790000000  0.4882540000000  0.4814430000000 1.0
C      1  0.5191970000000  0.5120530000000  0.5427100000000 1.0
C      1  0.4578440000000  0.4877200000000  0.5182660000000 1.0
C      1  0.5473610000000  0.4609420000000  0.4902430000000 1.0
C      1  0.5107420000000  0.5398690000000  0.5478800000000 1.0
C      1  0.4523770000000  0.4597980000000  0.5101280000000 1.0
C      1  0.4895780000000  0.5399680000000  0.4510790000000 1.0
C      1  0.4438070000000  0.4521020000000  0.4827070000000 1.0
C      1  0.5171000000000  0.5480830000000  0.4433940000000 1.0
C      1  0.5499270000000  0.4544810000000  0.5185660000000 1.0
C      1  0.4833540000000  0.5478610000000  0.5561960000000 1.0
C      1  0.4988700000000  0.4883720000000  0.4537950000000 1.0
C      1  0.5468150000000  0.5118440000000  0.4979500000000 1.0
C      1  0.5027410000000  0.4881580000000  0.5457600000000 1.0
C      1  0.4546520000000  0.5113100000000  0.5015470000000 1.0
C      1  0.5010720000000  0.4416190000000  0.4992010000000 1.0
C      1  0.5016050000000  0.5588290000000  0.5001780000000 1.0
END
