TITL C-2441160-1326-478 0.041666210584569 125000 -10514.4453357058 0 0 76 (C1) n - 1
REM
REM in /home/bkarasulu/work/CARBON/AIRSS/Generating-Clusters/ReaxFF-fromJPCA2015/Units_Real/with-SteepDescent/Higher-Symm
REM
REM
REM
REM
REM
REM ./C.cell (1df0a924f5614ab8850e4351716899ee)
REM
REM compiler GCC version 9.2.1 20190827 (Red Hat 9.2.1-1)
REM options -cpp -mtune=generic -march=x86-64 -g -O0 -fpre-include=/usr/include/finclude/math-vector-fortran.h
REM seed -772407209 1115950244 1505846340 1240504150 -822678447 -223921874 695797904 -455163367 1778511542 1161491516 -1417783490 -740335328 1246008868 -1461423009 2079550998 1273893097 1714940740 591433355 -1592019404 1969531289 1341443524 -123686727 1569669516 -1254966830 -1263936340 -1324142175 -64226606 -1234403707 -949241713 -1407625617 169421872 -1045329594 -629161462
REM
CELL 1.54180   50.00000   50.00000   50.00000   90.00000   90.00000   90.00000
LATT -1
SFAC C  
C      1  0.4904380000000  0.5102020000000  0.5816650000000 1.0
C      1  0.4913380000000  0.4221860000000  0.4679790000000 1.0
C      1  0.4910620000000  0.5666370000000  0.4475490000000 1.0
C      1  0.4909350000000  0.5109020000000  0.4168380000000 1.0
C      1  0.4909110000000  0.4207440000000  0.5322210000000 1.0
C      1  0.4907970000000  0.5658960000000  0.5505170000000 1.0
C      1  0.4411270000000  0.5001080000000  0.4706430000000 1.0
C      1  0.4407120000000  0.5251120000000  0.5144200000000 1.0
C      1  0.4410960000000  0.4744720000000  0.5142300000000 1.0
C      1  0.4406760000000  0.5001000000000  0.5289600000000 1.0
C      1  0.4404560000000  0.5249940000000  0.4849250000000 1.0
C      1  0.4411590000000  0.4743500000000  0.4856260000000 1.0
C      1  0.4760680000000  0.5554080000000  0.4841720000000 1.0
C      1  0.4790120000000  0.4835230000000  0.5525940000000 1.0
C      1  0.4778660000000  0.4602480000000  0.4608050000000 1.0
C      1  0.4770690000000  0.5575450000000  0.5126390000000 1.0
C      1  0.4787070000000  0.4851710000000  0.4462910000000 1.0
C      1  0.4764130000000  0.4582070000000  0.5392040000000 1.0
C      1  0.4686390000000  0.5237990000000  0.5690440000000 1.0
C      1  0.4685090000000  0.4263580000000  0.4858210000000 1.0
C      1  0.4683600000000  0.5484930000000  0.4436860000000 1.0
C      1  0.4685190000000  0.5241410000000  0.4296210000000 1.0
C      1  0.4681210000000  0.4260790000000  0.5144370000000 1.0
C      1  0.4685540000000  0.5483410000000  0.5554760000000 1.0
C      1  0.4444600000000  0.5400700000000  0.4591770000000 1.0
C      1  0.4447690000000  0.5146550000000  0.5546470000000 1.0
C      1  0.4451630000000  0.4445800000000  0.4853170000000 1.0
C      1  0.4447900000000  0.5402760000000  0.5398900000000 1.0
C      1  0.4449500000000  0.5145790000000  0.4447020000000 1.0
C      1  0.4447930000000  0.4446550000000  0.5145680000000 1.0
C      1  0.5717810000000  0.4996910000000  0.4710760000000 1.0
C      1  0.5721390000000  0.5252970000000  0.5142930000000 1.0
C      1  0.5713510000000  0.4739920000000  0.5140120000000 1.0
C      1  0.5720840000000  0.4997330000000  0.5284370000000 1.0
C      1  0.5719310000000  0.5254860000000  0.4847320000000 1.0
C      1  0.5707260000000  0.4742190000000  0.4858750000000 1.0
C      1  0.4927210000000  0.5326750000000  0.5136980000000 1.0
C      1  0.4930130000000  0.4676040000000  0.5143650000000 1.0
C      1  0.4913570000000  0.4978350000000  0.4700780000000 1.0
C      1  0.4906570000000  0.5250870000000  0.4846340000000 1.0
C      1  0.4893910000000  0.4739660000000  0.4852320000000 1.0
C      1  0.4941500000000  0.4932900000000  0.5284710000000 1.0
C      1  0.4924510000000  0.4825520000000  0.4207290000000 1.0
C      1  0.4927020000000  0.5791680000000  0.5248940000000 1.0
C      1  0.4921280000000  0.4389890000000  0.5545010000000 1.0
C      1  0.4922860000000  0.4817780000000  0.5783000000000 1.0
C      1  0.4923070000000  0.5770590000000  0.4744840000000 1.0
C      1  0.4928980000000  0.4402080000000  0.4458230000000 1.0
C      1  0.5197560000000  0.4731360000000  0.5744580000000 1.0
C      1  0.5198640000000  0.4490280000000  0.4399700000000 1.0
C      1  0.5193270000000  0.5770230000000  0.4855430000000 1.0
C      1  0.5196740000000  0.4736140000000  0.4252220000000 1.0
C      1  0.5193570000000  0.4484290000000  0.5599500000000 1.0
C      1  0.5196040000000  0.5776960000000  0.5141630000000 1.0
C      1  0.5467640000000  0.5402020000000  0.5136360000000 1.0
C      1  0.5484440000000  0.4669260000000  0.5287100000000 1.0
C      1  0.5466270000000  0.4916920000000  0.4578440000000 1.0
C      1  0.5475160000000  0.5404610000000  0.4856980000000 1.0
C      1  0.5474490000000  0.4673070000000  0.4720180000000 1.0
C      1  0.5469300000000  0.4918190000000  0.5416250000000 1.0
C      1  0.5354180000000  0.4968500000000  0.5674730000000 1.0
C      1  0.5358150000000  0.4430060000000  0.4639590000000 1.0
C      1  0.5357620000000  0.5595110000000  0.4686450000000 1.0
C      1  0.5354340000000  0.4971680000000  0.4319670000000 1.0
C      1  0.5354600000000  0.4435160000000  0.5360980000000 1.0
C      1  0.5353490000000  0.5597410000000  0.5310500000000 1.0
C      1  0.5172930000000  0.5549750000000  0.4484100000000 1.0
C      1  0.5167890000000  0.5163440000000  0.5719950000000 1.0
C      1  0.5175370000000  0.4277150000000  0.4778370000000 1.0
C      1  0.5171550000000  0.5550070000000  0.5511360000000 1.0
C      1  0.5169700000000  0.5167550000000  0.4273930000000 1.0
C      1  0.5143420000000  0.4351810000000  0.5196400000000 1.0
C      1  0.5285530000000  0.5367990000000  0.4359420000000 1.0
C      1  0.5280890000000  0.5364630000000  0.5633680000000 1.0
C      1  0.5278100000000  0.4269940000000  0.5001600000000 1.0
C      1  0.4815700000000  0.5087250000000  0.5086680000000 1.0
END
