TITL C-2441162-9305-461 0.0607674832628633 125000 -12719.7364555752 0 0 95 (C1) n - 1
REM
REM in /home/bkarasulu/work/CARBON/AIRSS/Generating-Clusters/ReaxFF-fromJPCA2015/Units_Real/with-SteepDescent/Higher-Symm
REM
REM
REM
REM
REM
REM ./C.cell (1df0a924f5614ab8850e4351716899ee)
REM
REM compiler GCC version 9.2.1 20190827 (Red Hat 9.2.1-1)
REM options -cpp -mtune=generic -march=x86-64 -g -O0 -fpre-include=/usr/include/finclude/math-vector-fortran.h
REM seed -878407109 1915703900 -160504025 326540447 -1978055984 1021677933 814340791 -224354355 435014452 -409071411 -1648952573 1760165652 463648691 -1603800184 1514541073 1077313355 772316016 904727515 -184271805 -655647658 1010215913 1514084327 -1003414289 180872975 -1711077187 -401611772 2043667641 402671082 -778732574 965216884 1119641214 196868246 466093497
REM
CELL 1.54180   50.00000   50.00000   50.00000   90.00000   90.00000   90.00000
LATT -1
SFAC C  
C      1  0.5243200000000  0.5041770000000  0.5254130000000 1.0
C      1  0.4779060000000  0.5013610000000  0.4738560000000 1.0
C      1  0.5214840000000  0.5330600000000  0.4241450000000 1.0
C      1  0.4780550000000  0.4679520000000  0.5761530000000 1.0
C      1  0.5567990000000  0.5420360000000  0.4994440000000 1.0
C      1  0.4390090000000  0.4566820000000  0.5022950000000 1.0
C      1  0.5768280000000  0.5391520000000  0.5231030000000 1.0
C      1  0.4233400000000  0.4626780000000  0.4773850000000 1.0
C      1  0.5319950000000  0.4450060000000  0.4529720000000 1.0
C      1  0.4667820000000  0.5557740000000  0.5478530000000 1.0
C      1  0.5098640000000  0.4900050000000  0.4345630000000 1.0
C      1  0.4918320000000  0.5119890000000  0.5655810000000 1.0
C      1  0.5180610000000  0.4619240000000  0.5079060000000 1.0
C      1  0.4846400000000  0.5404250000000  0.4933700000000 1.0
C      1  0.4769500000000  0.4269450000000  0.4912870000000 1.0
C      1  0.5225420000000  0.5755670000000  0.5093950000000 1.0
C      1  0.4897590000000  0.4460890000000  0.5633240000000 1.0
C      1  0.5100250000000  0.5562370000000  0.4361610000000 1.0
C      1  0.5129570000000  0.4471560000000  0.4305170000000 1.0
C      1  0.4861890000000  0.5557500000000  0.5690930000000 1.0
C      1  0.5050620000000  0.5734910000000  0.5315180000000 1.0
C      1  0.4942660000000  0.4264240000000  0.4689690000000 1.0
C      1  0.4745350000000  0.4832060000000  0.5267090000000 1.0
C      1  0.5253340000000  0.5189620000000  0.4764180000000 1.0
C      1  0.5571090000000  0.5548810000000  0.5379080000000 1.0
C      1  0.4428830000000  0.4472190000000  0.4622910000000 1.0
C      1  0.5125470000000  0.4780360000000  0.4861400000000 1.0
C      1  0.4886450000000  0.5224310000000  0.5152610000000 1.0
C      1  0.5140870000000  0.4172700000000  0.5209780000000 1.0
C      1  0.4851390000000  0.5829640000000  0.4795380000000 1.0
C      1  0.4771870000000  0.5705260000000  0.4568150000000 1.0
C      1  0.5219920000000  0.4293930000000  0.5438330000000 1.0
C      1  0.4872990000000  0.4420340000000  0.4453100000000 1.0
C      1  0.5143600000000  0.5607740000000  0.5577890000000 1.0
C      1  0.4344520000000  0.4994240000000  0.4514380000000 1.0
C      1  0.5647350000000  0.5018570000000  0.5520600000000 1.0
C      1  0.5666910000000  0.5373190000000  0.4728090000000 1.0
C      1  0.4309610000000  0.4630140000000  0.5299020000000 1.0
C      1  0.5528070000000  0.5546650000000  0.4546330000000 1.0
C      1  0.4467080000000  0.4459460000000  0.5466750000000 1.0
C      1  0.4213440000000  0.4906380000000  0.4754810000000 1.0
C      1  0.5773540000000  0.5107110000000  0.5270780000000 1.0
C      1  0.5479940000000  0.5328390000000  0.4363250000000 1.0
C      1  0.4510140000000  0.4675200000000  0.5656890000000 1.0
C      1  0.4727570000000  0.5085460000000  0.4248130000000 1.0
C      1  0.5254920000000  0.4921530000000  0.5767110000000 1.0
C      1  0.4634940000000  0.5253640000000  0.4809880000000 1.0
C      1  0.5406130000000  0.4817550000000  0.5151960000000 1.0
C      1  0.5401270000000  0.4684200000000  0.4680080000000 1.0
C      1  0.4592720000000  0.5321170000000  0.5325860000000 1.0
C      1  0.4397940000000  0.5590480000000  0.4955360000000 1.0
C      1  0.5596010000000  0.4420310000000  0.5066440000000 1.0
C      1  0.5314430000000  0.4334520000000  0.5001970000000 1.0
C      1  0.4682140000000  0.5682030000000  0.5016900000000 1.0
C      1  0.4396540000000  0.5392880000000  0.4746310000000 1.0
C      1  0.5586300000000  0.4617880000000  0.5270340000000 1.0
C      1  0.5260480000000  0.5655680000000  0.4590060000000 1.0
C      1  0.4737780000000  0.4366170000000  0.5409580000000 1.0
C      1  0.4573940000000  0.4872730000000  0.4383240000000 1.0
C      1  0.5412300000000  0.5148220000000  0.5649630000000 1.0
C      1  0.4791780000000  0.5562680000000  0.4344250000000 1.0
C      1  0.5199520000000  0.4448580000000  0.5656690000000 1.0
C      1  0.5841220000000  0.4798220000000  0.4868220000000 1.0
C      1  0.4220020000000  0.5173910000000  0.5051200000000 1.0
C      1  0.4642780000000  0.5114750000000  0.5703780000000 1.0
C      1  0.5352730000000  0.4822980000000  0.4294220000000 1.0
C      1  0.4359480000000  0.4963500000000  0.4982520000000 1.0
C      1  0.5690430000000  0.4952540000000  0.5027290000000 1.0
C      1  0.5487240000000  0.5672290000000  0.5127670000000 1.0
C      1  0.4505620000000  0.4338610000000  0.4871850000000 1.0
C      1  0.4774460000000  0.5726090000000  0.5283960000000 1.0
C      1  0.5224550000000  0.4273640000000  0.4726900000000 1.0
C      1  0.4599870000000  0.5330300000000  0.4308430000000 1.0
C      1  0.5388590000000  0.4684030000000  0.5699320000000 1.0
C      1  0.5627580000000  0.4727130000000  0.5534630000000 1.0
C      1  0.4371690000000  0.5279880000000  0.4479610000000 1.0
C      1  0.5139640000000  0.5778730000000  0.4822280000000 1.0
C      1  0.4856080000000  0.4240560000000  0.5179200000000 1.0
C      1  0.4614760000000  0.4801510000000  0.5017890000000 1.0
C      1  0.5289540000000  0.5236820000000  0.5043940000000 1.0
C      1  0.4331890000000  0.5403280000000  0.5165810000000 1.0
C      1  0.5664480000000  0.4579190000000  0.4834300000000 1.0
C      1  0.5016550000000  0.5114060000000  0.4190400000000 1.0
C      1  0.4960490000000  0.4898930000000  0.5814100000000 1.0
C      1  0.4446590000000  0.4859910000000  0.5429630000000 1.0
C      1  0.5538610000000  0.5144510000000  0.4591000000000 1.0
C      1  0.5011250000000  0.4704060000000  0.4186880000000 1.0
C      1  0.5055010000000  0.5362780000000  0.5762310000000 1.0
C      1  0.5011600000000  0.5154710000000  0.4630320000000 1.0
C      1  0.5014880000000  0.4887880000000  0.5343850000000 1.0
C      1  0.4641580000000  0.4602300000000  0.4467190000000 1.0
C      1  0.5355570000000  0.5388010000000  0.5491230000000 1.0
C      1  0.5527330000000  0.4864740000000  0.4504210000000 1.0
C      1  0.4455640000000  0.5143630000000  0.5508250000000 1.0
C      1  0.4951590000000  0.4988040000000  0.4973710000000 1.0
END
