TITL C-2441156-4686-1154 0.00918932883181349 125000 -15124.2899581508 0 0 102 (C1) n - 1
REM
REM in /home/bkarasulu/work/CARBON/AIRSS/Generating-Clusters/ReaxFF-fromJPCA2015/Units_Real/with-SteepDescent/Higher-Symm
REM
REM
REM
REM
REM
REM ./C.cell (1df0a924f5614ab8850e4351716899ee)
REM
REM compiler GCC version 9.2.1 20190827 (Red Hat 9.2.1-1)
REM options -cpp -mtune=generic -march=x86-64 -g -O0 -fpre-include=/usr/include/finclude/math-vector-fortran.h
REM seed -45145623 915639810 -113046718 -827049109 481864597 -1347449648 1892583886 -1361744290 -846443701 -1404888055 -1609786569 540192607 -2054097430 1956524264 795264435 1418432463 641227941 273670363 1077922329 -2112670226 -1432996668 649826130 -791777145 1920163819 2128163837 980912087 372726583 1486206013 933790363 -1295748285 1349407136 -809892988 -1515574584
REM
CELL 1.54180   50.00000   50.00000   50.00000   90.00000   90.00000   90.00000
LATT -1
SFAC C  
C      1  0.5281870000000  0.4740950000000  0.4177150000000 1.0
C      1  0.5369730000000  0.5571890000000  0.4335010000000 1.0
C      1  0.5302770000000  0.5776090000000  0.5170500000000 1.0
C      1  0.5280540000000  0.5259320000000  0.5821430000000 1.0
C      1  0.5371560000000  0.4425740000000  0.5669580000000 1.0
C      1  0.5311990000000  0.4205960000000  0.4823420000000 1.0
C      1  0.4636670000000  0.5142730000000  0.4233410000000 1.0
C      1  0.4704940000000  0.4396440000000  0.4423050000000 1.0
C      1  0.4836970000000  0.4314060000000  0.5222120000000 1.0
C      1  0.4638480000000  0.4856630000000  0.5766640000000 1.0
C      1  0.4706460000000  0.5624230000000  0.5593930000000 1.0
C      1  0.4827110000000  0.5684910000000  0.4787980000000 1.0
C      1  0.5386560000000  0.5626920000000  0.5556440000000 1.0
C      1  0.5483100000000  0.4827970000000  0.5860360000000 1.0
C      1  0.5467870000000  0.4103820000000  0.5300520000000 1.0
C      1  0.5390560000000  0.4372150000000  0.4443630000000 1.0
C      1  0.5481210000000  0.5172770000000  0.4138360000000 1.0
C      1  0.5464730000000  0.5896480000000  0.4702430000000 1.0
C      1  0.4596820000000  0.4304710000000  0.5597610000000 1.0
C      1  0.4537780000000  0.5248370000000  0.5917120000000 1.0
C      1  0.4548290000000  0.5862240000000  0.5224200000000 1.0
C      1  0.4599770000000  0.5705220000000  0.4395200000000 1.0
C      1  0.4534980000000  0.4747690000000  0.4086240000000 1.0
C      1  0.4549250000000  0.4150730000000  0.4796390000000 1.0
C      1  0.4882430000000  0.5528450000000  0.4397230000000 1.0
C      1  0.4835410000000  0.5912400000000  0.5152810000000 1.0
C      1  0.4824720000000  0.5325030000000  0.5870850000000 1.0
C      1  0.4884550000000  0.4473580000000  0.5601240000000 1.0
C      1  0.4833020000000  0.4086640000000  0.4849400000000 1.0
C      1  0.4825260000000  0.4674810000000  0.4126950000000 1.0
C      1  0.5219590000000  0.4457370000000  0.4244210000000 1.0
C      1  0.5268370000000  0.4075220000000  0.5083300000000 1.0
C      1  0.5239160000000  0.4658090000000  0.5784050000000 1.0
C      1  0.5219100000000  0.5545670000000  0.5760460000000 1.0
C      1  0.5263260000000  0.5922840000000  0.4918530000000 1.0
C      1  0.5237320000000  0.5340700000000  0.4218600000000 1.0
C      1  0.5182050000000  0.5245150000000  0.5118430000000 1.0
C      1  0.5269550000000  0.5025440000000  0.5301140000000 1.0
C      1  0.5249650000000  0.4716210000000  0.5173650000000 1.0
C      1  0.5213010000000  0.4746430000000  0.4878890000000 1.0
C      1  0.5269030000000  0.4974730000000  0.4695540000000 1.0
C      1  0.5239190000000  0.5282530000000  0.4827630000000 1.0
C      1  0.4720690000000  0.4749990000000  0.5166110000000 1.0
C      1  0.4791710000000  0.5019930000000  0.5298910000000 1.0
C      1  0.4705540000000  0.5266160000000  0.5164430000000 1.0
C      1  0.4709520000000  0.5250150000000  0.4819640000000 1.0
C      1  0.4787390000000  0.4975360000000  0.4696800000000 1.0
C      1  0.4765850000000  0.4739870000000  0.4851250000000 1.0
C      1  0.5568330000000  0.4882440000000  0.4558280000000 1.0
C      1  0.5511080000000  0.5402860000000  0.4783080000000 1.0
C      1  0.5669250000000  0.5390800000000  0.5331720000000 1.0
C      1  0.5566840000000  0.5118160000000  0.5439530000000 1.0
C      1  0.5520370000000  0.4595800000000  0.5223080000000 1.0
C      1  0.5669080000000  0.4609520000000  0.4669600000000 1.0
C      1  0.4285140000000  0.4869500000000  0.4507090000000 1.0
C      1  0.4304130000000  0.4621230000000  0.4657450000000 1.0
C      1  0.4448080000000  0.4619340000000  0.5239770000000 1.0
C      1  0.4304800000000  0.5133020000000  0.5493680000000 1.0
C      1  0.4407400000000  0.5351210000000  0.5304530000000 1.0
C      1  0.4450120000000  0.5378650000000  0.4736200000000 1.0
C      1  0.5542200000000  0.4338610000000  0.4672190000000 1.0
C      1  0.5518440000000  0.4906200000000  0.4247320000000 1.0
C      1  0.5511470000000  0.5622930000000  0.4585110000000 1.0
C      1  0.5537210000000  0.5659150000000  0.5326800000000 1.0
C      1  0.5517470000000  0.5094510000000  0.5750980000000 1.0
C      1  0.5516370000000  0.4375640000000  0.5420770000000 1.0
C      1  0.4534280000000  0.5656640000000  0.4666520000000 1.0
C      1  0.4416100000000  0.4969990000000  0.4247190000000 1.0
C      1  0.4494690000000  0.4380920000000  0.4607200000000 1.0
C      1  0.4536810000000  0.4347990000000  0.5324130000000 1.0
C      1  0.4414160000000  0.5028480000000  0.5752140000000 1.0
C      1  0.4495240000000  0.5639820000000  0.5415870000000 1.0
C      1  0.5798190000000  0.5008170000000  0.4712650000000 1.0
C      1  0.5757880000000  0.5259070000000  0.4855570000000 1.0
C      1  0.5837050000000  0.5247720000000  0.5142130000000 1.0
C      1  0.5799510000000  0.4992930000000  0.5287330000000 1.0
C      1  0.5765060000000  0.4740400000000  0.5146370000000 1.0
C      1  0.5837110000000  0.4753320000000  0.4857700000000 1.0
C      1  0.4123820000000  0.4993240000000  0.4720270000000 1.0
C      1  0.4137050000000  0.4735430000000  0.4874880000000 1.0
C      1  0.4199880000000  0.4747390000000  0.5163610000000 1.0
C      1  0.4146090000000  0.5019600000000  0.5278490000000 1.0
C      1  0.4177020000000  0.5268060000000  0.5120230000000 1.0
C      1  0.4199820000000  0.5259200000000  0.4829370000000 1.0
C      1  0.4961400000000  0.5924360000000  0.4884310000000 1.0
C      1  0.4911340000000  0.5592040000000  0.5771950000000 1.0
C      1  0.4840560000000  0.4701380000000  0.5779040000000 1.0
C      1  0.4965570000000  0.4076670000000  0.5116240000000 1.0
C      1  0.4909570000000  0.4414550000000  0.4241720000000 1.0
C      1  0.4838600000000  0.5299460000000  0.4222000000000 1.0
C      1  0.5038590000000  0.4280200000000  0.4749210000000 1.0
C      1  0.5113190000000  0.4401970000000  0.5761100000000 1.0
C      1  0.5028700000000  0.5135270000000  0.5750270000000 1.0
C      1  0.5028540000000  0.5700690000000  0.5246110000000 1.0
C      1  0.5112590000000  0.5598080000000  0.4239530000000 1.0
C      1  0.5028700000000  0.4866220000000  0.4246560000000 1.0
C      1  0.4958370000000  0.4566610000000  0.5284050000000 1.0
C      1  0.4964700000000  0.5413390000000  0.5221770000000 1.0
C      1  0.4996130000000  0.4574570000000  0.4779560000000 1.0
C      1  0.4945890000000  0.5429590000000  0.4717710000000 1.0
C      1  0.5023560000000  0.5028530000000  0.5478000000000 1.0
C      1  0.5023590000000  0.4967690000000  0.4519270000000 1.0
END
