TITL C-2441169-1362-368 0.00110181256901062 125000 -3180.69689056754 0 0 24 (C1) n - 1
REM
REM in /home/bkarasulu/work/CARBON/AIRSS/Generating-Clusters/ReaxFF-fromJPCA2015/Units_Real/with-SteepDescent/Higher-Symm
REM
REM
REM
REM
REM
REM ./C.cell (1df0a924f5614ab8850e4351716899ee)
REM
REM compiler GCC version 9.2.1 20190827 (Red Hat 9.2.1-1)
REM options -cpp -mtune=generic -march=x86-64 -g -O0 -fpre-include=/usr/include/finclude/math-vector-fortran.h
REM seed -440314280 -344987714 -1605268528 1081391621 -1038729569 549836437 1331337050 -1757336355 -1909144436 -1295254452 1100444294 2057513385 624888234 1308984285 -1571284204 -1265668679 749421866 1688339185 -57008234 1935695538 -1231606918 -491904047 2019133470 647874742 363428506 -913336980 -436979535 -496595406 -465469356 -1045762674 1112542757 1669868593 1259727817
REM
CELL 1.54180   50.00000   50.00000   50.00000   90.00000   90.00000   90.00000
LATT -1
SFAC C  
C      1  0.5288530000000  0.4556520000000  0.4697020000000 1.0
C      1  0.4746490000000  0.4805720000000  0.5087180000000 1.0
C      1  0.5016790000000  0.4613170000000  0.4628480000000 1.0
C      1  0.5065820000000  0.5260970000000  0.4979610000000 1.0
C      1  0.4800180000000  0.4693460000000  0.4615570000000 1.0
C      1  0.4975430000000  0.4822710000000  0.5269690000000 1.0
C      1  0.5199780000000  0.4593790000000  0.5213920000000 1.0
C      1  0.4814660000000  0.5414280000000  0.4557070000000 1.0
C      1  0.5624090000000  0.5115870000000  0.5087780000000 1.0
C      1  0.4397900000000  0.5033220000000  0.5332500000000 1.0
C      1  0.4956440000000  0.5157100000000  0.4736210000000 1.0
C      1  0.5203950000000  0.4350830000000  0.5290470000000 1.0
C      1  0.5481630000000  0.4725500000000  0.4810330000000 1.0
C      1  0.4821640000000  0.5607110000000  0.4745410000000 1.0
C      1  0.5371720000000  0.4530710000000  0.4964840000000 1.0
C      1  0.4565630000000  0.5276390000000  0.5368580000000 1.0
C      1  0.4871650000000  0.5678270000000  0.4981540000000 1.0
C      1  0.4472720000000  0.4769260000000  0.5216740000000 1.0
C      1  0.4999240000000  0.5069430000000  0.5424710000000 1.0
C      1  0.5477500000000  0.5026690000000  0.4878600000000 1.0
C      1  0.5237220000000  0.5197060000000  0.4788650000000 1.0
C      1  0.4855890000000  0.5330120000000  0.5371690000000 1.0
C      1  0.4980120000000  0.5473880000000  0.5144230000000 1.0
C      1  0.4775000000000  0.4897920000000  0.4809200000000 1.0
END
