TITL C-2441154-10-1375 0.11144329625675 125000 -22261.0683000046 0 0 166 (C1) n - 1
REM
REM in /home/bkarasulu/work/CARBON/AIRSS/Generating-Clusters/ReaxFF-fromJPCA2015/Units_Real/with-SteepDescent/Higher-Symm
REM
REM
REM
REM
REM
REM ./C.cell (1df0a924f5614ab8850e4351716899ee)
REM
REM compiler GCC version 9.2.1 20190827 (Red Hat 9.2.1-1)
REM options -cpp -mtune=generic -march=x86-64 -g -O0 -fpre-include=/usr/include/finclude/math-vector-fortran.h
REM seed 1963896682 -1473254472 -1185872558 25372265 -1816618641 -368747052 1220458029 526882126 1323427097 19302607 1629896209 -620923484 -1085875829 517773072 2005607161 -181209628 1425374758 789063829 -1564384880 -1761236782 -1983335009 -1733402080 1657391894 -338853061 -1321961806 -41635991 -40662634 1976376774 321491947 -518228138 -1424786930 431139368 -951150355
REM
CELL 1.54180   50.00000   50.00000   50.00000   90.00000   90.00000   90.00000
LATT -1
SFAC C  
C      1  0.4155260000000  0.4549280000000  0.4586410000000 1.0
C      1  0.5867650000000  0.4622160000000  0.5411160000000 1.0
C      1  0.4134850000000  0.5455700000000  0.5368100000000 1.0
C      1  0.5814150000000  0.5329480000000  0.4616130000000 1.0
C      1  0.5664840000000  0.4860980000000  0.4234550000000 1.0
C      1  0.4380370000000  0.4305320000000  0.5107730000000 1.0
C      1  0.5669760000000  0.5162610000000  0.5764550000000 1.0
C      1  0.4330220000000  0.5761240000000  0.4858270000000 1.0
C      1  0.5181670000000  0.4821890000000  0.4383440000000 1.0
C      1  0.4862060000000  0.4399670000000  0.5168860000000 1.0
C      1  0.5231330000000  0.5112430000000  0.5541470000000 1.0
C      1  0.4783880000000  0.5535440000000  0.4794760000000 1.0
C      1  0.4519980000000  0.4291940000000  0.4398250000000 1.0
C      1  0.5481310000000  0.4420060000000  0.5646470000000 1.0
C      1  0.4534700000000  0.5618090000000  0.5583210000000 1.0
C      1  0.5475430000000  0.5585790000000  0.4326630000000 1.0
C      1  0.5017600000000  0.4272080000000  0.4389050000000 1.0
C      1  0.4977130000000  0.4382370000000  0.5730280000000 1.0
C      1  0.5043130000000  0.5711020000000  0.5619730000000 1.0
C      1  0.4948000000000  0.5626690000000  0.4276170000000 1.0
C      1  0.6001620000000  0.5165750000000  0.4873590000000 1.0
C      1  0.4103930000000  0.4886920000000  0.4941550000000 1.0
C      1  0.5918800000000  0.4864960000000  0.5251830000000 1.0
C      1  0.4096530000000  0.5289090000000  0.5131340000000 1.0
C      1  0.5165240000000  0.4750370000000  0.5906270000000 1.0
C      1  0.4838550000000  0.5821880000000  0.5240690000000 1.0
C      1  0.5166720000000  0.5236680000000  0.4176720000000 1.0
C      1  0.4799470000000  0.4030970000000  0.4712090000000 1.0
C      1  0.5464160000000  0.5826060000000  0.4498570000000 1.0
C      1  0.4516450000000  0.4470600000000  0.4163210000000 1.0
C      1  0.5461270000000  0.4202300000000  0.5454220000000 1.0
C      1  0.4528570000000  0.5417850000000  0.5796390000000 1.0
C      1  0.4934300000000  0.5125390000000  0.6078820000000 1.0
C      1  0.5073040000000  0.6060230000000  0.4875180000000 1.0
C      1  0.4913540000000  0.4923220000000  0.3950500000000 1.0
C      1  0.5042740000000  0.3937440000000  0.5120850000000 1.0
C      1  0.5403520000000  0.5450910000000  0.5253000000000 1.0
C      1  0.4578960000000  0.5270060000000  0.4466750000000 1.0
C      1  0.5365880000000  0.4560600000000  0.4712110000000 1.0
C      1  0.4635080000000  0.4827860000000  0.5435220000000 1.0
C      1  0.5994260000000  0.5228070000000  0.5382660000000 1.0
C      1  0.4013450000000  0.5346890000000  0.4851290000000 1.0
C      1  0.5988120000000  0.4838040000000  0.4646250000000 1.0
C      1  0.4027800000000  0.4603220000000  0.5236020000000 1.0
C      1  0.5018090000000  0.5180120000000  0.4479300000000 1.0
C      1  0.5050990000000  0.4496380000000  0.4968520000000 1.0
C      1  0.5034870000000  0.4924520000000  0.5655000000000 1.0
C      1  0.4880790000000  0.5537130000000  0.5065540000000 1.0
C      1  0.5609260000000  0.4327070000000  0.4438610000000 1.0
C      1  0.4376430000000  0.4453170000000  0.5644450000000 1.0
C      1  0.5640640000000  0.5608020000000  0.5599310000000 1.0
C      1  0.4405280000000  0.5636570000000  0.4390460000000 1.0
C      1  0.4365100000000  0.4172590000000  0.4849990000000 1.0
C      1  0.5604600000000  0.4883780000000  0.5801940000000 1.0
C      1  0.4392720000000  0.5818490000000  0.5128290000000 1.0
C      1  0.5645790000000  0.5143980000000  0.4173360000000 1.0
C      1  0.4781220000000  0.4609470000000  0.4130580000000 1.0
C      1  0.5202360000000  0.4098210000000  0.5349530000000 1.0
C      1  0.4799370000000  0.5359460000000  0.5919500000000 1.0
C      1  0.5206690000000  0.5933390000000  0.4620520000000 1.0
C      1  0.5992340000000  0.4891860000000  0.4923630000000 1.0
C      1  0.4059490000000  0.4890080000000  0.5237180000000 1.0
C      1  0.5956110000000  0.5303920000000  0.5112810000000 1.0
C      1  0.4070460000000  0.5089480000000  0.4732500000000 1.0
C      1  0.5054710000000  0.3944950000000  0.4834500000000 1.0
C      1  0.4899770000000  0.4836890000000  0.6070360000000 1.0
C      1  0.5085250000000  0.6005490000000  0.5156460000000 1.0
C      1  0.4973910000000  0.5192470000000  0.3975370000000 1.0
C      1  0.5227150000000  0.4749500000000  0.5311450000000 1.0
C      1  0.4611180000000  0.5299780000000  0.5267660000000 1.0
C      1  0.5353920000000  0.5250870000000  0.4672600000000 1.0
C      1  0.4549360000000  0.4624750000000  0.4803800000000 1.0
C      1  0.4975630000000  0.4150780000000  0.5564890000000 1.0
C      1  0.5024930000000  0.5562620000000  0.5865150000000 1.0
C      1  0.4968360000000  0.5843510000000  0.4463150000000 1.0
C      1  0.5020620000000  0.4427860000000  0.4151770000000 1.0
C      1  0.5008870000000  0.5442630000000  0.4627520000000 1.0
C      1  0.4991840000000  0.4684200000000  0.4546270000000 1.0
C      1  0.5018600000000  0.4550990000000  0.5376980000000 1.0
C      1  0.5052500000000  0.5311700000000  0.5483320000000 1.0
C      1  0.4178500000000  0.4761570000000  0.4398500000000 1.0
C      1  0.5709900000000  0.4520250000000  0.5164450000000 1.0
C      1  0.4192020000000  0.5246860000000  0.5548240000000 1.0
C      1  0.5799420000000  0.5573330000000  0.4766140000000 1.0
C      1  0.5200800000000  0.4847560000000  0.4073460000000 1.0
C      1  0.4775430000000  0.4053690000000  0.5158550000000 1.0
C      1  0.5215300000000  0.5155740000000  0.6044310000000 1.0
C      1  0.4785840000000  0.6043590000000  0.4862260000000 1.0
C      1  0.5266690000000  0.5421980000000  0.5926900000000 1.0
C      1  0.4733160000000  0.5933510000000  0.4604680000000 1.0
C      1  0.5280610000000  0.4541950000000  0.4074650000000 1.0
C      1  0.4711710000000  0.4081470000000  0.5464340000000 1.0
C      1  0.5604170000000  0.5112580000000  0.4687180000000 1.0
C      1  0.4264760000000  0.4664430000000  0.4828670000000 1.0
C      1  0.5648220000000  0.4950290000000  0.5315580000000 1.0
C      1  0.4384160000000  0.5245010000000  0.5087660000000 1.0
C      1  0.4599740000000  0.4027850000000  0.4905400000000 1.0
C      1  0.5375660000000  0.4920350000000  0.5969730000000 1.0
C      1  0.4638130000000  0.5960240000000  0.5097410000000 1.0
C      1  0.5391440000000  0.5079670000000  0.4044700000000 1.0
C      1  0.5535460000000  0.5826130000000  0.5394810000000 1.0
C      1  0.4492870000000  0.5293220000000  0.4075450000000 1.0
C      1  0.5539380000000  0.4133310000000  0.4667350000000 1.0
C      1  0.4430320000000  0.4683720000000  0.5856070000000 1.0
C      1  0.4667930000000  0.4814230000000  0.4327500000000 1.0
C      1  0.5281790000000  0.4272530000000  0.5082100000000 1.0
C      1  0.4840560000000  0.5175410000000  0.5645130000000 1.0
C      1  0.5361240000000  0.5734500000000  0.4884660000000 1.0
C      1  0.5482870000000  0.5185270000000  0.5390680000000 1.0
C      1  0.4590640000000  0.5333100000000  0.4732110000000 1.0
C      1  0.5416090000000  0.4789230000000  0.4554030000000 1.0
C      1  0.4594960000000  0.4517750000000  0.5075030000000 1.0
C      1  0.4638260000000  0.4801390000000  0.5154130000000 1.0
C      1  0.5350460000000  0.5204500000000  0.5089490000000 1.0
C      1  0.4704890000000  0.5094500000000  0.4834930000000 1.0
C      1  0.5315670000000  0.4838850000000  0.4826670000000 1.0
C      1  0.4163510000000  0.4346540000000  0.5275750000000 1.0
C      1  0.5905640000000  0.5229410000000  0.5642310000000 1.0
C      1  0.4105340000000  0.5607120000000  0.4773870000000 1.0
C      1  0.5841360000000  0.4744420000000  0.4417110000000 1.0
C      1  0.5729970000000  0.5744270000000  0.5212690000000 1.0
C      1  0.4353670000000  0.5189650000000  0.4314380000000 1.0
C      1  0.5714140000000  0.4187520000000  0.4889690000000 1.0
C      1  0.4276990000000  0.4919230000000  0.5768440000000 1.0
C      1  0.5502700000000  0.4494710000000  0.4235920000000 1.0
C      1  0.4487110000000  0.4247360000000  0.5494390000000 1.0
C      1  0.5514910000000  0.5412970000000  0.5773310000000 1.0
C      1  0.4470590000000  0.5819550000000  0.4612290000000 1.0
C      1  0.5102410000000  0.4980060000000  0.5156610000000 1.0
C      1  0.4853830000000  0.5251090000000  0.5100410000000 1.0
C      1  0.5144270000000  0.5065720000000  0.4706270000000 1.0
C      1  0.4946550000000  0.4777930000000  0.5019980000000 1.0
C      1  0.5236950000000  0.4475540000000  0.5803770000000 1.0
C      1  0.4777510000000  0.5765000000000  0.5525300000000 1.0
C      1  0.5210160000000  0.5523620000000  0.4216770000000 1.0
C      1  0.4769320000000  0.4175170000000  0.4477350000000 1.0
C      1  0.4667280000000  0.4749700000000  0.5966840000000 1.0
C      1  0.5337780000000  0.5878750000000  0.5165180000000 1.0
C      1  0.4713920000000  0.5144000000000  0.3960790000000 1.0
C      1  0.5304550000000  0.4099720000000  0.4842840000000 1.0
C      1  0.4402930000000  0.4729450000000  0.4242260000000 1.0
C      1  0.5561440000000  0.4266340000000  0.5182390000000 1.0
C      1  0.4327900000000  0.5211040000000  0.5797200000000 1.0
C      1  0.5610740000000  0.5768160000000  0.4735000000000 1.0
C      1  0.4645150000000  0.5477000000000  0.4261700000000 1.0
C      1  0.5115290000000  0.4425840000000  0.4629100000000 1.0
C      1  0.4853820000000  0.4691800000000  0.5571610000000 1.0
C      1  0.5177910000000  0.5557100000000  0.5399380000000 1.0
C      1  0.5499050000000  0.4733810000000  0.5203210000000 1.0
C      1  0.4612460000000  0.5102030000000  0.5480820000000 1.0
C      1  0.5249950000000  0.5486200000000  0.4776560000000 1.0
C      1  0.4725090000000  0.4794320000000  0.4631510000000 1.0
C      1  0.5842200000000  0.4436020000000  0.4877320000000 1.0
C      1  0.4148160000000  0.4973110000000  0.5509170000000 1.0
C      1  0.5870260000000  0.5568730000000  0.5035420000000 1.0
C      1  0.4146950000000  0.5034960000000  0.4455390000000 1.0
C      1  0.5679320000000  0.4640850000000  0.5640100000000 1.0
C      1  0.4333880000000  0.5661740000000  0.5373400000000 1.0
C      1  0.5683790000000  0.5382640000000  0.4346000000000 1.0
C      1  0.4310410000000  0.4302080000000  0.4594130000000 1.0
C      1  0.4192410000000  0.5527820000000  0.4528030000000 1.0
C      1  0.5813450000000  0.4470180000000  0.4589890000000 1.0
C      1  0.4145470000000  0.4521010000000  0.5488960000000 1.0
C      1  0.5888750000000  0.5478850000000  0.5529340000000 1.0
C      1  0.4500140000000  0.5002350000000  0.5000290000000 1.0
C      1  0.5519050000000  0.5014160000000  0.4941210000000 1.0
END
