TITL C-2441155-8282-143 0.00652972230530629 125000 -16515.8622137583 0 0 110 (C1) n - 1
REM
REM in /home/bkarasulu/work/CARBON/AIRSS/Generating-Clusters/ReaxFF-fromJPCA2015/Units_Real/with-SteepDescent/Higher-Symm
REM
REM
REM
REM
REM
REM ./C.cell (1df0a924f5614ab8850e4351716899ee)
REM
REM compiler GCC version 9.2.1 20190827 (Red Hat 9.2.1-1)
REM options -cpp -mtune=generic -march=x86-64 -g -O0 -fpre-include=/usr/include/finclude/math-vector-fortran.h
REM seed 1706828867 -1048862078 -220941101 -1474553508 2128372268 1353313123 1329255758 -236691163 -966270475 -1508443233 1237177397 -1122147454 1378587228 -1471081619 -1212895526 -1597687815 -702680594 2059456401 -2008512813 -914658263 790707756 -1646159168 -2035674771 -115109509 -1231508034 -1091156809 -143603305 1991166998 -1517600856 749471205 1534284992 681866372 1492427315
REM
CELL 1.54180   50.00000   50.00000   50.00000   90.00000   90.00000   90.00000
LATT -1
SFAC C  
C      1  0.4176520000000  0.5541780000000  0.4983590000000 1.0
C      1  0.4434880000000  0.5580000000000  0.5357880000000 1.0
C      1  0.4631970000000  0.5561690000000  0.5811390000000 1.0
C      1  0.4928720000000  0.5551590000000  0.5828810000000 1.0
C      1  0.5432330000000  0.5565890000000  0.5610660000000 1.0
C      1  0.5671440000000  0.5619390000000  0.5163220000000 1.0
C      1  0.5806600000000  0.5486070000000  0.4706100000000 1.0
C      1  0.5548210000000  0.5575070000000  0.4387980000000 1.0
C      1  0.5280630000000  0.5587840000000  0.4260240000000 1.0
C      1  0.4763160000000  0.5565230000000  0.4251730000000 1.0
C      1  0.4375880000000  0.5611550000000  0.4557810000000 1.0
C      1  0.5838530000000  0.5075300000000  0.5334620000000 1.0
C      1  0.5937930000000  0.5006540000000  0.4821890000000 1.0
C      1  0.5684170000000  0.5052590000000  0.4385140000000 1.0
C      1  0.5233010000000  0.5040970000000  0.4115300000000 1.0
C      1  0.4697230000000  0.5040470000000  0.4099540000000 1.0
C      1  0.4288120000000  0.5058210000000  0.4433830000000 1.0
C      1  0.4075090000000  0.5025600000000  0.4916040000000 1.0
C      1  0.4186270000000  0.5049630000000  0.5419650000000 1.0
C      1  0.4517820000000  0.5020210000000  0.5832670000000 1.0
C      1  0.5040130000000  0.5021390000000  0.5943220000000 1.0
C      1  0.5527830000000  0.5036940000000  0.5759080000000 1.0
C      1  0.5244230000000  0.4915020000000  0.5326000000000 1.0
C      1  0.5409340000000  0.4737680000000  0.5178390000000 1.0
C      1  0.5455220000000  0.4728260000000  0.4907880000000 1.0
C      1  0.5306520000000  0.4872210000000  0.4719190000000 1.0
C      1  0.5120010000000  0.4743500000000  0.4553270000000 1.0
C      1  0.4872340000000  0.4883310000000  0.4580920000000 1.0
C      1  0.4661180000000  0.4741580000000  0.4709540000000 1.0
C      1  0.4594450000000  0.4923530000000  0.4924150000000 1.0
C      1  0.4597730000000  0.4888390000000  0.5197220000000 1.0
C      1  0.4767370000000  0.4727730000000  0.5369660000000 1.0
C      1  0.4994150000000  0.4900370000000  0.5432530000000 1.0
C      1  0.5443680000000  0.5694360000000  0.4640880000000 1.0
C      1  0.5182360000000  0.5749480000000  0.4495110000000 1.0
C      1  0.4897590000000  0.5693520000000  0.4499870000000 1.0
C      1  0.4615580000000  0.5737660000000  0.4436720000000 1.0
C      1  0.4304200000000  0.5715820000000  0.4824420000000 1.0
C      1  0.4369920000000  0.5708970000000  0.5110550000000 1.0
C      1  0.4647770000000  0.5681890000000  0.5542200000000 1.0
C      1  0.4950650000000  0.5709970000000  0.5580620000000 1.0
C      1  0.5212160000000  0.5676450000000  0.5448290000000 1.0
C      1  0.5498240000000  0.5729760000000  0.5376010000000 1.0
C      1  0.5630830000000  0.5663830000000  0.4867550000000 1.0
C      1  0.5356050000000  0.4286190000000  0.4634840000000 1.0
C      1  0.5073840000000  0.4260320000000  0.4631310000000 1.0
C      1  0.4821920000000  0.4291270000000  0.4501640000000 1.0
C      1  0.4680380000000  0.4276570000000  0.4745810000000 1.0
C      1  0.4487190000000  0.4305950000000  0.4944140000000 1.0
C      1  0.4544950000000  0.4302330000000  0.5250460000000 1.0
C      1  0.4797770000000  0.4284080000000  0.5365180000000 1.0
C      1  0.5035880000000  0.4304580000000  0.5518060000000 1.0
C      1  0.5324360000000  0.4310370000000  0.5434560000000 1.0
C      1  0.5447090000000  0.4285770000000  0.5177610000000 1.0
C      1  0.5364470000000  0.4259670000000  0.4917290000000 1.0
C      1  0.5283830000000  0.4606420000000  0.5816700000000 1.0
C      1  0.5687720000000  0.4638970000000  0.5536790000000 1.0
C      1  0.5857260000000  0.4633860000000  0.5079780000000 1.0
C      1  0.5764840000000  0.4603430000000  0.4597900000000 1.0
C      1  0.5440760000000  0.4627110000000  0.4254130000000 1.0
C      1  0.4964010000000  0.4626200000000  0.4141100000000 1.0
C      1  0.4505060000000  0.4633590000000  0.4288580000000 1.0
C      1  0.4211560000000  0.4631020000000  0.4672720000000 1.0
C      1  0.4161590000000  0.4606630000000  0.5163070000000 1.0
C      1  0.4370240000000  0.4625480000000  0.5601430000000 1.0
C      1  0.4793610000000  0.4619920000000  0.5828610000000 1.0
C      1  0.4143830000000  0.4913550000000  0.4652360000000 1.0
C      1  0.4098780000000  0.4895950000000  0.5181170000000 1.0
C      1  0.4313290000000  0.4908470000000  0.5646680000000 1.0
C      1  0.4774950000000  0.4895260000000  0.5919810000000 1.0
C      1  0.5300530000000  0.4891800000000  0.5881500000000 1.0
C      1  0.5723500000000  0.4923960000000  0.5567470000000 1.0
C      1  0.5931320000000  0.4911960000000  0.5102740000000 1.0
C      1  0.5839270000000  0.4887740000000  0.4569670000000 1.0
C      1  0.5480050000000  0.4916480000000  0.4212520000000 1.0
C      1  0.4965460000000  0.4912460000000  0.4073320000000 1.0
C      1  0.4461610000000  0.4919610000000  0.4239340000000 1.0
C      1  0.5547550000000  0.4471210000000  0.4466990000000 1.0
C      1  0.5174000000000  0.4600790000000  0.4322510000000 1.0
C      1  0.4748910000000  0.4486880000000  0.4265130000000 1.0
C      1  0.4463870000000  0.4608100000000  0.4562080000000 1.0
C      1  0.4246490000000  0.4479920000000  0.4916470000000 1.0
C      1  0.4324920000000  0.4473990000000  0.5361020000000 1.0
C      1  0.4647290000000  0.4604830000000  0.5595610000000 1.0
C      1  0.5033230000000  0.4478080000000  0.5759840000000 1.0
C      1  0.5465880000000  0.4482770000000  0.5625430000000 1.0
C      1  0.5645710000000  0.4555600000000  0.5264980000000 1.0
C      1  0.5696620000000  0.4598900000000  0.4860330000000 1.0
C      1  0.4637530000000  0.5310640000000  0.4654430000000 1.0
C      1  0.4504190000000  0.5189150000000  0.4864680000000 1.0
C      1  0.4554170000000  0.5163950000000  0.5271760000000 1.0
C      1  0.4686580000000  0.5261640000000  0.5488850000000 1.0
C      1  0.4943720000000  0.5166950000000  0.5540360000000 1.0
C      1  0.5322610000000  0.5167170000000  0.5374270000000 1.0
C      1  0.5477190000000  0.5269440000000  0.5191490000000 1.0
C      1  0.5513800000000  0.5244270000000  0.4921080000000 1.0
C      1  0.5321270000000  0.5145500000000  0.4724530000000 1.0
C      1  0.5152660000000  0.5295150000000  0.4537770000000 1.0
C      1  0.4871230000000  0.5172780000000  0.4536580000000 1.0
C      1  0.4777760000000  0.5280390000000  0.4237240000000 1.0
C      1  0.4398630000000  0.5326050000000  0.4493380000000 1.0
C      1  0.4232150000000  0.5271330000000  0.4917710000000 1.0
C      1  0.4315910000000  0.5305620000000  0.5339500000000 1.0
C      1  0.4526770000000  0.5296250000000  0.5740770000000 1.0
C      1  0.5031530000000  0.5275780000000  0.5796580000000 1.0
C      1  0.5421290000000  0.5273590000000  0.5622110000000 1.0
C      1  0.5741070000000  0.5355940000000  0.5293680000000 1.0
C      1  0.5804070000000  0.5255680000000  0.4883240000000 1.0
C      1  0.5697480000000  0.5337490000000  0.4464010000000 1.0
C      1  0.5214900000000  0.5299940000000  0.4255960000000 1.0
END
