TITL C-2441169-1362-902 0.0732929670084904 125000 -26674.8440100692 0 0 195 (C1) n - 1
REM
REM in /home/bkarasulu/work/CARBON/AIRSS/Generating-Clusters/ReaxFF-fromJPCA2015/Units_Real/with-SteepDescent/Higher-Symm
REM
REM
REM
REM
REM
REM ./C.cell (1df0a924f5614ab8850e4351716899ee)
REM
REM compiler GCC version 9.2.1 20190827 (Red Hat 9.2.1-1)
REM options -cpp -mtune=generic -march=x86-64 -g -O0 -fpre-include=/usr/include/finclude/math-vector-fortran.h
REM seed 1026531687 -746265576 -781557141 510733102 715280152 -1744960917 -1424733912 -999122496 -976461727 1679574155 -2110786566 1515607284 1560035522 -1595825178 248012758 -583856081 1128424070 263079551 673735869 280901333 -1199976528 -840789009 1507976755 1357150760 155774314 -1873670786 -618187579 258388880 -221834171 539112477 1036388331 -1766452221 -595918657
REM
CELL 1.54180   50.00000   50.00000   50.00000   90.00000   90.00000   90.00000
LATT -1
SFAC C  
C      1  0.5131150000000  0.6150220000000  0.4767260000000 1.0
C      1  0.5092990000000  0.5799080000000  0.4168710000000 1.0
C      1  0.5091930000000  0.5209670000000  0.3873380000000 1.0
C      1  0.5074010000000  0.4585660000000  0.3934840000000 1.0
C      1  0.5084130000000  0.4085430000000  0.4304770000000 1.0
C      1  0.5095230000000  0.3830040000000  0.4896410000000 1.0
C      1  0.5083950000000  0.4051010000000  0.5548350000000 1.0
C      1  0.5111240000000  0.4455710000000  0.5996000000000 1.0
C      1  0.5080120000000  0.5067510000000  0.6159560000000 1.0
C      1  0.5066290000000  0.5708110000000  0.5934420000000 1.0
C      1  0.5129840000000  0.6071540000000  0.5409710000000 1.0
C      1  0.4913510000000  0.4866110000000  0.5821140000000 1.0
C      1  0.4883020000000  0.5354280000000  0.5831010000000 1.0
C      1  0.4916490000000  0.5722440000000  0.5489680000000 1.0
C      1  0.4899340000000  0.5857260000000  0.5032710000000 1.0
C      1  0.4900970000000  0.5845000000000  0.4529410000000 1.0
C      1  0.4853720000000  0.5367270000000  0.4217040000000 1.0
C      1  0.4875570000000  0.4867420000000  0.4166030000000 1.0
C      1  0.4843700000000  0.4454470000000  0.4351450000000 1.0
C      1  0.4883540000000  0.4166730000000  0.4718570000000 1.0
C      1  0.4884560000000  0.4084650000000  0.5190880000000 1.0
C      1  0.4847650000000  0.4502650000000  0.5627190000000 1.0
C      1  0.5103040000000  0.5293580000000  0.5980380000000 1.0
C      1  0.5151580000000  0.5756710000000  0.5662780000000 1.0
C      1  0.5180430000000  0.5902680000000  0.5159480000000 1.0
C      1  0.5160210000000  0.5982120000000  0.4535520000000 1.0
C      1  0.5105960000000  0.5511190000000  0.4153740000000 1.0
C      1  0.5130720000000  0.4981460000000  0.4057040000000 1.0
C      1  0.5117330000000  0.4493120000000  0.4222280000000 1.0
C      1  0.5144040000000  0.4150900000000  0.4601900000000 1.0
C      1  0.5141290000000  0.3957030000000  0.5150570000000 1.0
C      1  0.5102870000000  0.4340430000000  0.5598770000000 1.0
C      1  0.5149020000000  0.4743560000000  0.5925360000000 1.0
C      1  0.5830470000000  0.4420630000000  0.5035130000000 1.0
C      1  0.5941640000000  0.4595300000000  0.5497660000000 1.0
C      1  0.5905410000000  0.4891730000000  0.5578140000000 1.0
C      1  0.5863150000000  0.5181190000000  0.5449150000000 1.0
C      1  0.5959790000000  0.5421700000000  0.5299960000000 1.0
C      1  0.5881290000000  0.5577090000000  0.5025990000000 1.0
C      1  0.5843250000000  0.5507560000000  0.4739610000000 1.0
C      1  0.5875540000000  0.5258000000000  0.4422350000000 1.0
C      1  0.5879400000000  0.4978450000000  0.4371060000000 1.0
C      1  0.5852100000000  0.4665890000000  0.4518050000000 1.0
C      1  0.5864550000000  0.4430720000000  0.4742910000000 1.0
C      1  0.5311320000000  0.4390110000000  0.5800230000000 1.0
C      1  0.5318890000000  0.4926420000000  0.6073570000000 1.0
C      1  0.5278770000000  0.5517950000000  0.5963860000000 1.0
C      1  0.5346910000000  0.5937470000000  0.5538060000000 1.0
C      1  0.5340810000000  0.6037250000000  0.4921240000000 1.0
C      1  0.5329570000000  0.5860160000000  0.4327800000000 1.0
C      1  0.5310980000000  0.5362060000000  0.3987800000000 1.0
C      1  0.5308140000000  0.4760490000000  0.3965820000000 1.0
C      1  0.5305040000000  0.4247650000000  0.4237390000000 1.0
C      1  0.5319100000000  0.3950050000000  0.4769380000000 1.0
C      1  0.5319400000000  0.4023380000000  0.5376320000000 1.0
C      1  0.4521640000000  0.4788600000000  0.3924130000000 1.0
C      1  0.4569280000000  0.4263760000000  0.4123860000000 1.0
C      1  0.4550760000000  0.3890230000000  0.4684750000000 1.0
C      1  0.4537540000000  0.3948170000000  0.5347390000000 1.0
C      1  0.4595570000000  0.4254440000000  0.5829370000000 1.0
C      1  0.4543930000000  0.4858660000000  0.6114170000000 1.0
C      1  0.4518790000000  0.5500700000000  0.5984120000000 1.0
C      1  0.4601630000000  0.5942250000000  0.5614080000000 1.0
C      1  0.4606420000000  0.6137680000000  0.5018840000000 1.0
C      1  0.4561550000000  0.5957790000000  0.4366220000000 1.0
C      1  0.4569990000000  0.5470940000000  0.3953660000000 1.0
C      1  0.4324920000000  0.4999540000000  0.5966830000000 1.0
C      1  0.4323290000000  0.5461870000000  0.5760560000000 1.0
C      1  0.4298030000000  0.5819220000000  0.5365650000000 1.0
C      1  0.4299830000000  0.5889350000000  0.4878860000000 1.0
C      1  0.4282530000000  0.5681420000000  0.4404820000000 1.0
C      1  0.4307040000000  0.5242280000000  0.4174980000000 1.0
C      1  0.4294580000000  0.4741010000000  0.4110110000000 1.0
C      1  0.4322220000000  0.4359960000000  0.4448840000000 1.0
C      1  0.4349560000000  0.3998560000000  0.4839920000000 1.0
C      1  0.4303100000000  0.4186360000000  0.5337790000000 1.0
C      1  0.4280250000000  0.4507950000000  0.5739910000000 1.0
C      1  0.4445840000000  0.5252200000000  0.5900000000000 1.0
C      1  0.4393940000000  0.5750710000000  0.5620280000000 1.0
C      1  0.4381420000000  0.6008190000000  0.5130700000000 1.0
C      1  0.4423630000000  0.5855110000000  0.4596630000000 1.0
C      1  0.4365710000000  0.5520980000000  0.4143620000000 1.0
C      1  0.4468920000000  0.4988950000000  0.4118710000000 1.0
C      1  0.4354660000000  0.4441070000000  0.4166420000000 1.0
C      1  0.4383270000000  0.4105250000000  0.4585900000000 1.0
C      1  0.4438690000000  0.4071730000000  0.5106830000000 1.0
C      1  0.4386550000000  0.4257810000000  0.5636310000000 1.0
C      1  0.4407410000000  0.4723800000000  0.5900120000000 1.0
C      1  0.4889520000000  0.5289300000000  0.5572110000000 1.0
C      1  0.4869060000000  0.5472490000000  0.5352020000000 1.0
C      1  0.4965460000000  0.5612320000000  0.4906880000000 1.0
C      1  0.4911500000000  0.5574650000000  0.4646780000000 1.0
C      1  0.5002620000000  0.5090780000000  0.4570270000000 1.0
C      1  0.5074400000000  0.4841290000000  0.4640770000000 1.0
C      1  0.4929420000000  0.4618300000000  0.4716200000000 1.0
C      1  0.4819610000000  0.4401260000000  0.4856620000000 1.0
C      1  0.4904560000000  0.4376420000000  0.5145410000000 1.0
C      1  0.5079030000000  0.4908860000000  0.5367380000000 1.0
C      1  0.4855550000000  0.4994210000000  0.5561730000000 1.0
C      1  0.5248820000000  0.5095150000000  0.5505940000000 1.0
C      1  0.5198620000000  0.5357800000000  0.5591450000000 1.0
C      1  0.5220490000000  0.5580650000000  0.5251910000000 1.0
C      1  0.5181200000000  0.5471830000000  0.5001530000000 1.0
C      1  0.5175630000000  0.5482030000000  0.4578280000000 1.0
C      1  0.5215350000000  0.5239880000000  0.4461610000000 1.0
C      1  0.5254610000000  0.4682620000000  0.4486980000000 1.0
C      1  0.5238230000000  0.4441740000000  0.4667170000000 1.0
C      1  0.5319430000000  0.4491600000000  0.4938600000000 1.0
C      1  0.5172090000000  0.4480810000000  0.5170310000000 1.0
C      1  0.5234550000000  0.4667880000000  0.5367000000000 1.0
C      1  0.4172370000000  0.4423740000000  0.5140590000000 1.0
C      1  0.4184390000000  0.4656680000000  0.5502380000000 1.0
C      1  0.4137410000000  0.4917530000000  0.5621070000000 1.0
C      1  0.4231080000000  0.5192600000000  0.5532590000000 1.0
C      1  0.4161280000000  0.5603590000000  0.5245090000000 1.0
C      1  0.4141760000000  0.5666140000000  0.4980970000000 1.0
C      1  0.4216490000000  0.5459490000000  0.4581960000000 1.0
C      1  0.4190690000000  0.5213400000000  0.4432780000000 1.0
C      1  0.4177350000000  0.4814390000000  0.4423820000000 1.0
C      1  0.4220670000000  0.4588500000000  0.4603130000000 1.0
C      1  0.4294660000000  0.4541590000000  0.4904800000000 1.0
C      1  0.4835170000000  0.6004430000000  0.5461620000000 1.0
C      1  0.4844470000000  0.6100310000000  0.4873610000000 1.0
C      1  0.4807940000000  0.5863290000000  0.4252170000000 1.0
C      1  0.4803580000000  0.5305800000000  0.3936820000000 1.0
C      1  0.4800730000000  0.4720820000000  0.3931570000000 1.0
C      1  0.4801370000000  0.4171810000000  0.4262320000000 1.0
C      1  0.4821120000000  0.3901920000000  0.4795230000000 1.0
C      1  0.4800860000000  0.4005130000000  0.5455790000000 1.0
C      1  0.4816930000000  0.4414540000000  0.5905800000000 1.0
C      1  0.4821870000000  0.4936920000000  0.6077960000000 1.0
C      1  0.4785690000000  0.5603050000000  0.5934680000000 1.0
C      1  0.4699880000000  0.4641190000000  0.4531020000000 1.0
C      1  0.4582200000000  0.4572150000000  0.4906470000000 1.0
C      1  0.4670040000000  0.4558080000000  0.5182060000000 1.0
C      1  0.4653170000000  0.4653840000000  0.5442710000000 1.0
C      1  0.4606320000000  0.4936950000000  0.5452530000000 1.0
C      1  0.4448040000000  0.5142720000000  0.5312710000000 1.0
C      1  0.4624600000000  0.5388070000000  0.5196380000000 1.0
C      1  0.4638780000000  0.5391970000000  0.4942060000000 1.0
C      1  0.4652540000000  0.5395540000000  0.4693340000000 1.0
C      1  0.4744220000000  0.5196170000000  0.4474710000000 1.0
C      1  0.4668980000000  0.4906030000000  0.4379300000000 1.0
C      1  0.5482880000000  0.5523220000000  0.5337870000000 1.0
C      1  0.5367280000000  0.5484080000000  0.4782010000000 1.0
C      1  0.5607610000000  0.5315940000000  0.4724690000000 1.0
C      1  0.5474850000000  0.5139440000000  0.4516560000000 1.0
C      1  0.5478840000000  0.4863100000000  0.4517270000000 1.0
C      1  0.5662220000000  0.4780260000000  0.4709740000000 1.0
C      1  0.5530830000000  0.4673880000000  0.4941390000000 1.0
C      1  0.5694220000000  0.4646280000000  0.5176190000000 1.0
C      1  0.5512740000000  0.4722960000000  0.5426290000000 1.0
C      1  0.5494330000000  0.5015460000000  0.5564200000000 1.0
C      1  0.5592340000000  0.5297400000000  0.5511940000000 1.0
C      1  0.3827640000000  0.4732450000000  0.4661660000000 1.0
C      1  0.3833720000000  0.4616680000000  0.4879330000000 1.0
C      1  0.3890580000000  0.4495910000000  0.5127350000000 1.0
C      1  0.3925000000000  0.4663530000000  0.5373320000000 1.0
C      1  0.3885460000000  0.4941260000000  0.5467310000000 1.0
C      1  0.3962110000000  0.5219800000000  0.5409970000000 1.0
C      1  0.3922420000000  0.5445700000000  0.5241270000000 1.0
C      1  0.3894080000000  0.5511550000000  0.4956080000000 1.0
C      1  0.3953910000000  0.5406670000000  0.4694200000000 1.0
C      1  0.3908160000000  0.5201750000000  0.4495330000000 1.0
C      1  0.3903700000000  0.4910100000000  0.4458280000000 1.0
C      1  0.5532030000000  0.5453510000000  0.5811870000000 1.0
C      1  0.5600510000000  0.5789140000000  0.5375380000000 1.0
C      1  0.5600250000000  0.5928930000000  0.4848540000000 1.0
C      1  0.5582480000000  0.5711660000000  0.4376290000000 1.0
C      1  0.5571660000000  0.5270030000000  0.4096660000000 1.0
C      1  0.5575170000000  0.4734810000000  0.4092560000000 1.0
C      1  0.5572040000000  0.4295360000000  0.4363130000000 1.0
C      1  0.5575290000000  0.4057390000000  0.4843450000000 1.0
C      1  0.5583360000000  0.4164610000000  0.5365320000000 1.0
C      1  0.5574660000000  0.4533580000000  0.5714810000000 1.0
C      1  0.5560600000000  0.5005950000000  0.5905120000000 1.0
C      1  0.5704600000000  0.4994790000000  0.4142630000000 1.0
C      1  0.5688760000000  0.4546400000000  0.4289920000000 1.0
C      1  0.5690640000000  0.4227600000000  0.4632670000000 1.0
C      1  0.5688620000000  0.4169420000000  0.5098880000000 1.0
C      1  0.5737320000000  0.4366830000000  0.5536610000000 1.0
C      1  0.5737740000000  0.4795270000000  0.5798380000000 1.0
C      1  0.5708000000000  0.5294420000000  0.5964960000000 1.0
C      1  0.5891470000000  0.5664240000000  0.5445820000000 1.0
C      1  0.5729260000000  0.5812820000000  0.5080480000000 1.0
C      1  0.5709340000000  0.5752450000000  0.4627950000000 1.0
C      1  0.5703750000000  0.5447290000000  0.4277810000000 1.0
C      1  0.5594750000000  0.5059450000000  0.5041530000000 1.0
C      1  0.4802050000000  0.4990050000000  0.4976330000000 1.0
C      1  0.4545110000000  0.4974040000000  0.4946600000000 1.0
C      1  0.5858220000000  0.5028600000000  0.5011270000000 1.0
C      1  0.5333960000000  0.5043840000000  0.5019830000000 1.0
C      1  0.5061870000000  0.5011590000000  0.5071950000000 1.0
C      1  0.4291840000000  0.5018070000000  0.5034890000000 1.0
C      1  0.6100310000000  0.4998960000000  0.4983790000000 1.0
END
