TITL C-2441156-4686-1469 0.199060537878843 125000 -21467.3492799039 0 0 177 (C1) n - 1
REM
REM in /home/bkarasulu/work/CARBON/AIRSS/Generating-Clusters/ReaxFF-fromJPCA2015/Units_Real/with-SteepDescent/Higher-Symm
REM
REM
REM
REM
REM
REM ./C.cell (1df0a924f5614ab8850e4351716899ee)
REM
REM compiler GCC version 9.2.1 20190827 (Red Hat 9.2.1-1)
REM options -cpp -mtune=generic -march=x86-64 -g -O0 -fpre-include=/usr/include/finclude/math-vector-fortran.h
REM seed -335801066 564083528 -199005437 557861598 739261861 2004196891 1463360031 -1922357148 -1979736609 -682726296 -1213851699 -2103429439 1702179558 -2125451988 805694232 -253666985 -313327006 -1003444333 1835454038 -644808261 -284387804 -77590632 21469603 677225540 -1088582819 -248695765 1716941184 1086227789 792356375 -1767049863 -1369937818 -662321781 -988723059
REM
CELL 1.54180   50.00000   50.00000   50.00000   90.00000   90.00000   90.00000
LATT -1
SFAC C  
C      1  0.4876900000000  0.5627880000000  0.4137520000000 1.0
C      1  0.5131050000000  0.5595540000000  0.5898390000000 1.0
C      1  0.4860150000000  0.4386260000000  0.4140180000000 1.0
C      1  0.5129460000000  0.4383810000000  0.5851370000000 1.0
C      1  0.4824190000000  0.5148650000000  0.4049630000000 1.0
C      1  0.5202400000000  0.5129650000000  0.5952300000000 1.0
C      1  0.4799330000000  0.4855920000000  0.4030900000000 1.0
C      1  0.5244800000000  0.4870370000000  0.5837190000000 1.0
C      1  0.5387510000000  0.5796070000000  0.4382610000000 1.0
C      1  0.4628100000000  0.5786310000000  0.5615030000000 1.0
C      1  0.5421430000000  0.4229260000000  0.4391280000000 1.0
C      1  0.4617600000000  0.4220610000000  0.5581350000000 1.0
C      1  0.4257540000000  0.5511680000000  0.5678600000000 1.0
C      1  0.5767050000000  0.5520440000000  0.4309660000000 1.0
C      1  0.4237950000000  0.4507740000000  0.5672410000000 1.0
C      1  0.5742090000000  0.4484200000000  0.4344020000000 1.0
C      1  0.4790550000000  0.6048120000000  0.5340430000000 1.0
C      1  0.5210020000000  0.6038600000000  0.4659470000000 1.0
C      1  0.4823550000000  0.3931780000000  0.5352910000000 1.0
C      1  0.5164250000000  0.3953500000000  0.4623250000000 1.0
C      1  0.3886320000000  0.4876920000000  0.5171630000000 1.0
C      1  0.6104520000000  0.4874090000000  0.4789360000000 1.0
C      1  0.3902780000000  0.5148600000000  0.5206630000000 1.0
C      1  0.6091080000000  0.5146790000000  0.4809460000000 1.0
C      1  0.5159300000000  0.4825550000000  0.4496180000000 1.0
C      1  0.4870370000000  0.4820580000000  0.5494930000000 1.0
C      1  0.5151130000000  0.5126250000000  0.4417310000000 1.0
C      1  0.4743330000000  0.5065660000000  0.5606900000000 1.0
C      1  0.4699210000000  0.5138610000000  0.4733480000000 1.0
C      1  0.5279230000000  0.5095630000000  0.5227080000000 1.0
C      1  0.4689220000000  0.4854020000000  0.4725490000000 1.0
C      1  0.5307590000000  0.4782160000000  0.5304930000000 1.0
C      1  0.4749930000000  0.5477850000000  0.5050240000000 1.0
C      1  0.5252010000000  0.5475070000000  0.5027760000000 1.0
C      1  0.4746690000000  0.4574360000000  0.5016680000000 1.0
C      1  0.5181300000000  0.4545630000000  0.4934210000000 1.0
C      1  0.4991960000000  0.4475500000000  0.4574540000000 1.0
C      1  0.4924090000000  0.4455970000000  0.5373550000000 1.0
C      1  0.5041550000000  0.5475410000000  0.4606730000000 1.0
C      1  0.5014380000000  0.5422290000000  0.5412600000000 1.0
C      1  0.4134060000000  0.5560370000000  0.4598970000000 1.0
C      1  0.5876250000000  0.5484760000000  0.5420280000000 1.0
C      1  0.4144930000000  0.4482230000000  0.4598040000000 1.0
C      1  0.5900310000000  0.4425450000000  0.5408160000000 1.0
C      1  0.4895080000000  0.5271320000000  0.5190450000000 1.0
C      1  0.5163940000000  0.5276370000000  0.4802730000000 1.0
C      1  0.4837040000000  0.4823650000000  0.5190430000000 1.0
C      1  0.5212390000000  0.4789670000000  0.4786080000000 1.0
C      1  0.5113390000000  0.5142120000000  0.4114260000000 1.0
C      1  0.4916500000000  0.5136210000000  0.5893530000000 1.0
C      1  0.5074140000000  0.4822970000000  0.3998580000000 1.0
C      1  0.4796530000000  0.4842350000000  0.5965430000000 1.0
C      1  0.5595160000000  0.4626760000000  0.4122500000000 1.0
C      1  0.4374950000000  0.4608510000000  0.5911360000000 1.0
C      1  0.5628760000000  0.5391850000000  0.4084040000000 1.0
C      1  0.4394940000000  0.5373710000000  0.5891320000000 1.0
C      1  0.4961010000000  0.6073270000000  0.4792760000000 1.0
C      1  0.4916040000000  0.5981930000000  0.5074310000000 1.0
C      1  0.5065200000000  0.4023600000000  0.4894040000000 1.0
C      1  0.5058300000000  0.3943900000000  0.5202280000000 1.0
C      1  0.5324610000000  0.5384380000000  0.5893320000000 1.0
C      1  0.4696330000000  0.5401860000000  0.4119660000000 1.0
C      1  0.5310110000000  0.4596160000000  0.5912180000000 1.0
C      1  0.4681940000000  0.4607940000000  0.4141210000000 1.0
C      1  0.5614450000000  0.5128520000000  0.4224720000000 1.0
C      1  0.4470730000000  0.5108310000000  0.5739030000000 1.0
C      1  0.5496480000000  0.4863680000000  0.4267850000000 1.0
C      1  0.4525220000000  0.4859770000000  0.5904880000000 1.0
C      1  0.5515270000000  0.5550410000000  0.4443730000000 1.0
C      1  0.4503460000000  0.5540480000000  0.5528350000000 1.0
C      1  0.5516340000000  0.4463690000000  0.4520920000000 1.0
C      1  0.4475190000000  0.4459300000000  0.5509660000000 1.0
C      1  0.5202530000000  0.5217450000000  0.5496500000000 1.0
C      1  0.4858880000000  0.5132870000000  0.4482750000000 1.0
C      1  0.5152880000000  0.4900850000000  0.5561940000000 1.0
C      1  0.4857910000000  0.4831630000000  0.4493200000000 1.0
C      1  0.5194560000000  0.4277790000000  0.4868740000000 1.0
C      1  0.4770850000000  0.4312850000000  0.5179020000000 1.0
C      1  0.5370390000000  0.5660610000000  0.4903220000000 1.0
C      1  0.4731170000000  0.5760020000000  0.5072120000000 1.0
C      1  0.5108920000000  0.5463640000000  0.4045880000000 1.0
C      1  0.4890750000000  0.5439830000000  0.5943530000000 1.0
C      1  0.5107380000000  0.4543550000000  0.4064800000000 1.0
C      1  0.4885170000000  0.4558880000000  0.5935840000000 1.0
C      1  0.5423840000000  0.5163480000000  0.4725880000000 1.0
C      1  0.4645600000000  0.5162000000000  0.5341990000000 1.0
C      1  0.5485110000000  0.4876660000000  0.4754130000000 1.0
C      1  0.4573250000000  0.4920090000000  0.5209620000000 1.0
C      1  0.5128240000000  0.5618940000000  0.5244150000000 1.0
C      1  0.4796610000000  0.5535460000000  0.4742830000000 1.0
C      1  0.5180040000000  0.4508900000000  0.5229780000000 1.0
C      1  0.4830990000000  0.4417550000000  0.4801420000000 1.0
C      1  0.5484930000000  0.5976230000000  0.4600900000000 1.0
C      1  0.4521570000000  0.5925210000000  0.5390330000000 1.0
C      1  0.5445320000000  0.4027910000000  0.4601100000000 1.0
C      1  0.4560080000000  0.4035110000000  0.5381730000000 1.0
C      1  0.4070750000000  0.5324790000000  0.5068100000000 1.0
C      1  0.5926830000000  0.5303950000000  0.4982770000000 1.0
C      1  0.4055690000000  0.4728340000000  0.4996420000000 1.0
C      1  0.5949110000000  0.4741940000000  0.4998220000000 1.0
C      1  0.4612940000000  0.5536950000000  0.6007340000000 1.0
C      1  0.5380180000000  0.5542930000000  0.3986620000000 1.0
C      1  0.4616220000000  0.4448520000000  0.6002120000000 1.0
C      1  0.5388600000000  0.4451150000000  0.4001590000000 1.0
C      1  0.4485080000000  0.4625510000000  0.4341510000000 1.0
C      1  0.5522740000000  0.4602840000000  0.5684340000000 1.0
C      1  0.4490250000000  0.5387770000000  0.4336190000000 1.0
C      1  0.5462780000000  0.5369990000000  0.5642840000000 1.0
C      1  0.5641680000000  0.5116420000000  0.5533690000000 1.0
C      1  0.4355240000000  0.5136910000000  0.4434430000000 1.0
C      1  0.5587410000000  0.4876210000000  0.5603480000000 1.0
C      1  0.4354030000000  0.4859050000000  0.4442520000000 1.0
C      1  0.5557520000000  0.4703910000000  0.5197170000000 1.0
C      1  0.4517940000000  0.4681090000000  0.4868460000000 1.0
C      1  0.5469160000000  0.5313630000000  0.5146670000000 1.0
C      1  0.4464440000000  0.5292260000000  0.4829940000000 1.0
C      1  0.5232600000000  0.4050120000000  0.5419190000000 1.0
C      1  0.4778990000000  0.4052680000000  0.4557730000000 1.0
C      1  0.5299800000000  0.5931680000000  0.5529500000000 1.0
C      1  0.4790600000000  0.5975480000000  0.4562300000000 1.0
C      1  0.4044260000000  0.4636900000000  0.5478460000000 1.0
C      1  0.5903050000000  0.4646560000000  0.4529990000000 1.0
C      1  0.4083960000000  0.5384670000000  0.5478640000000 1.0
C      1  0.5931120000000  0.5375480000000  0.4510840000000 1.0
C      1  0.4357170000000  0.4872330000000  0.5027900000000 1.0
C      1  0.5660990000000  0.4888240000000  0.5001740000000 1.0
C      1  0.4285050000000  0.5154260000000  0.4958470000000 1.0
C      1  0.5621000000000  0.5186940000000  0.4958220000000 1.0
C      1  0.5627500000000  0.5577110000000  0.5534640000000 1.0
C      1  0.4342100000000  0.5607150000000  0.4422140000000 1.0
C      1  0.5710210000000  0.4416000000000  0.5611260000000 1.0
C      1  0.4375180000000  0.4400040000000  0.4471610000000 1.0
C      1  0.5893570000000  0.4531240000000  0.4796850000000 1.0
C      1  0.4103210000000  0.4527830000000  0.5200570000000 1.0
C      1  0.5895000000000  0.5503540000000  0.4774800000000 1.0
C      1  0.4122490000000  0.5562710000000  0.5245070000000 1.0
C      1  0.5577600000000  0.4194900000000  0.5106780000000 1.0
C      1  0.4416290000000  0.4160810000000  0.4902760000000 1.0
C      1  0.5549540000000  0.5831890000000  0.5062020000000 1.0
C      1  0.4456800000000  0.5810190000000  0.4933790000000 1.0
C      1  0.5123810000000  0.5762320000000  0.4470470000000 1.0
C      1  0.4897470000000  0.5871540000000  0.5556180000000 1.0
C      1  0.5120710000000  0.4232490000000  0.4435760000000 1.0
C      1  0.4891060000000  0.4198790000000  0.5530820000000 1.0
C      1  0.4897940000000  0.5852110000000  0.4322150000000 1.0
C      1  0.5132960000000  0.5854170000000  0.5738140000000 1.0
C      1  0.4858060000000  0.4133130000000  0.4298150000000 1.0
C      1  0.5140800000000  0.4152630000000  0.5679180000000 1.0
C      1  0.5678850000000  0.4861880000000  0.4517490000000 1.0
C      1  0.4157050000000  0.4890620000000  0.5501620000000 1.0
C      1  0.5788050000000  0.5129310000000  0.4439720000000 1.0
C      1  0.4249870000000  0.5122810000000  0.5515060000000 1.0
C      1  0.5346160000000  0.4254610000000  0.5263600000000 1.0
C      1  0.4687380000000  0.4164970000000  0.4804370000000 1.0
C      1  0.5300790000000  0.5849330000000  0.5275520000000 1.0
C      1  0.4645460000000  0.5765020000000  0.4679560000000 1.0
C      1  0.5886870000000  0.5231610000000  0.5359820000000 1.0
C      1  0.4107430000000  0.5258060000000  0.4543400000000 1.0
C      1  0.6020950000000  0.4684220000000  0.5318050000000 1.0
C      1  0.4118120000000  0.4756740000000  0.4613250000000 1.0
C      1  0.4376440000000  0.4424040000000  0.5241230000000 1.0
C      1  0.5625280000000  0.4424730000000  0.4775340000000 1.0
C      1  0.4529360000000  0.5425510000000  0.5267370000000 1.0
C      1  0.5583610000000  0.5582730000000  0.4727790000000 1.0
C      1  0.5694070000000  0.4447900000000  0.5187670000000 1.0
C      1  0.4343750000000  0.4417120000000  0.4776870000000 1.0
C      1  0.5644090000000  0.5558680000000  0.5244640000000 1.0
C      1  0.4327200000000  0.5555150000000  0.4822760000000 1.0
C      1  0.4326490000000  0.5777190000000  0.5218320000000 1.0
C      1  0.5686330000000  0.5865360000000  0.4783660000000 1.0
C      1  0.4394300000000  0.4151050000000  0.5181780000000 1.0
C      1  0.5595540000000  0.4145150000000  0.4822080000000 1.0
C      1  0.6064810000000  0.4894810000000  0.5477760000000 1.0
C      1  0.3908370000000  0.4908240000000  0.4477870000000 1.0
C      1  0.6045860000000  0.5138190000000  0.5536020000000 1.0
C      1  0.3875680000000  0.5131840000000  0.4430680000000 1.0
C      1  0.5043270000000  0.5061040000000  0.5038990000000 1.0
END
