TITL C-2441163-1170-1049 0.013671009350477 125000 -15758.9375202826 0 0 111 (C1) n - 1
REM
REM in /home/bkarasulu/work/CARBON/AIRSS/Generating-Clusters/ReaxFF-fromJPCA2015/Units_Real/with-SteepDescent/Higher-Symm
REM
REM
REM
REM
REM
REM ./C.cell (1df0a924f5614ab8850e4351716899ee)
REM
REM compiler GCC version 9.2.1 20190827 (Red Hat 9.2.1-1)
REM options -cpp -mtune=generic -march=x86-64 -g -O0 -fpre-include=/usr/include/finclude/math-vector-fortran.h
REM seed 335923841 1445869978 529105053 1939241 1153190105 1363248910 -1892900242 676237905 -655475354 1092681990 -483644966 -970822031 -194851215 -1132597468 966850190 -984707525 -1799122835 1667502161 -1937210936 -681132169 -530266741 -1729760283 993612595 -365694827 -470337551 1462208821 -673699773 -519042669 447776235 1044112276 804676439 -42917806 1260928644
REM
CELL 1.54180   50.00000   50.00000   50.00000   90.00000   90.00000   90.00000
LATT -1
SFAC C  
C      1  0.4670790000000  0.4646060000000  0.5284280000000 1.0
C      1  0.4694620000000  0.4849680000000  0.5471630000000 1.0
C      1  0.4717210000000  0.5275250000000  0.5326330000000 1.0
C      1  0.4650460000000  0.5289940000000  0.5017310000000 1.0
C      1  0.4656500000000  0.5275450000000  0.4465210000000 1.0
C      1  0.4762220000000  0.4827020000000  0.4597570000000 1.0
C      1  0.4792470000000  0.4673370000000  0.4818850000000 1.0
C      1  0.5761750000000  0.4811210000000  0.5380300000000 1.0
C      1  0.5649010000000  0.5335720000000  0.5301210000000 1.0
C      1  0.5603060000000  0.5494160000000  0.5075690000000 1.0
C      1  0.5662930000000  0.5313730000000  0.4550920000000 1.0
C      1  0.5730960000000  0.4996600000000  0.4550650000000 1.0
C      1  0.5800540000000  0.4689850000000  0.4934700000000 1.0
C      1  0.5849930000000  0.4578670000000  0.5222820000000 1.0
C      1  0.4254120000000  0.4919610000000  0.5574340000000 1.0
C      1  0.4247050000000  0.5389720000000  0.5430310000000 1.0
C      1  0.4272010000000  0.5567090000000  0.4963410000000 1.0
C      1  0.4229790000000  0.5342550000000  0.4524550000000 1.0
C      1  0.4283560000000  0.4845560000000  0.4454710000000 1.0
C      1  0.4314420000000  0.4489640000000  0.4797160000000 1.0
C      1  0.4229620000000  0.4500910000000  0.5292940000000 1.0
C      1  0.4548120000000  0.5552450000000  0.4909810000000 1.0
C      1  0.4459240000000  0.5461310000000  0.4387510000000 1.0
C      1  0.4556110000000  0.4756240000000  0.4409380000000 1.0
C      1  0.4597850000000  0.4455260000000  0.4856890000000 1.0
C      1  0.4495920000000  0.4439350000000  0.5391490000000 1.0
C      1  0.4523860000000  0.4923130000000  0.5681600000000 1.0
C      1  0.4534810000000  0.5461110000000  0.5456170000000 1.0
C      1  0.5732680000000  0.4846010000000  0.5662800000000 1.0
C      1  0.5669770000000  0.5479840000000  0.5564730000000 1.0
C      1  0.5658010000000  0.5778140000000  0.5024530000000 1.0
C      1  0.5709430000000  0.5509310000000  0.4332990000000 1.0
C      1  0.5711560000000  0.4778880000000  0.4333850000000 1.0
C      1  0.5534680000000  0.4256670000000  0.4734970000000 1.0
C      1  0.5710930000000  0.4391680000000  0.5390820000000 1.0
C      1  0.4224950000000  0.4531230000000  0.5031390000000 1.0
C      1  0.4198430000000  0.4736790000000  0.5392010000000 1.0
C      1  0.4187740000000  0.5139810000000  0.5457430000000 1.0
C      1  0.4200330000000  0.5442870000000  0.5187750000000 1.0
C      1  0.4181080000000  0.5414930000000  0.4773630000000 1.0
C      1  0.4215300000000  0.5085100000000  0.4536310000000 1.0
C      1  0.4224390000000  0.4691440000000  0.4648840000000 1.0
C      1  0.5567730000000  0.4848310000000  0.5888720000000 1.0
C      1  0.5540420000000  0.5719280000000  0.5616720000000 1.0
C      1  0.5562970000000  0.5922330000000  0.4803670000000 1.0
C      1  0.5572020000000  0.5435480000000  0.4099460000000 1.0
C      1  0.5363640000000  0.4724090000000  0.4135400000000 1.0
C      1  0.5390990000000  0.4362810000000  0.4957330000000 1.0
C      1  0.5312450000000  0.4255810000000  0.5433680000000 1.0
C      1  0.5500380000000  0.4566010000000  0.4333080000000 1.0
C      1  0.5519480000000  0.4119000000000  0.5008970000000 1.0
C      1  0.5458480000000  0.4459770000000  0.5579400000000 1.0
C      1  0.5577230000000  0.5139520000000  0.5895490000000 1.0
C      1  0.5504820000000  0.5898040000000  0.5438590000000 1.0
C      1  0.5538420000000  0.5878660000000  0.4550240000000 1.0
C      1  0.5569800000000  0.5184220000000  0.4061720000000 1.0
C      1  0.4933230000000  0.4926630000000  0.5942740000000 1.0
C      1  0.4975580000000  0.5618030000000  0.5584580000000 1.0
C      1  0.4982040000000  0.5781230000000  0.4883200000000 1.0
C      1  0.4986470000000  0.5408290000000  0.4215870000000 1.0
C      1  0.4924860000000  0.4606920000000  0.4161580000000 1.0
C      1  0.4980850000000  0.4169020000000  0.4759180000000 1.0
C      1  0.4906870000000  0.4247990000000  0.5562120000000 1.0
C      1  0.5077120000000  0.4857790000000  0.4229460000000 1.0
C      1  0.5093020000000  0.4312520000000  0.4532720000000 1.0
C      1  0.5042260000000  0.4315600000000  0.5287220000000 1.0
C      1  0.5056350000000  0.4726080000000  0.5766800000000 1.0
C      1  0.5015210000000  0.5340470000000  0.5677070000000 1.0
C      1  0.5060540000000  0.5548860000000  0.5049500000000 1.0
C      1  0.5108670000000  0.5455650000000  0.4496510000000 1.0
C      1  0.4673840000000  0.4533610000000  0.4260590000000 1.0
C      1  0.4735250000000  0.4203010000000  0.4883720000000 1.0
C      1  0.4640600000000  0.4349320000000  0.5636920000000 1.0
C      1  0.4674620000000  0.5026070000000  0.5906050000000 1.0
C      1  0.4721610000000  0.5690100000000  0.5455460000000 1.0
C      1  0.4719090000000  0.5730500000000  0.4757820000000 1.0
C      1  0.4681460000000  0.5382730000000  0.4205160000000 1.0
C      1  0.5358040000000  0.5408600000000  0.4958180000000 1.0
C      1  0.5390920000000  0.5291920000000  0.4651010000000 1.0
C      1  0.5445240000000  0.4987400000000  0.4666540000000 1.0
C      1  0.5518870000000  0.4781730000000  0.4849330000000 1.0
C      1  0.5347580000000  0.4664980000000  0.5056850000000 1.0
C      1  0.5490790000000  0.4827250000000  0.5268440000000 1.0
C      1  0.5468130000000  0.5104810000000  0.5275730000000 1.0
C      1  0.4958800000000  0.4161130000000  0.5042490000000 1.0
C      1  0.4884470000000  0.4454030000000  0.5756790000000 1.0
C      1  0.4909350000000  0.5200260000000  0.5911080000000 1.0
C      1  0.4977410000000  0.5691280000000  0.5300060000000 1.0
C      1  0.4969640000000  0.5695360000000  0.4603650000000 1.0
C      1  0.5011190000000  0.5140600000000  0.4143520000000 1.0
C      1  0.4920520000000  0.4388480000000  0.4315800000000 1.0
C      1  0.4915040000000  0.5268380000000  0.4915500000000 1.0
C      1  0.4923980000000  0.5229340000000  0.4605450000000 1.0
C      1  0.4986710000000  0.4958510000000  0.4510770000000 1.0
C      1  0.5012830000000  0.4756910000000  0.4998520000000 1.0
C      1  0.4955810000000  0.4634440000000  0.5251300000000 1.0
C      1  0.4989640000000  0.4865010000000  0.5475640000000 1.0
C      1  0.4954770000000  0.5169510000000  0.5450840000000 1.0
C      1  0.5559070000000  0.5746970000000  0.4329970000000 1.0
C      1  0.5593590000000  0.4899380000000  0.4088220000000 1.0
C      1  0.5375610000000  0.4357230000000  0.4513440000000 1.0
C      1  0.5558610000000  0.4159590000000  0.5299330000000 1.0
C      1  0.5363850000000  0.4666040000000  0.5755130000000 1.0
C      1  0.5588940000000  0.5380220000000  0.5810630000000 1.0
C      1  0.5532860000000  0.5959930000000  0.5193200000000 1.0
C      1  0.5057450000000  0.5045490000000  0.5014710000000 1.0
C      1  0.4441210000000  0.5036990000000  0.4975160000000 1.0
C      1  0.4179910000000  0.4998170000000  0.4995960000000 1.0
C      1  0.5285840000000  0.5176350000000  0.5090930000000 1.0
C      1  0.3934770000000  0.4965910000000  0.5015430000000 1.0
C      1  0.5934540000000  0.4879450000000  0.4780300000000 1.0
END
