TITL C-2441157-2117-1313 0.0308920974471306 125000 -13811.8265415237 0 0 102 (C1) n - 1
REM
REM in /home/bkarasulu/work/CARBON/AIRSS/Generating-Clusters/ReaxFF-fromJPCA2015/Units_Real/with-SteepDescent/Higher-Symm
REM
REM
REM
REM
REM
REM ./C.cell (1df0a924f5614ab8850e4351716899ee)
REM
REM compiler GCC version 9.2.1 20190827 (Red Hat 9.2.1-1)
REM options -cpp -mtune=generic -march=x86-64 -g -O0 -fpre-include=/usr/include/finclude/math-vector-fortran.h
REM seed -806934594 -406116493 330660001 -1220480537 1682582037 860403462 503976251 -1412972353 -2111208008 496241340 569555884 -48800388 -1471473474 -1420273253 -1730445964 -1665014645 2008534373 390472267 1174121420 -594457816 -1881888028 -1509483089 1642844773 -975252230 -97821961 199014162 1086024014 501453361 1206093863 1656779181 1566332497 361680346 -821062415
REM
CELL 1.54180   50.00000   50.00000   50.00000   90.00000   90.00000   90.00000
LATT -1
SFAC C  
C      1  0.5232840000000  0.4598260000000  0.5759890000000 1.0
C      1  0.4583450000000  0.5759640000000  0.5250610000000 1.0
C      1  0.5711390000000  0.5245380000000  0.4554280000000 1.0
C      1  0.4757440000000  0.5470200000000  0.5696050000000 1.0
C      1  0.5220600000000  0.5448780000000  0.4243480000000 1.0
C      1  0.4757560000000  0.4545050000000  0.4304560000000 1.0
C      1  0.5468200000000  0.4264630000000  0.5246750000000 1.0
C      1  0.4552050000000  0.4302710000000  0.4769240000000 1.0
C      1  0.5459290000000  0.5708190000000  0.4761360000000 1.0
C      1  0.4309260000000  0.4773350000000  0.4554880000000 1.0
C      1  0.5695690000000  0.4747000000000  0.5456560000000 1.0
C      1  0.4210810000000  0.5238730000000  0.5437810000000 1.0
C      1  0.4594050000000  0.5243880000000  0.5732250000000 1.0
C      1  0.5701630000000  0.4539160000000  0.5241410000000 1.0
C      1  0.5250790000000  0.5747880000000  0.4554310000000 1.0
C      1  0.5465340000000  0.4754990000000  0.5711340000000 1.0
C      1  0.5456920000000  0.5251220000000  0.4260060000000 1.0
C      1  0.4545520000000  0.4772500000000  0.4310420000000 1.0
C      1  0.4222130000000  0.5459750000000  0.5228930000000 1.0
C      1  0.4306940000000  0.4534050000000  0.4754310000000 1.0
C      1  0.5695790000000  0.5462840000000  0.4745370000000 1.0
C      1  0.4755030000000  0.4303340000000  0.4537860000000 1.0
C      1  0.4752960000000  0.5690140000000  0.5479690000000 1.0
C      1  0.5229130000000  0.4247280000000  0.5437890000000 1.0
C      1  0.4654980000000  0.5625110000000  0.5002150000000 1.0
C      1  0.5578060000000  0.5019130000000  0.4651990000000 1.0
C      1  0.5001750000000  0.4654030000000  0.5601710000000 1.0
C      1  0.5352320000000  0.4419370000000  0.5017580000000 1.0
C      1  0.4733230000000  0.4343470000000  0.5023560000000 1.0
C      1  0.5280460000000  0.5664240000000  0.5005560000000 1.0
C      1  0.4349910000000  0.5016200000000  0.4745620000000 1.0
C      1  0.5654650000000  0.5001180000000  0.5283120000000 1.0
C      1  0.4403850000000  0.5018790000000  0.5349300000000 1.0
C      1  0.5006610000000  0.5297520000000  0.5657970000000 1.0
C      1  0.5002080000000  0.5383360000000  0.4412910000000 1.0
C      1  0.5020030000000  0.4708170000000  0.4344720000000 1.0
C      1  0.5549430000000  0.4634350000000  0.5016160000000 1.0
C      1  0.5013110000000  0.5571120000000  0.4630690000000 1.0
C      1  0.4628910000000  0.5020710000000  0.5557000000000 1.0
C      1  0.4431740000000  0.5434280000000  0.5022380000000 1.0
C      1  0.4341200000000  0.4685670000000  0.5017680000000 1.0
C      1  0.5647000000000  0.5307450000000  0.4998560000000 1.0
C      1  0.5018750000000  0.4348490000000  0.4698770000000 1.0
C      1  0.5000680000000  0.5642630000000  0.5317230000000 1.0
C      1  0.5013780000000  0.4441210000000  0.5388320000000 1.0
C      1  0.5309930000000  0.5007090000000  0.5656320000000 1.0
C      1  0.5357290000000  0.5020540000000  0.4437830000000 1.0
C      1  0.4726410000000  0.5024100000000  0.4348330000000 1.0
C      1  0.5254960000000  0.5662720000000  0.5465230000000 1.0
C      1  0.5657540000000  0.5462770000000  0.5246350000000 1.0
C      1  0.5467950000000  0.5255480000000  0.5659540000000 1.0
C      1  0.4756520000000  0.4349870000000  0.5495320000000 1.0
C      1  0.5269420000000  0.4347840000000  0.4547660000000 1.0
C      1  0.4758370000000  0.5679610000000  0.4539260000000 1.0
C      1  0.4351280000000  0.4541520000000  0.5271050000000 1.0
C      1  0.5663450000000  0.4559610000000  0.4763230000000 1.0
C      1  0.4357060000000  0.5496820000000  0.4752340000000 1.0
C      1  0.4540330000000  0.4765230000000  0.5672510000000 1.0
C      1  0.5476680000000  0.4762900000000  0.4346810000000 1.0
C      1  0.4560150000000  0.5261230000000  0.4363650000000 1.0
C      1  0.5662290000000  0.5249370000000  0.5441010000000 1.0
C      1  0.5446300000000  0.5665030000000  0.5250270000000 1.0
C      1  0.5257300000000  0.5452380000000  0.5667350000000 1.0
C      1  0.4328840000000  0.4748770000000  0.5474350000000 1.0
C      1  0.4366360000000  0.5260200000000  0.4584770000000 1.0
C      1  0.5673830000000  0.4760930000000  0.4558930000000 1.0
C      1  0.4572780000000  0.4350430000000  0.5266730000000 1.0
C      1  0.4554010000000  0.5709090000000  0.4740210000000 1.0
C      1  0.5476620000000  0.4337070000000  0.4751680000000 1.0
C      1  0.4742040000000  0.4561970000000  0.5692930000000 1.0
C      1  0.4747690000000  0.5484530000000  0.4325780000000 1.0
C      1  0.5272430000000  0.4558080000000  0.4342080000000 1.0
C      1  0.4015070000000  0.4509930000000  0.4683350000000 1.0
C      1  0.4503590000000  0.4705340000000  0.4019450000000 1.0
C      1  0.4684690000000  0.4011080000000  0.4507340000000 1.0
C      1  0.6014420000000  0.5499580000000  0.4725640000000 1.0
C      1  0.3934660000000  0.5420000000000  0.5207920000000 1.0
C      1  0.6021600000000  0.4557390000000  0.5266250000000 1.0
C      1  0.5413690000000  0.5225500000000  0.3968080000000 1.0
C      1  0.4587120000000  0.5266350000000  0.6005400000000 1.0
C      1  0.5509970000000  0.4707120000000  0.6048290000000 1.0
C      1  0.5260170000000  0.6028590000000  0.4565960000000 1.0
C      1  0.4710470000000  0.6034250000000  0.5523080000000 1.0
C      1  0.5234790000000  0.3959460000000  0.5388520000000 1.0
C      1  0.4511250000000  0.4012520000000  0.4701360000000 1.0
C      1  0.4683490000000  0.4517020000000  0.4013330000000 1.0
C      1  0.4018300000000  0.4704600000000  0.4514670000000 1.0
C      1  0.5489310000000  0.6049010000000  0.4722770000000 1.0
C      1  0.5449070000000  0.3970880000000  0.5234430000000 1.0
C      1  0.4586220000000  0.6035730000000  0.5273980000000 1.0
C      1  0.5221590000000  0.5402230000000  0.3961910000000 1.0
C      1  0.5266370000000  0.4587320000000  0.6030040000000 1.0
C      1  0.4701370000000  0.5492350000000  0.6059200000000 1.0
C      1  0.6022730000000  0.5258240000000  0.4562050000000 1.0
C      1  0.6015080000000  0.4723590000000  0.5502910000000 1.0
C      1  0.3926500000000  0.5236730000000  0.5396730000000 1.0
C      1  0.5594960000000  0.5032190000000  0.5007830000000 1.0
C      1  0.5033680000000  0.5023630000000  0.5612180000000 1.0
C      1  0.4393510000000  0.4951570000000  0.5016690000000 1.0
C      1  0.5003860000000  0.4983050000000  0.4409130000000 1.0
C      1  0.5007990000000  0.4404070000000  0.4975530000000 1.0
C      1  0.5004450000000  0.5601030000000  0.5040140000000 1.0
END
