TITL C-2441159-1093-862 0.103678065175889 125000 -25191.1091892808 0 0 188 (C1) n - 1
REM
REM in /home/bkarasulu/work/CARBON/AIRSS/Generating-Clusters/ReaxFF-fromJPCA2015/Units_Real/with-SteepDescent/Higher-Symm
REM
REM
REM
REM
REM
REM ./C.cell (1df0a924f5614ab8850e4351716899ee)
REM
REM compiler GCC version 9.2.1 20190827 (Red Hat 9.2.1-1)
REM options -cpp -mtune=generic -march=x86-64 -g -O0 -fpre-include=/usr/include/finclude/math-vector-fortran.h
REM seed 1894417561 762970451 176207529 654210669 -456068444 351646116 1911153266 -420820650 -614100012 -217826295 -280215684 -801069916 -864830849 992393385 1850197609 -1474204938 1125918497 935124016 2142235144 1558844136 -1884943532 1317595807 323093652 -1663062866 2105650572 -1306390073 2059968588 410411529 762241292 1919484687 -700786431 -497220844 1974783408
REM
CELL 1.54180   50.00000   50.00000   50.00000   90.00000   90.00000   90.00000
LATT -1
SFAC C  
C      1  0.5394600000000  0.4764470000000  0.5109850000000 1.0
C      1  0.5341030000000  0.5056190000000  0.4701210000000 1.0
C      1  0.5449080000000  0.5287680000000  0.5196310000000 1.0
C      1  0.5097260000000  0.4033650000000  0.4680980000000 1.0
C      1  0.5015180000000  0.5666710000000  0.4359280000000 1.0
C      1  0.5110440000000  0.5187580000000  0.5987690000000 1.0
C      1  0.4540670000000  0.4679630000000  0.4531190000000 1.0
C      1  0.4547410000000  0.5670700000000  0.4945840000000 1.0
C      1  0.4513170000000  0.4770380000000  0.5559180000000 1.0
C      1  0.4861380000000  0.3914410000000  0.5034820000000 1.0
C      1  0.4853410000000  0.5515620000000  0.4009680000000 1.0
C      1  0.4879330000000  0.5564140000000  0.5932970000000 1.0
C      1  0.5330170000000  0.5385080000000  0.6024110000000 1.0
C      1  0.5317210000000  0.3929140000000  0.4861010000000 1.0
C      1  0.5377600000000  0.5608440000000  0.4172560000000 1.0
C      1  0.4702370000000  0.5259950000000  0.4031840000000 1.0
C      1  0.4706710000000  0.5577830000000  0.5680470000000 1.0
C      1  0.4675760000000  0.4013030000000  0.5242990000000 1.0
C      1  0.4327330000000  0.5137250000000  0.5854640000000 1.0
C      1  0.4322690000000  0.4197290000000  0.4688250000000 1.0
C      1  0.4318690000000  0.5587680000000  0.4478590000000 1.0
C      1  0.4723890000000  0.4979660000000  0.4516950000000 1.0
C      1  0.4681070000000  0.5536510000000  0.5164610000000 1.0
C      1  0.4692570000000  0.4626230000000  0.5360090000000 1.0
C      1  0.4279740000000  0.5780670000000  0.4961220000000 1.0
C      1  0.4332460000000  0.4598530000000  0.5705760000000 1.0
C      1  0.4320930000000  0.4596560000000  0.4324600000000 1.0
C      1  0.5121210000000  0.5974660000000  0.5088450000000 1.0
C      1  0.5094160000000  0.4430890000000  0.5781490000000 1.0
C      1  0.5260260000000  0.4546200000000  0.4180540000000 1.0
C      1  0.5634040000000  0.5219790000000  0.4126050000000 1.0
C      1  0.5601780000000  0.5607720000000  0.5721130000000 1.0
C      1  0.5593760000000  0.4099490000000  0.5222080000000 1.0
C      1  0.4730840000000  0.5106510000000  0.5278960000000 1.0
C      1  0.4727440000000  0.4752240000000  0.4934160000000 1.0
C      1  0.4694230000000  0.5224230000000  0.4873260000000 1.0
C      1  0.4941260000000  0.5399520000000  0.4449630000000 1.0
C      1  0.4798650000000  0.5255230000000  0.5524840000000 1.0
C      1  0.4819840000000  0.4474270000000  0.4927710000000 1.0
C      1  0.5095250000000  0.4847440000000  0.5495410000000 1.0
C      1  0.5111760000000  0.4679920000000  0.4661930000000 1.0
C      1  0.5097220000000  0.5438000000000  0.4884830000000 1.0
C      1  0.5706750000000  0.5664260000000  0.4445980000000 1.0
C      1  0.5756700000000  0.5117400000000  0.5881690000000 1.0
C      1  0.5750390000000  0.4143010000000  0.4695290000000 1.0
C      1  0.5492500000000  0.4627020000000  0.4359080000000 1.0
C      1  0.5626700000000  0.5711560000000  0.4925010000000 1.0
C      1  0.5627800000000  0.4731100000000  0.5712450000000 1.0
C      1  0.5245610000000  0.4094720000000  0.4435810000000 1.0
C      1  0.5055430000000  0.5888850000000  0.4580400000000 1.0
C      1  0.5126770000000  0.4881480000000  0.5993830000000 1.0
C      1  0.4645180000000  0.4199480000000  0.4358530000000 1.0
C      1  0.4615270000000  0.5936380000000  0.4581500000000 1.0
C      1  0.4639200000000  0.4858140000000  0.6036840000000 1.0
C      1  0.4349280000000  0.5228420000000  0.5377900000000 1.0
C      1  0.4355230000000  0.4581320000000  0.4987370000000 1.0
C      1  0.4421290000000  0.5330290000000  0.4616330000000 1.0
C      1  0.5379800000000  0.5558620000000  0.5292120000000 1.0
C      1  0.5430820000000  0.4528790000000  0.5290730000000 1.0
C      1  0.5358490000000  0.5151540000000  0.4211710000000 1.0
C      1  0.5872390000000  0.4518730000000  0.5358000000000 1.0
C      1  0.5883820000000  0.4895640000000  0.4418660000000 1.0
C      1  0.5899040000000  0.5454380000000  0.5162140000000 1.0
C      1  0.6088600000000  0.4741210000000  0.5073610000000 1.0
C      1  0.6129520000000  0.5178220000000  0.4636990000000 1.0
C      1  0.6073820000000  0.5270780000000  0.5244900000000 1.0
C      1  0.3986350000000  0.5063240000000  0.5546100000000 1.0
C      1  0.3998600000000  0.4513580000000  0.4769880000000 1.0
C      1  0.3985750000000  0.5410390000000  0.4686180000000 1.0
C      1  0.5200100000000  0.5114250000000  0.5210030000000 1.0
C      1  0.5178530000000  0.4707390000000  0.4939240000000 1.0
C      1  0.5128310000000  0.5125990000000  0.4912020000000 1.0
C      1  0.4948630000000  0.5115810000000  0.4407760000000 1.0
C      1  0.5066510000000  0.5316190000000  0.5388580000000 1.0
C      1  0.5046830000000  0.4499750000000  0.5097890000000 1.0
C      1  0.6001790000000  0.5542490000000  0.4916890000000 1.0
C      1  0.5987200000000  0.4771780000000  0.5480480000000 1.0
C      1  0.5997810000000  0.4631520000000  0.4548580000000 1.0
C      1  0.3896730000000  0.5278490000000  0.4939780000000 1.0
C      1  0.3891570000000  0.4926730000000  0.5285670000000 1.0
C      1  0.3927830000000  0.4810340000000  0.4785950000000 1.0
C      1  0.5144290000000  0.5461540000000  0.4016240000000 1.0
C      1  0.5166470000000  0.5610750000000  0.5932290000000 1.0
C      1  0.5149010000000  0.3893190000000  0.5094990000000 1.0
C      1  0.5743750000000  0.5662200000000  0.5482810000000 1.0
C      1  0.5724580000000  0.4274710000000  0.5436030000000 1.0
C      1  0.5791650000000  0.4973470000000  0.4158800000000 1.0
C      1  0.4565890000000  0.4435650000000  0.5858370000000 1.0
C      1  0.4516090000000  0.4558240000000  0.4064450000000 1.0
C      1  0.4604190000000  0.6021850000000  0.5122870000000 1.0
C      1  0.4062040000000  0.5196000000000  0.4491080000000 1.0
C      1  0.4080450000000  0.5325610000000  0.5450110000000 1.0
C      1  0.4090110000000  0.4473420000000  0.5053850000000 1.0
C      1  0.4466150000000  0.4471050000000  0.5236070000000 1.0
C      1  0.4483380000000  0.5121870000000  0.4426590000000 1.0
C      1  0.4442080000000  0.5500470000000  0.5326820000000 1.0
C      1  0.4986190000000  0.4567350000000  0.5381450000000 1.0
C      1  0.5100400000000  0.4863470000000  0.4427110000000 1.0
C      1  0.5111640000000  0.5549070000000  0.5177160000000 1.0
C      1  0.4573940000000  0.5143440000000  0.6023380000000 1.0
C      1  0.4577270000000  0.4059750000000  0.4603870000000 1.0
C      1  0.4539720000000  0.5785700000000  0.4351630000000 1.0
C      1  0.5406690000000  0.4392270000000  0.4774830000000 1.0
C      1  0.5315830000000  0.5509840000000  0.4662500000000 1.0
C      1  0.5404950000000  0.5097120000000  0.5652050000000 1.0
C      1  0.5528650000000  0.5435510000000  0.4898190000000 1.0
C      1  0.5521740000000  0.4904150000000  0.5470100000000 1.0
C      1  0.5532410000000  0.4611590000000  0.4647780000000 1.0
C      1  0.4776270000000  0.5734140000000  0.4196060000000 1.0
C      1  0.4830030000000  0.5295340000000  0.6022230000000 1.0
C      1  0.4814850000000  0.3969540000000  0.4753140000000 1.0
C      1  0.4866290000000  0.4246970000000  0.4164880000000 1.0
C      1  0.4851280000000  0.6084940000000  0.4683790000000 1.0
C      1  0.4895600000000  0.4730000000000  0.6107160000000 1.0
C      1  0.5488250000000  0.4203710000000  0.4566260000000 1.0
C      1  0.5421950000000  0.5715330000000  0.4444070000000 1.0
C      1  0.5517590000000  0.4953460000000  0.5899730000000 1.0
C      1  0.4826700000000  0.4986650000000  0.4790080000000 1.0
C      1  0.4740880000000  0.5276410000000  0.5106130000000 1.0
C      1  0.4732850000000  0.4849570000000  0.5194050000000 1.0
C      1  0.4148730000000  0.5337460000000  0.5066040000000 1.0
C      1  0.4119140000000  0.4756450000000  0.5269200000000 1.0
C      1  0.4139570000000  0.4935090000000  0.4636250000000 1.0
C      1  0.5571870000000  0.5797410000000  0.5238150000000 1.0
C      1  0.5591170000000  0.4392250000000  0.5677060000000 1.0
C      1  0.5647700000000  0.4714440000000  0.4119420000000 1.0
C      1  0.5685400000000  0.5032240000000  0.5262610000000 1.0
C      1  0.5747820000000  0.4717880000000  0.4853500000000 1.0
C      1  0.5609450000000  0.5159740000000  0.4787990000000 1.0
C      1  0.4972050000000  0.4762650000000  0.4164970000000 1.0
C      1  0.4933050000000  0.5750040000000  0.5267590000000 1.0
C      1  0.4984770000000  0.4327980000000  0.5530120000000 1.0
C      1  0.4366560000000  0.4776480000000  0.4760300000000 1.0
C      1  0.4359900000000  0.5265590000000  0.4888170000000 1.0
C      1  0.4343390000000  0.4926020000000  0.5337100000000 1.0
C      1  0.5826440000000  0.5691890000000  0.4720410000000 1.0
C      1  0.5889270000000  0.4877650000000  0.5733760000000 1.0
C      1  0.5890030000000  0.4378160000000  0.4616920000000 1.0
C      1  0.4840790000000  0.5453540000000  0.4724040000000 1.0
C      1  0.4897230000000  0.5011350000000  0.5639570000000 1.0
C      1  0.4946990000000  0.4420230000000  0.4673780000000 1.0
C      1  0.4773620000000  0.5810500000000  0.5501670000000 1.0
C      1  0.4765370000000  0.4147720000000  0.5493920000000 1.0
C      1  0.4874340000000  0.5012930000000  0.4002210000000 1.0
C      1  0.4691950000000  0.5700100000000  0.4740030000000 1.0
C      1  0.4689920000000  0.4868630000000  0.5746290000000 1.0
C      1  0.4714450000000  0.4445950000000  0.4502480000000 1.0
C      1  0.5885040000000  0.4533270000000  0.5069950000000 1.0
C      1  0.5868950000000  0.5140100000000  0.4587730000000 1.0
C      1  0.5925920000000  0.5454480000000  0.5439300000000 1.0
C      1  0.5990750000000  0.4983360000000  0.5266510000000 1.0
C      1  0.6038310000000  0.4794050000000  0.4789190000000 1.0
C      1  0.6139600000000  0.5297810000000  0.4874340000000 1.0
C      1  0.5145980000000  0.4265560000000  0.4226470000000 1.0
C      1  0.5174270000000  0.5867760000000  0.4821350000000 1.0
C      1  0.5168880000000  0.4725200000000  0.5746740000000 1.0
C      1  0.4529310000000  0.4240740000000  0.5646170000000 1.0
C      1  0.4539820000000  0.4839190000000  0.4053740000000 1.0
C      1  0.4536910000000  0.5938540000000  0.5379420000000 1.0
C      1  0.5604320000000  0.5370480000000  0.5902700000000 1.0
C      1  0.5586590000000  0.4040760000000  0.4933780000000 1.0
C      1  0.5659980000000  0.5507400000000  0.4184180000000 1.0
C      1  0.4184160000000  0.4415170000000  0.4563750000000 1.0
C      1  0.4150410000000  0.5654710000000  0.4725550000000 1.0
C      1  0.4188250000000  0.4924720000000  0.5718180000000 1.0
C      1  0.5234860000000  0.5329090000000  0.5629830000000 1.0
C      1  0.5294140000000  0.4335080000000  0.5073210000000 1.0
C      1  0.5327870000000  0.5242060000000  0.4489810000000 1.0
C      1  0.4201160000000  0.5390410000000  0.5726530000000 1.0
C      1  0.4214230000000  0.4191110000000  0.4971540000000 1.0
C      1  0.4192070000000  0.5368570000000  0.4290630000000 1.0
C      1  0.5377660000000  0.6028700000000  0.5253030000000 1.0
C      1  0.5378360000000  0.4271070000000  0.5812040000000 1.0
C      1  0.5425430000000  0.4645640000000  0.3932410000000 1.0
C      1  0.4321470000000  0.5759200000000  0.5266650000000 1.0
C      1  0.4335410000000  0.4397730000000  0.5486670000000 1.0
C      1  0.4325560000000  0.4881210000000  0.4237510000000 1.0
C      1  0.4830230000000  0.6098190000000  0.4975670000000 1.0
C      1  0.4826320000000  0.4485570000000  0.5969220000000 1.0
C      1  0.4806890000000  0.4520720000000  0.4077480000000 1.0
C      1  0.5306160000000  0.5619490000000  0.5669540000000 1.0
C      1  0.5305930000000  0.4088250000000  0.5246100000000 1.0
C      1  0.5130460000000  0.5174240000000  0.4012500000000 1.0
C      1  0.4424160000000  0.4079370000000  0.5122320000000 1.0
C      1  0.4433980000000  0.5266880000000  0.4154860000000 1.0
C      1  0.4406590000000  0.5584930000000  0.5762510000000 1.0
C      1  0.3849790000000  0.4995990000000  0.5002200000000 1.0
C      1  0.5623660000000  0.4936770000000  0.4998300000000 1.0
END
