TITL C-2441159-1093-935 0.00597424117929501 125000 -8689.89102227943 0 0 59 (C1) n - 1
REM
REM in /home/bkarasulu/work/CARBON/AIRSS/Generating-Clusters/ReaxFF-fromJPCA2015/Units_Real/with-SteepDescent/Higher-Symm
REM
REM
REM
REM
REM
REM ./C.cell (1df0a924f5614ab8850e4351716899ee)
REM
REM compiler GCC version 9.2.1 20190827 (Red Hat 9.2.1-1)
REM options -cpp -mtune=generic -march=x86-64 -g -O0 -fpre-include=/usr/include/finclude/math-vector-fortran.h
REM seed 453765670 -298864779 -1208599486 -557024710 1740038855 -1222779378 -353399612 1898035057 -1440175039 345594352 986806286 1155586436 -2083321311 1446302210 -795059845 -20263882 1232195195 -1481649323 1771038776 -1039543287 515929668 970741370 -27640503 -773309988 1583811658 1694722587 421475479 -1846760834 -1764161423 1912952364 650035917 979091484 -1292073453
REM
CELL 1.54180   50.00000   50.00000   50.00000   90.00000   90.00000   90.00000
LATT -1
SFAC C  
C      1  0.5041590000000  0.5276820000000  0.5280040000000 1.0
C      1  0.4906620000000  0.5287310000000  0.4804080000000 1.0
C      1  0.4202230000000  0.4882010000000  0.4677580000000 1.0
C      1  0.5785300000000  0.4882860000000  0.5332400000000 1.0
C      1  0.5619300000000  0.5249380000000  0.5167210000000 1.0
C      1  0.4372260000000  0.5260220000000  0.4833460000000 1.0
C      1  0.5562660000000  0.5072500000000  0.4639540000000 1.0
C      1  0.4425640000000  0.5071850000000  0.5371410000000 1.0
C      1  0.5189430000000  0.4380920000000  0.4672890000000 1.0
C      1  0.4816800000000  0.4387820000000  0.5327080000000 1.0
C      1  0.4406100000000  0.5079550000000  0.4599090000000 1.0
C      1  0.5580630000000  0.5084350000000  0.5412410000000 1.0
C      1  0.4549690000000  0.4801230000000  0.5304850000000 1.0
C      1  0.5451200000000  0.4800100000000  0.4678840000000 1.0
C      1  0.4739320000000  0.4932540000000  0.5106620000000 1.0
C      1  0.5215570000000  0.4920910000000  0.4787870000000 1.0
C      1  0.4702870000000  0.4335400000000  0.4800760000000 1.0
C      1  0.5296340000000  0.4346970000000  0.5191610000000 1.0
C      1  0.5353310000000  0.4465160000000  0.4920890000000 1.0
C      1  0.4637240000000  0.4442270000000  0.5081900000000 1.0
C      1  0.5498390000000  0.5507720000000  0.5209440000000 1.0
C      1  0.4486170000000  0.5525220000000  0.4795320000000 1.0
C      1  0.4362350000000  0.4655150000000  0.4814440000000 1.0
C      1  0.5621510000000  0.4671750000000  0.5181140000000 1.0
C      1  0.5533790000000  0.5677940000000  0.4968990000000 1.0
C      1  0.4483780000000  0.5673590000000  0.5051780000000 1.0
C      1  0.4653770000000  0.5916830000000  0.5025120000000 1.0
C      1  0.5342650000000  0.5910780000000  0.4985380000000 1.0
C      1  0.4605280000000  0.5276950000000  0.5476460000000 1.0
C      1  0.5386810000000  0.5290490000000  0.4577910000000 1.0
C      1  0.4784370000000  0.4629300000000  0.5474420000000 1.0
C      1  0.5218100000000  0.4612410000000  0.4513010000000 1.0
C      1  0.5421790000000  0.4543470000000  0.5359270000000 1.0
C      1  0.4571410000000  0.4530990000000  0.4635880000000 1.0
C      1  0.4771880000000  0.5529460000000  0.4727040000000 1.0
C      1  0.5206580000000  0.5510080000000  0.5240860000000 1.0
C      1  0.5573220000000  0.4641220000000  0.4899220000000 1.0
C      1  0.4407640000000  0.4625390000000  0.5095240000000 1.0
C      1  0.5023220000000  0.4278100000000  0.5148480000000 1.0
C      1  0.4977560000000  0.4274500000000  0.4849120000000 1.0
C      1  0.5113070000000  0.5736180000000  0.5073740000000 1.0
C      1  0.4873240000000  0.5754190000000  0.4888360000000 1.0
C      1  0.4859170000000  0.4711810000000  0.5027130000000 1.0
C      1  0.5120050000000  0.4723530000000  0.4938010000000 1.0
C      1  0.4582150000000  0.5424170000000  0.5212010000000 1.0
C      1  0.5543330000000  0.5468470000000  0.4751060000000 1.0
C      1  0.4996180000000  0.4736740000000  0.4373480000000 1.0
C      1  0.4997190000000  0.4746430000000  0.5627970000000 1.0
C      1  0.4929630000000  0.5022000000000  0.4400330000000 1.0
C      1  0.5063610000000  0.5039530000000  0.5663770000000 1.0
C      1  0.4896590000000  0.5239610000000  0.5528040000000 1.0
C      1  0.5098600000000  0.5149220000000  0.4642390000000 1.0
C      1  0.5345310000000  0.4985730000000  0.5585190000000 1.0
C      1  0.4645590000000  0.4973890000000  0.4427360000000 1.0
C      1  0.5292870000000  0.4700480000000  0.5573610000000 1.0
C      1  0.4693960000000  0.4685030000000  0.4417550000000 1.0
C      1  0.4364380000000  0.5231780000000  0.5134370000000 1.0
C      1  0.5670020000000  0.5225880000000  0.4866960000000 1.0
C      1  0.4839280000000  0.5210140000000  0.5070100000000 1.0
END
