TITL C-2441164-471-409 0.123356095346006 125000 -26050.1850299008 0 0 193 (C1) n - 1
REM
REM in /home/bkarasulu/work/CARBON/AIRSS/Generating-Clusters/ReaxFF-fromJPCA2015/Units_Real/with-SteepDescent/Higher-Symm
REM
REM
REM
REM
REM
REM ./C.cell (1df0a924f5614ab8850e4351716899ee)
REM
REM compiler GCC version 9.2.1 20190827 (Red Hat 9.2.1-1)
REM options -cpp -mtune=generic -march=x86-64 -g -O0 -fpre-include=/usr/include/finclude/math-vector-fortran.h
REM seed 876966848 803588826 581822732 -790865860 384157461 -901114429 -2100203328 526886117 1375339547 755417902 1229025717 897258331 2102609675 -961256925 328796422 -428206931 -346114547 1013038909 300553266 1438455856 1087252492 -1215884320 -331137968 -983660190 -999581182 -1912932885 -346080435 -2144832897 1945014757 1060307424 1612986767 608523198 -669966039
REM
CELL 1.54180   50.00000   50.00000   50.00000   90.00000   90.00000   90.00000
LATT -1
SFAC C  
C      1  0.4901330000000  0.5147190000000  0.5643190000000 1.0
C      1  0.4874270000000  0.4823380000000  0.5697490000000 1.0
C      1  0.5435400000000  0.5495300000000  0.4149390000000 1.0
C      1  0.5386330000000  0.4461780000000  0.4175430000000 1.0
C      1  0.6005310000000  0.5588910000000  0.4644480000000 1.0
C      1  0.5976200000000  0.4378920000000  0.4726030000000 1.0
C      1  0.5340880000000  0.4258480000000  0.4363180000000 1.0
C      1  0.5379520000000  0.5827210000000  0.4476970000000 1.0
C      1  0.5932740000000  0.4854950000000  0.4503260000000 1.0
C      1  0.5970920000000  0.5151070000000  0.4456790000000 1.0
C      1  0.5995350000000  0.5592360000000  0.5057750000000 1.0
C      1  0.5872630000000  0.4339500000000  0.5141830000000 1.0
C      1  0.5330350000000  0.3927060000000  0.5045850000000 1.0
C      1  0.5423230000000  0.5979620000000  0.4980220000000 1.0
C      1  0.5612380000000  0.5275380000000  0.5834170000000 1.0
C      1  0.5528880000000  0.4776790000000  0.5808690000000 1.0
C      1  0.4284420000000  0.4867650000000  0.4160050000000 1.0
C      1  0.4425430000000  0.5119730000000  0.4210370000000 1.0
C      1  0.6054490000000  0.4665040000000  0.4740510000000 1.0
C      1  0.6069660000000  0.5302670000000  0.4680150000000 1.0
C      1  0.5325370000000  0.5581210000000  0.5991410000000 1.0
C      1  0.5328270000000  0.4423310000000  0.5958560000000 1.0
C      1  0.5720590000000  0.5557110000000  0.4582460000000 1.0
C      1  0.5736090000000  0.4420820000000  0.4557270000000 1.0
C      1  0.5080680000000  0.5159760000000  0.5138410000000 1.0
C      1  0.5065900000000  0.4913950000000  0.5227470000000 1.0
C      1  0.4972360000000  0.5630280000000  0.5290610000000 1.0
C      1  0.4961680000000  0.4446010000000  0.5420900000000 1.0
C      1  0.4779740000000  0.5213320000000  0.4019400000000 1.0
C      1  0.4800260000000  0.4937980000000  0.4115810000000 1.0
C      1  0.5133000000000  0.4063420000000  0.4375440000000 1.0
C      1  0.5114500000000  0.5922220000000  0.4424990000000 1.0
C      1  0.4455930000000  0.4840180000000  0.5902000000000 1.0
C      1  0.4573200000000  0.5111080000000  0.5942760000000 1.0
C      1  0.5885470000000  0.4730570000000  0.5449600000000 1.0
C      1  0.5949410000000  0.5293050000000  0.5452160000000 1.0
C      1  0.5060750000000  0.5936990000000  0.4711080000000 1.0
C      1  0.5131060000000  0.4060240000000  0.4666720000000 1.0
C      1  0.4875540000000  0.4534560000000  0.4316260000000 1.0
C      1  0.4869500000000  0.5341620000000  0.4400370000000 1.0
C      1  0.5522450000000  0.5879110000000  0.5489360000000 1.0
C      1  0.5552860000000  0.4136850000000  0.5500120000000 1.0
C      1  0.6084940000000  0.5134280000000  0.5255790000000 1.0
C      1  0.6074330000000  0.4845880000000  0.5263560000000 1.0
C      1  0.5295850000000  0.5142230000000  0.3971570000000 1.0
C      1  0.5282460000000  0.4861630000000  0.3975710000000 1.0
C      1  0.5560520000000  0.5243540000000  0.4058460000000 1.0
C      1  0.5546920000000  0.4824180000000  0.4085760000000 1.0
C      1  0.4796430000000  0.3915490000000  0.4985120000000 1.0
C      1  0.4718350000000  0.6072840000000  0.4978770000000 1.0
C      1  0.4801000000000  0.5595200000000  0.5075370000000 1.0
C      1  0.4899060000000  0.4356140000000  0.5020890000000 1.0
C      1  0.4160550000000  0.5221820000000  0.5801500000000 1.0
C      1  0.4182630000000  0.4926920000000  0.5827290000000 1.0
C      1  0.5351950000000  0.4762200000000  0.4998800000000 1.0
C      1  0.5318120000000  0.5322850000000  0.5129830000000 1.0
C      1  0.3989830000000  0.5483820000000  0.5090000000000 1.0
C      1  0.3933660000000  0.4561320000000  0.5184900000000 1.0
C      1  0.4382060000000  0.5795890000000  0.5511130000000 1.0
C      1  0.4405970000000  0.4207700000000  0.5472090000000 1.0
C      1  0.4119050000000  0.5377200000000  0.5334380000000 1.0
C      1  0.4032060000000  0.4625910000000  0.5447200000000 1.0
C      1  0.5615180000000  0.4601250000000  0.4744570000000 1.0
C      1  0.5620290000000  0.5400670000000  0.4802850000000 1.0
C      1  0.4187330000000  0.5039120000000  0.5102000000000 1.0
C      1  0.4283960000000  0.4784930000000  0.5166350000000 1.0
C      1  0.5911650000000  0.5558540000000  0.5319110000000 1.0
C      1  0.5693500000000  0.4579720000000  0.5297440000000 1.0
C      1  0.5370380000000  0.5068270000000  0.5468860000000 1.0
C      1  0.5239090000000  0.4818050000000  0.5424550000000 1.0
C      1  0.4955030000000  0.4176350000000  0.4174530000000 1.0
C      1  0.4983110000000  0.5765750000000  0.4214910000000 1.0
C      1  0.4610440000000  0.4337900000000  0.5019530000000 1.0
C      1  0.4516920000000  0.5594740000000  0.5116770000000 1.0
C      1  0.5060070000000  0.5164680000000  0.4498040000000 1.0
C      1  0.4979000000000  0.4895590000000  0.4536010000000 1.0
C      1  0.4682880000000  0.4752530000000  0.5189380000000 1.0
C      1  0.4636320000000  0.5168020000000  0.5099430000000 1.0
C      1  0.4679610000000  0.5771940000000  0.4523170000000 1.0
C      1  0.4709160000000  0.4185190000000  0.4548820000000 1.0
C      1  0.4017470000000  0.4890960000000  0.5585400000000 1.0
C      1  0.4020990000000  0.5189930000000  0.5538120000000 1.0
C      1  0.4399510000000  0.5554880000000  0.4863090000000 1.0
C      1  0.4441480000000  0.4531170000000  0.4843010000000 1.0
C      1  0.5439050000000  0.5600340000000  0.5507520000000 1.0
C      1  0.5478460000000  0.4419270000000  0.5450370000000 1.0
C      1  0.4402960000000  0.5146130000000  0.4929100000000 1.0
C      1  0.4482910000000  0.4768080000000  0.4998100000000 1.0
C      1  0.4855800000000  0.5553500000000  0.4594490000000 1.0
C      1  0.4857540000000  0.4433860000000  0.4588960000000 1.0
C      1  0.5599960000000  0.4321780000000  0.4323590000000 1.0
C      1  0.5563060000000  0.5648560000000  0.4355280000000 1.0
C      1  0.3810060000000  0.4766340000000  0.5032880000000 1.0
C      1  0.3896510000000  0.5045550000000  0.5092450000000 1.0
C      1  0.4357430000000  0.4077990000000  0.4722890000000 1.0
C      1  0.4322900000000  0.5932860000000  0.4647580000000 1.0
C      1  0.4456580000000  0.4155500000000  0.5196990000000 1.0
C      1  0.4388950000000  0.5856060000000  0.5240600000000 1.0
C      1  0.4697990000000  0.5716940000000  0.4228810000000 1.0
C      1  0.4675350000000  0.4183630000000  0.4253970000000 1.0
C      1  0.4497430000000  0.4658290000000  0.4567740000000 1.0
C      1  0.4412610000000  0.5322490000000  0.4682420000000 1.0
C      1  0.5089190000000  0.5934520000000  0.5706790000000 1.0
C      1  0.5114250000000  0.4061830000000  0.5755020000000 1.0
C      1  0.5727300000000  0.5244240000000  0.4308150000000 1.0
C      1  0.5721500000000  0.4763590000000  0.4295000000000 1.0
C      1  0.4116080000000  0.4446500000000  0.4876240000000 1.0
C      1  0.4129270000000  0.5667680000000  0.4904510000000 1.0
C      1  0.5181510000000  0.4219100000000  0.5979240000000 1.0
C      1  0.5161400000000  0.5804840000000  0.5957700000000 1.0
C      1  0.5486690000000  0.4878630000000  0.4482110000000 1.0
C      1  0.5493890000000  0.5163420000000  0.4458860000000 1.0
C      1  0.4790340000000  0.4209110000000  0.5450340000000 1.0
C      1  0.4815290000000  0.5833380000000  0.5416690000000 1.0
C      1  0.5006400000000  0.6082420000000  0.4959010000000 1.0
C      1  0.5074030000000  0.3890130000000  0.4897640000000 1.0
C      1  0.5762560000000  0.4875340000000  0.5664130000000 1.0
C      1  0.5804390000000  0.5156850000000  0.5666570000000 1.0
C      1  0.4634490000000  0.4454080000000  0.4150970000000 1.0
C      1  0.4604840000000  0.5468020000000  0.4096060000000 1.0
C      1  0.5219850000000  0.6047530000000  0.5174110000000 1.0
C      1  0.5202200000000  0.4074560000000  0.5265710000000 1.0
C      1  0.4903540000000  0.4791270000000  0.5024940000000 1.0
C      1  0.4879580000000  0.5184100000000  0.4945060000000 1.0
C      1  0.3972210000000  0.5156310000000  0.4687860000000 1.0
C      1  0.4053870000000  0.4881550000000  0.4627330000000 1.0
C      1  0.4636010000000  0.5158100000000  0.5394960000000 1.0
C      1  0.4625190000000  0.4865580000000  0.5454200000000 1.0
C      1  0.4615050000000  0.5169830000000  0.4448830000000 1.0
C      1  0.4706890000000  0.4883230000000  0.4428430000000 1.0
C      1  0.4010680000000  0.5236460000000  0.4407560000000 1.0
C      1  0.4069520000000  0.4949140000000  0.4338630000000 1.0
C      1  0.4207850000000  0.5459070000000  0.4453390000000 1.0
C      1  0.4310640000000  0.4503850000000  0.4456870000000 1.0
C      1  0.4865120000000  0.5153610000000  0.5946970000000 1.0
C      1  0.5007500000000  0.4880540000000  0.5959130000000 1.0
C      1  0.5006070000000  0.4762780000000  0.4013750000000 1.0
C      1  0.5049980000000  0.5304070000000  0.3970360000000 1.0
C      1  0.5742150000000  0.5814470000000  0.5304860000000 1.0
C      1  0.5755900000000  0.4146390000000  0.5303790000000 1.0
C      1  0.4793940000000  0.4414240000000  0.5888070000000 1.0
C      1  0.4799630000000  0.5551190000000  0.5857290000000 1.0
C      1  0.5538720000000  0.4088230000000  0.4906040000000 1.0
C      1  0.5698100000000  0.5894730000000  0.5030740000000 1.0
C      1  0.4851680000000  0.4175150000000  0.5730100000000 1.0
C      1  0.4826790000000  0.5792630000000  0.5701720000000 1.0
C      1  0.5934150000000  0.5777430000000  0.4870460000000 1.0
C      1  0.5833620000000  0.4181590000000  0.4905850000000 1.0
C      1  0.3855610000000  0.5280380000000  0.4929410000000 1.0
C      1  0.3934620000000  0.4658530000000  0.4784840000000 1.0
C      1  0.5225560000000  0.4742750000000  0.4554220000000 1.0
C      1  0.5291620000000  0.5293750000000  0.4590950000000 1.0
C      1  0.6012740000000  0.5143940000000  0.4941740000000 1.0
C      1  0.6097080000000  0.4830640000000  0.4964430000000 1.0
C      1  0.4416600000000  0.5405940000000  0.5374090000000 1.0
C      1  0.4342030000000  0.4663050000000  0.5426920000000 1.0
C      1  0.4941140000000  0.4563840000000  0.4830040000000 1.0
C      1  0.4902940000000  0.5458040000000  0.4853770000000 1.0
C      1  0.5686110000000  0.4877530000000  0.4721620000000 1.0
C      1  0.5706790000000  0.5139670000000  0.4914530000000 1.0
C      1  0.5337600000000  0.4236550000000  0.4771170000000 1.0
C      1  0.5309970000000  0.5798130000000  0.4758440000000 1.0
C      1  0.5231100000000  0.5518940000000  0.5328610000000 1.0
C      1  0.5136690000000  0.4357600000000  0.5209700000000 1.0
C      1  0.5343220000000  0.5182610000000  0.5876620000000 1.0
C      1  0.5301000000000  0.4906970000000  0.5951220000000 1.0
C      1  0.4472370000000  0.5562460000000  0.5649430000000 1.0
C      1  0.4369880000000  0.4437740000000  0.5634590000000 1.0
C      1  0.4417880000000  0.5347650000000  0.5861050000000 1.0
C      1  0.4548970000000  0.4565950000000  0.5842300000000 1.0
C      1  0.4633660000000  0.6011880000000  0.5254750000000 1.0
C      1  0.4697340000000  0.3993110000000  0.5251430000000 1.0
C      1  0.5181630000000  0.5226200000000  0.5626550000000 1.0
C      1  0.5068850000000  0.4650960000000  0.5578000000000 1.0
C      1  0.4615270000000  0.3978210000000  0.4751790000000 1.0
C      1  0.4591570000000  0.5993000000000  0.4714690000000 1.0
C      1  0.5564280000000  0.4823410000000  0.5173460000000 1.0
C      1  0.5556760000000  0.5109520000000  0.5239510000000 1.0
C      1  0.4369540000000  0.4580870000000  0.4174730000000 1.0
C      1  0.4336030000000  0.5397540000000  0.4180020000000 1.0
C      1  0.5257680000000  0.5998880000000  0.5461950000000 1.0
C      1  0.5289130000000  0.3999530000000  0.5531390000000 1.0
C      1  0.5470010000000  0.4508860000000  0.5729170000000 1.0
C      1  0.5522150000000  0.5536900000000  0.5779710000000 1.0
C      1  0.5091710000000  0.4487370000000  0.4113600000000 1.0
C      1  0.5134840000000  0.5518460000000  0.4151540000000 1.0
C      1  0.5023480000000  0.5520130000000  0.6019990000000 1.0
C      1  0.5047700000000  0.4476420000000  0.6022430000000 1.0
C      1  0.5337430000000  0.5463580000000  0.4831170000000 1.0
C      1  0.5340510000000  0.4544420000000  0.4757730000000 1.0
C      1  0.4127080000000  0.5729170000000  0.4613750000000 1.0
C      1  0.4180720000000  0.4278460000000  0.4646260000000 1.0
C      1  0.5254030000000  0.4964230000000  0.4829610000000 1.0
END
