TITL C-2441164-471-124 0.110504736660334 125000 -24450.4651270833 0 0 181 (C1) n - 1
REM
REM in /home/bkarasulu/work/CARBON/AIRSS/Generating-Clusters/ReaxFF-fromJPCA2015/Units_Real/with-SteepDescent/Higher-Symm
REM
REM
REM
REM
REM
REM ./C.cell (1df0a924f5614ab8850e4351716899ee)
REM
REM compiler GCC version 9.2.1 20190827 (Red Hat 9.2.1-1)
REM options -cpp -mtune=generic -march=x86-64 -g -O0 -fpre-include=/usr/include/finclude/math-vector-fortran.h
REM seed 373741564 669463573 262839813 1018631085 1770850518 264781067 -985418369 -210695672 -95716416 -230486191 163548435 64106724 -787352574 2011200323 386666852 246866147 -1318006895 1592799422 -1189074728 -1267662147 170715941 -868559556 -1916035124 1860215491 543483181 -365633758 -2130201233 231680680 -1514165690 2625553 -602874928 -950269677 -389538246
REM
CELL 1.54180   50.00000   50.00000   50.00000   90.00000   90.00000   90.00000
LATT -1
SFAC C  
C      1  0.4622470000000  0.5733650000000  0.5571250000000 1.0
C      1  0.5370930000000  0.4295390000000  0.5629850000000 1.0
C      1  0.5325340000000  0.5799960000000  0.5614910000000 1.0
C      1  0.4702760000000  0.4207470000000  0.5623140000000 1.0
C      1  0.5234110000000  0.4363950000000  0.4734530000000 1.0
C      1  0.4810930000000  0.5708000000000  0.4630560000000 1.0
C      1  0.4639210000000  0.4421090000000  0.4851910000000 1.0
C      1  0.5377930000000  0.5513500000000  0.4894660000000 1.0
C      1  0.4822710000000  0.5734360000000  0.5803630000000 1.0
C      1  0.5169500000000  0.4231440000000  0.5827280000000 1.0
C      1  0.5115680000000  0.5781080000000  0.5828710000000 1.0
C      1  0.4862380000000  0.4298180000000  0.5863790000000 1.0
C      1  0.5494830000000  0.5991470000000  0.4796420000000 1.0
C      1  0.4482450000000  0.4006540000000  0.4866710000000 1.0
C      1  0.4483910000000  0.5954610000000  0.4907200000000 1.0
C      1  0.5470650000000  0.4020080000000  0.4857010000000 1.0
C      1  0.4457900000000  0.4769770000000  0.5287730000000 1.0
C      1  0.5429770000000  0.5218960000000  0.5292280000000 1.0
C      1  0.5440060000000  0.4733520000000  0.5359480000000 1.0
C      1  0.4595690000000  0.5225570000000  0.5226320000000 1.0
C      1  0.5379120000000  0.5651300000000  0.4462870000000 1.0
C      1  0.4584420000000  0.4191790000000  0.4347330000000 1.0
C      1  0.4567950000000  0.5796870000000  0.4314970000000 1.0
C      1  0.5467890000000  0.4184770000000  0.4363960000000 1.0
C      1  0.5767870000000  0.5392680000000  0.4437670000000 1.0
C      1  0.4317550000000  0.4610800000000  0.4384630000000 1.0
C      1  0.4306470000000  0.5411510000000  0.4395180000000 1.0
C      1  0.5677410000000  0.4577870000000  0.4412950000000 1.0
C      1  0.5939920000000  0.5185380000000  0.4543390000000 1.0
C      1  0.4127920000000  0.4761040000000  0.4532460000000 1.0
C      1  0.4130710000000  0.5298760000000  0.4590720000000 1.0
C      1  0.5859680000000  0.4696830000000  0.4589730000000 1.0
C      1  0.5766130000000  0.5254180000000  0.5704290000000 1.0
C      1  0.4191980000000  0.4742180000000  0.5690240000000 1.0
C      1  0.4235560000000  0.5234130000000  0.5701350000000 1.0
C      1  0.5739460000000  0.4804070000000  0.5790960000000 1.0
C      1  0.4749420000000  0.4633330000000  0.4700620000000 1.0
C      1  0.5182450000000  0.5429230000000  0.4555380000000 1.0
C      1  0.5145750000000  0.4597490000000  0.4611590000000 1.0
C      1  0.4782630000000  0.5415420000000  0.4637880000000 1.0
C      1  0.5655520000000  0.4317520000000  0.4526320000000 1.0
C      1  0.4375400000000  0.5672100000000  0.4506290000000 1.0
C      1  0.4376350000000  0.4348320000000  0.4477160000000 1.0
C      1  0.5668600000000  0.5621610000000  0.4558310000000 1.0
C      1  0.5842280000000  0.4379620000000  0.4988360000000 1.0
C      1  0.4164460000000  0.5603800000000  0.4996270000000 1.0
C      1  0.4184800000000  0.4278790000000  0.4991180000000 1.0
C      1  0.5837170000000  0.5676040000000  0.5024320000000 1.0
C      1  0.4386970000000  0.4292350000000  0.4763480000000 1.0
C      1  0.5721400000000  0.5797300000000  0.4786930000000 1.0
C      1  0.5681960000000  0.4212560000000  0.4802450000000 1.0
C      1  0.4317400000000  0.5750030000000  0.4796160000000 1.0
C      1  0.4485010000000  0.5231890000000  0.4199730000000 1.0
C      1  0.5505590000000  0.4763560000000  0.4255780000000 1.0
C      1  0.5542470000000  0.5250280000000  0.4202070000000 1.0
C      1  0.4498410000000  0.4766820000000  0.4210020000000 1.0
C      1  0.5304510000000  0.5213600000000  0.4006070000000 1.0
C      1  0.4643380000000  0.4737280000000  0.3962070000000 1.0
C      1  0.4633090000000  0.5232890000000  0.3954200000000 1.0
C      1  0.5316970000000  0.4736650000000  0.4039520000000 1.0
C      1  0.6118110000000  0.5245440000000  0.4981950000000 1.0
C      1  0.3950900000000  0.4707610000000  0.4757310000000 1.0
C      1  0.3848380000000  0.5196040000000  0.4979770000000 1.0
C      1  0.6120930000000  0.4835730000000  0.4894420000000 1.0
C      1  0.5697490000000  0.4543290000000  0.5682090000000 1.0
C      1  0.4421820000000  0.5421200000000  0.5737170000000 1.0
C      1  0.4360900000000  0.4527840000000  0.5720610000000 1.0
C      1  0.5575730000000  0.5453730000000  0.5742980000000 1.0
C      1  0.5095990000000  0.4705730000000  0.5989610000000 1.0
C      1  0.4866130000000  0.5342330000000  0.5939580000000 1.0
C      1  0.4835500000000  0.4551660000000  0.5988790000000 1.0
C      1  0.5149360000000  0.5239860000000  0.5970820000000 1.0
C      1  0.5298630000000  0.4364590000000  0.5004530000000 1.0
C      1  0.4677700000000  0.5711470000000  0.5288460000000 1.0
C      1  0.4634790000000  0.4354190000000  0.5135620000000 1.0
C      1  0.5425840000000  0.5687900000000  0.5105770000000 1.0
C      1  0.5861080000000  0.5389330000000  0.5006660000000 1.0
C      1  0.4070090000000  0.4540980000000  0.4981790000000 1.0
C      1  0.4019030000000  0.5401080000000  0.4838540000000 1.0
C      1  0.5985290000000  0.4584670000000  0.4827690000000 1.0
C      1  0.4611650000000  0.5253360000000  0.4803120000000 1.0
C      1  0.5441970000000  0.4783060000000  0.4905430000000 1.0
C      1  0.5433960000000  0.5260040000000  0.4815910000000 1.0
C      1  0.4582770000000  0.4817570000000  0.4827050000000 1.0
C      1  0.5710940000000  0.4729000000000  0.5299470000000 1.0
C      1  0.4333740000000  0.5254640000000  0.5237240000000 1.0
C      1  0.4227510000000  0.4618200000000  0.5221350000000 1.0
C      1  0.5706480000000  0.5316280000000  0.5253700000000 1.0
C      1  0.4665390000000  0.4059140000000  0.5093270000000 1.0
C      1  0.5393440000000  0.5978490000000  0.5067340000000 1.0
C      1  0.5334410000000  0.4091180000000  0.5100380000000 1.0
C      1  0.4673590000000  0.5948140000000  0.5125460000000 1.0
C      1  0.4536030000000  0.5612140000000  0.4100770000000 1.0
C      1  0.5377980000000  0.4348900000000  0.4171660000000 1.0
C      1  0.5468410000000  0.5542880000000  0.4195960000000 1.0
C      1  0.4559590000000  0.4365270000000  0.4115720000000 1.0
C      1  0.4775160000000  0.5361020000000  0.5659140000000 1.0
C      1  0.5078320000000  0.4696180000000  0.5687090000000 1.0
C      1  0.5269880000000  0.5385690000000  0.5754600000000 1.0
C      1  0.4648330000000  0.4677470000000  0.5786010000000 1.0
C      1  0.4339150000000  0.4336210000000  0.5254520000000 1.0
C      1  0.5677180000000  0.5607450000000  0.5297920000000 1.0
C      1  0.5779160000000  0.4448630000000  0.5265550000000 1.0
C      1  0.4238170000000  0.5527260000000  0.5274990000000 1.0
C      1  0.4761500000000  0.4493120000000  0.3973680000000 1.0
C      1  0.5240580000000  0.5492140000000  0.4025350000000 1.0
C      1  0.5217410000000  0.4478680000000  0.4016870000000 1.0
C      1  0.4752060000000  0.5495360000000  0.3956630000000 1.0
C      1  0.4683120000000  0.5954850000000  0.4702330000000 1.0
C      1  0.5292780000000  0.4102520000000  0.4598130000000 1.0
C      1  0.5327680000000  0.5945230000000  0.4563920000000 1.0
C      1  0.4643540000000  0.3951330000000  0.4641870000000 1.0
C      1  0.4721530000000  0.5467930000000  0.5134650000000 1.0
C      1  0.5287120000000  0.4629990000000  0.5138310000000 1.0
C      1  0.5170190000000  0.5392050000000  0.5293230000000 1.0
C      1  0.4734600000000  0.4632310000000  0.5295460000000 1.0
C      1  0.4437870000000  0.4307340000000  0.5550400000000 1.0
C      1  0.5581400000000  0.5682680000000  0.5567210000000 1.0
C      1  0.5638010000000  0.4323040000000  0.5518490000000 1.0
C      1  0.4345120000000  0.5621280000000  0.5539560000000 1.0
C      1  0.5452840000000  0.5021090000000  0.4374220000000 1.0
C      1  0.4618010000000  0.5004410000000  0.4334710000000 1.0
C      1  0.4685850000000  0.5045310000000  0.5005600000000 1.0
C      1  0.5443350000000  0.5077660000000  0.5030630000000 1.0
C      1  0.4013010000000  0.5006550000000  0.5181150000000 1.0
C      1  0.6082830000000  0.4995180000000  0.5136570000000 1.0
C      1  0.3817920000000  0.4957290000000  0.4826000000000 1.0
C      1  0.6154140000000  0.5093320000000  0.4732600000000 1.0
C      1  0.5151430000000  0.6040220000000  0.5191460000000 1.0
C      1  0.5057970000000  0.4014530000000  0.5191820000000 1.0
C      1  0.5060590000000  0.6015790000000  0.4514150000000 1.0
C      1  0.5019610000000  0.4026580000000  0.4503950000000 1.0
C      1  0.5340430000000  0.5029970000000  0.4651540000000 1.0
C      1  0.4525740000000  0.5027310000000  0.4629140000000 1.0
C      1  0.4218710000000  0.5007040000000  0.4660110000000 1.0
C      1  0.5772390000000  0.4966710000000  0.4656380000000 1.0
C      1  0.4918780000000  0.6111670000000  0.4747720000000 1.0
C      1  0.4904340000000  0.3891550000000  0.4719680000000 1.0
C      1  0.5001120000000  0.4708560000000  0.5098610000000 1.0
C      1  0.5002090000000  0.5424710000000  0.5072140000000 1.0
C      1  0.4699360000000  0.5120330000000  0.5527970000000 1.0
C      1  0.5399240000000  0.4973640000000  0.5507460000000 1.0
C      1  0.4272780000000  0.5004040000000  0.5364050000000 1.0
C      1  0.5861930000000  0.4994160000000  0.5339440000000 1.0
C      1  0.4886860000000  0.5804760000000  0.4364910000000 1.0
C      1  0.4876040000000  0.4203290000000  0.4338520000000 1.0
C      1  0.5897860000000  0.5024710000000  0.5641220000000 1.0
C      1  0.4097600000000  0.4998090000000  0.5635640000000 1.0
C      1  0.5140090000000  0.5942080000000  0.5451490000000 1.0
C      1  0.4926380000000  0.4105110000000  0.5446310000000 1.0
C      1  0.4202860000000  0.4985960000000  0.4975520000000 1.0
C      1  0.5678450000000  0.4937940000000  0.4921970000000 1.0
C      1  0.5080740000000  0.4017010000000  0.5664550000000 1.0
C      1  0.4953290000000  0.5966540000000  0.5677990000000 1.0
C      1  0.5039400000000  0.5320450000000  0.4794420000000 1.0
C      1  0.4998660000000  0.4755470000000  0.4798770000000 1.0
C      1  0.4981200000000  0.5313340000000  0.4382740000000 1.0
C      1  0.4991780000000  0.4695930000000  0.4389390000000 1.0
C      1  0.4627680000000  0.4968090000000  0.5770850000000 1.0
C      1  0.5487320000000  0.4949060000000  0.5803280000000 1.0
C      1  0.4900430000000  0.3994670000000  0.4985400000000 1.0
C      1  0.4925840000000  0.6047460000000  0.5031300000000 1.0
C      1  0.4976950000000  0.5535660000000  0.4164970000000 1.0
C      1  0.4963600000000  0.4445130000000  0.4172990000000 1.0
C      1  0.5062540000000  0.5427170000000  0.5557800000000 1.0
C      1  0.4839950000000  0.4613880000000  0.5565870000000 1.0
C      1  0.4717850000000  0.5098940000000  0.6003760000000 1.0
C      1  0.5272160000000  0.4969690000000  0.5988260000000 1.0
C      1  0.5139600000000  0.4942990000000  0.5572770000000 1.0
C      1  0.5028630000000  0.5031350000000  0.6901490000000 1.0
C      1  0.5065840000000  0.5034820000000  0.4740240000000 1.0
C      1  0.4806860000000  0.4978070000000  0.3866190000000 1.0
C      1  0.4954270000000  0.4987860000000  0.5118820000000 1.0
C      1  0.4956460000000  0.4976280000000  0.4300460000000 1.0
C      1  0.4890640000000  0.4918370000000  0.6168300000000 1.0
C      1  0.4995910000000  0.5006040000000  0.6661810000000 1.0
C      1  0.4921430000000  0.4988120000000  0.3601450000000 1.0
C      1  0.5120620000000  0.4977160000000  0.4039010000000 1.0
C      1  0.4944090000000  0.4963900000000  0.6419530000000 1.0
C      1  0.4945990000000  0.5027120000000  0.5395160000000 1.0
C      1  0.5021950000000  0.5000140000000  0.3379480000000 1.0
END
