TITL C-2441162-9305-777 -0.000561229227659568 125000 -5389.22998919489 0 0 37 (C1) n - 1
REM
REM in /home/bkarasulu/work/CARBON/AIRSS/Generating-Clusters/ReaxFF-fromJPCA2015/Units_Real/with-SteepDescent/Higher-Symm
REM
REM
REM
REM
REM
REM ./C.cell (1df0a924f5614ab8850e4351716899ee)
REM
REM compiler GCC version 9.2.1 20190827 (Red Hat 9.2.1-1)
REM options -cpp -mtune=generic -march=x86-64 -g -O0 -fpre-include=/usr/include/finclude/math-vector-fortran.h
REM seed 1414869768 -1674191865 -963730046 508950530 -320579819 1122686993 685591104 -1935729169 -281671244 884174956 -950395336 1911882158 1264705802 1601271401 444643545 783859808 -1952360649 -573362319 -1730597241 -308385191 2037347235 -1339111747 1628719246 1883620653 -300986807 -1914946995 -729053058 -1902405966 1110068984 1691452795 1501050419 846943956 1787925609
REM
CELL 1.54180   50.00000   50.00000   50.00000   90.00000   90.00000   90.00000
LATT -1
SFAC C  
C      1  0.4522800000000  0.4946270000000  0.4712340000000 1.0
C      1  0.5295140000000  0.4611920000000  0.4708930000000 1.0
C      1  0.5204580000000  0.5454900000000  0.4689070000000 1.0
C      1  0.4668680000000  0.4528000000000  0.5300020000000 1.0
C      1  0.5530510000000  0.4988410000000  0.5307080000000 1.0
C      1  0.4783810000000  0.5513210000000  0.5298510000000 1.0
C      1  0.5560460000000  0.5070690000000  0.4749050000000 1.0
C      1  0.4672710000000  0.5446620000000  0.4755480000000 1.0
C      1  0.4788010000000  0.4484830000000  0.4754290000000 1.0
C      1  0.5291290000000  0.5031080000000  0.4422390000000 1.0
C      1  0.4833750000000  0.5232060000000  0.4425660000000 1.0
C      1  0.4889730000000  0.4739430000000  0.4428100000000 1.0
C      1  0.4928720000000  0.5456260000000  0.4591070000000 1.0
C      1  0.4651690000000  0.4709780000000  0.4598610000000 1.0
C      1  0.5437430000000  0.4840680000000  0.4594410000000 1.0
C      1  0.5036510000000  0.4540660000000  0.4589400000000 1.0
C      1  0.5394180000000  0.5258040000000  0.4579890000000 1.0
C      1  0.4591090000000  0.5206800000000  0.4592980000000 1.0
C      1  0.5232310000000  0.5493990000000  0.4977440000000 1.0
C      1  0.4481220000000  0.4949800000000  0.5002870000000 1.0
C      1  0.5313410000000  0.4581220000000  0.5000630000000 1.0
C      1  0.4863370000000  0.5306540000000  0.5504950000000 1.0
C      1  0.4813740000000  0.4648420000000  0.5513980000000 1.0
C      1  0.5342040000000  0.5113110000000  0.5506500000000 1.0
C      1  0.4713450000000  0.5008070000000  0.5172220000000 1.0
C      1  0.5147060000000  0.4755880000000  0.5168550000000 1.0
C      1  0.5149460000000  0.5267800000000  0.5140920000000 1.0
C      1  0.5602960000000  0.5089780000000  0.5040130000000 1.0
C      1  0.4634770000000  0.5486820000000  0.5045620000000 1.0
C      1  0.4773440000000  0.4427620000000  0.5040510000000 1.0
C      1  0.5070030000000  0.5540230000000  0.5220870000000 1.0
C      1  0.4529750000000  0.4788300000000  0.5245680000000 1.0
C      1  0.5428800000000  0.4717280000000  0.5234180000000 1.0
C      1  0.4954160000000  0.4813400000000  0.5681350000000 1.0
C      1  0.5061990000000  0.5105930000000  0.5584800000000 1.0
C      1  0.5003830000000  0.5011600000000  0.5125810000000 1.0
C      1  0.5004920000000  0.5001700000000  0.4365390000000 1.0
END
