TITL C-2441165-58-1248 0.0752710308037669 125000 -23343.188798716 0 0 169 (C1) n - 1
REM
REM in /home/bkarasulu/work/CARBON/AIRSS/Generating-Clusters/ReaxFF-fromJPCA2015/Units_Real/with-SteepDescent/Higher-Symm
REM
REM
REM
REM
REM
REM ./C.cell (1df0a924f5614ab8850e4351716899ee)
REM
REM compiler GCC version 9.2.1 20190827 (Red Hat 9.2.1-1)
REM options -cpp -mtune=generic -march=x86-64 -g -O0 -fpre-include=/usr/include/finclude/math-vector-fortran.h
REM seed -488605212 -1820561605 474103426 -796186274 -2074509572 -1872212042 11831588 1555616141 1470776250 1759698584 -1950364713 -966514014 940429493 -1313307411 1147331859 218461510 -1899836821 -1813857674 536745856 -385001769 1747864100 -1795463380 -1827532253 767265725 -1275962135 1843400008 -465060544 1265236591 1915684243 -718730920 64395342 1376149838 -285388559
REM
CELL 1.54180   50.00000   50.00000   50.00000   90.00000   90.00000   90.00000
LATT -1
SFAC C  
C      1  0.4017430000000  0.4967340000000  0.5101650000000 1.0
C      1  0.5429360000000  0.5009130000000  0.5406290000000 1.0
C      1  0.4298590000000  0.5005640000000  0.5200090000000 1.0
C      1  0.4878940000000  0.5080190000000  0.6121930000000 1.0
C      1  0.5407880000000  0.4714110000000  0.4697180000000 1.0
C      1  0.4386300000000  0.5123510000000  0.4547020000000 1.0
C      1  0.4954800000000  0.4728750000000  0.4311700000000 1.0
C      1  0.5245820000000  0.4552190000000  0.5960370000000 1.0
C      1  0.4433090000000  0.5419570000000  0.5537170000000 1.0
C      1  0.4969710000000  0.4553760000000  0.5991000000000 1.0
C      1  0.4453060000000  0.4570640000000  0.5671990000000 1.0
C      1  0.4267090000000  0.4568110000000  0.4492960000000 1.0
C      1  0.4201140000000  0.4518760000000  0.5542390000000 1.0
C      1  0.5154300000000  0.5624420000000  0.4417790000000 1.0
C      1  0.5361370000000  0.3984190000000  0.4670190000000 1.0
C      1  0.4611300000000  0.5090210000000  0.4114860000000 1.0
C      1  0.4688280000000  0.4437370000000  0.4933860000000 1.0
C      1  0.4748830000000  0.5533080000000  0.4256780000000 1.0
C      1  0.4121180000000  0.4554100000000  0.5001070000000 1.0
C      1  0.4840640000000  0.4825920000000  0.5984250000000 1.0
C      1  0.5220840000000  0.5722580000000  0.5604670000000 1.0
C      1  0.5191410000000  0.4992160000000  0.5068280000000 1.0
C      1  0.5453280000000  0.4540270000000  0.5770160000000 1.0
C      1  0.5986160000000  0.4784520000000  0.4882770000000 1.0
C      1  0.5309970000000  0.3997470000000  0.4954400000000 1.0
C      1  0.4910430000000  0.4342530000000  0.5775880000000 1.0
C      1  0.5511440000000  0.4735320000000  0.4969280000000 1.0
C      1  0.5936000000000  0.5428060000000  0.5126940000000 1.0
C      1  0.4439940000000  0.5323250000000  0.5959590000000 1.0
C      1  0.4725910000000  0.5323240000000  0.6032350000000 1.0
C      1  0.4371160000000  0.5269670000000  0.5104130000000 1.0
C      1  0.5935130000000  0.5372890000000  0.4509470000000 1.0
C      1  0.5154300000000  0.4450810000000  0.5130050000000 1.0
C      1  0.4390370000000  0.4785090000000  0.5023520000000 1.0
C      1  0.5342940000000  0.4792980000000  0.5608370000000 1.0
C      1  0.6224730000000  0.5211210000000  0.5083980000000 1.0
C      1  0.4007380000000  0.5475120000000  0.4895080000000 1.0
C      1  0.4735060000000  0.6040610000000  0.4876120000000 1.0
C      1  0.4539330000000  0.5008360000000  0.5649470000000 1.0
C      1  0.5473310000000  0.4130370000000  0.5405730000000 1.0
C      1  0.4418210000000  0.4713810000000  0.4298390000000 1.0
C      1  0.5666350000000  0.4279070000000  0.5231640000000 1.0
C      1  0.4608470000000  0.5520210000000  0.4505430000000 1.0
C      1  0.5213460000000  0.5819780000000  0.5330170000000 1.0
C      1  0.5798940000000  0.4575870000000  0.4490090000000 1.0
C      1  0.5614610000000  0.5739930000000  0.5407920000000 1.0
C      1  0.5149990000000  0.6078340000000  0.5214200000000 1.0
C      1  0.4563590000000  0.4219030000000  0.5400840000000 1.0
C      1  0.5658290000000  0.4639540000000  0.4233700000000 1.0
C      1  0.5233950000000  0.5525690000000  0.4154180000000 1.0
C      1  0.5268420000000  0.5244880000000  0.5397960000000 1.0
C      1  0.5809390000000  0.5563390000000  0.4694430000000 1.0
C      1  0.5178650000000  0.4842620000000  0.3874070000000 1.0
C      1  0.5079600000000  0.4727690000000  0.5499040000000 1.0
C      1  0.5855250000000  0.5227880000000  0.5556870000000 1.0
C      1  0.4678200000000  0.4211880000000  0.5121870000000 1.0
C      1  0.5061850000000  0.5231620000000  0.5150960000000 1.0
C      1  0.5485980000000  0.4987720000000  0.5119330000000 1.0
C      1  0.5863620000000  0.5197100000000  0.5268530000000 1.0
C      1  0.4157880000000  0.5074500000000  0.4348850000000 1.0
C      1  0.4625640000000  0.4177480000000  0.4517390000000 1.0
C      1  0.4808630000000  0.4061840000000  0.4708480000000 1.0
C      1  0.4823510000000  0.3997600000000  0.4993170000000 1.0
C      1  0.5764810000000  0.5378110000000  0.4912480000000 1.0
C      1  0.5201450000000  0.5250770000000  0.5674460000000 1.0
C      1  0.5950060000000  0.4799360000000  0.4609230000000 1.0
C      1  0.5816160000000  0.5677350000000  0.5221090000000 1.0
C      1  0.4504190000000  0.4790180000000  0.5468840000000 1.0
C      1  0.5209640000000  0.4267010000000  0.4920620000000 1.0
C      1  0.5405250000000  0.4265010000000  0.5661050000000 1.0
C      1  0.5396690000000  0.5506350000000  0.4543870000000 1.0
C      1  0.4887330000000  0.6102200000000  0.5358630000000 1.0
C      1  0.5125020000000  0.4189380000000  0.5639730000000 1.0
C      1  0.5146830000000  0.5046120000000  0.4520520000000 1.0
C      1  0.5738960000000  0.4348860000000  0.4670140000000 1.0
C      1  0.4304340000000  0.5774650000000  0.4890160000000 1.0
C      1  0.5131000000000  0.5646650000000  0.4887950000000 1.0
C      1  0.4996020000000  0.4165850000000  0.4163430000000 1.0
C      1  0.4877020000000  0.4611560000000  0.4563760000000 1.0
C      1  0.4641450000000  0.5045460000000  0.4414740000000 1.0
C      1  0.4590860000000  0.5309680000000  0.4934420000000 1.0
C      1  0.5037350000000  0.5657210000000  0.5159050000000 1.0
C      1  0.4772650000000  0.5908530000000  0.5543390000000 1.0
C      1  0.6015090000000  0.4978490000000  0.5124870000000 1.0
C      1  0.4708100000000  0.5533050000000  0.4776240000000 1.0
C      1  0.5796960000000  0.4725050000000  0.5501750000000 1.0
C      1  0.3992300000000  0.4907610000000  0.4793460000000 1.0
C      1  0.4299540000000  0.5226490000000  0.4150300000000 1.0
C      1  0.5643170000000  0.5368430000000  0.5718260000000 1.0
C      1  0.3935410000000  0.5078950000000  0.4567870000000 1.0
C      1  0.5701110000000  0.5068110000000  0.4418420000000 1.0
C      1  0.4436010000000  0.5577100000000  0.5797670000000 1.0
C      1  0.4895730000000  0.5542950000000  0.5932780000000 1.0
C      1  0.5537060000000  0.5649250000000  0.5136270000000 1.0
C      1  0.4349860000000  0.5418870000000  0.4506230000000 1.0
C      1  0.5754170000000  0.5332780000000  0.4294530000000 1.0
C      1  0.5401090000000  0.4591960000000  0.5187020000000 1.0
C      1  0.5534220000000  0.4182240000000  0.4549900000000 1.0
C      1  0.4921030000000  0.4959510000000  0.5478270000000 1.0
C      1  0.4864440000000  0.5103130000000  0.4602280000000 1.0
C      1  0.5086330000000  0.4160550000000  0.4661450000000 1.0
C      1  0.5187430000000  0.4042270000000  0.5380500000000 1.0
C      1  0.3821860000000  0.5294730000000  0.4744680000000 1.0
C      1  0.5075250000000  0.4820100000000  0.4913460000000 1.0
C      1  0.5109390000000  0.4626560000000  0.4737590000000 1.0
C      1  0.4338340000000  0.4209740000000  0.4820930000000 1.0
C      1  0.4808410000000  0.5807190000000  0.4309390000000 1.0
C      1  0.4647150000000  0.4347760000000  0.5656840000000 1.0
C      1  0.5506520000000  0.5353190000000  0.5030970000000 1.0
C      1  0.5080570000000  0.3936760000000  0.5132170000000 1.0
C      1  0.5399920000000  0.5816900000000  0.4873940000000 1.0
C      1  0.4293420000000  0.5731050000000  0.5176650000000 1.0
C      1  0.4315470000000  0.5086550000000  0.5812480000000 1.0
C      1  0.4676460000000  0.6065180000000  0.5165150000000 1.0
C      1  0.5347680000000  0.5289070000000  0.4784520000000 1.0
C      1  0.5420940000000  0.5010830000000  0.4632820000000 1.0
C      1  0.5792010000000  0.4329740000000  0.4967870000000 1.0
C      1  0.5242240000000  0.5109830000000  0.3876360000000 1.0
C      1  0.5157780000000  0.5156360000000  0.6074560000000 1.0
C      1  0.3955730000000  0.4713230000000  0.5212910000000 1.0
C      1  0.5368900000000  0.4409620000000  0.4426080000000 1.0
C      1  0.5184030000000  0.4900870000000  0.4289380000000 1.0
C      1  0.4818170000000  0.5310240000000  0.4080230000000 1.0
C      1  0.4192170000000  0.5574590000000  0.4699900000000 1.0
C      1  0.4687500000000  0.5355260000000  0.5371210000000 1.0
C      1  0.5586980000000  0.5113360000000  0.5847950000000 1.0
C      1  0.5318900000000  0.5032870000000  0.5853400000000 1.0
C      1  0.5109080000000  0.4303050000000  0.4414060000000 1.0
C      1  0.4637460000000  0.4661950000000  0.5094950000000 1.0
C      1  0.5962310000000  0.5084360000000  0.4550380000000 1.0
C      1  0.4093720000000  0.4650780000000  0.4720240000000 1.0
C      1  0.4163310000000  0.5468020000000  0.5191440000000 1.0
C      1  0.4602390000000  0.4771360000000  0.4098800000000 1.0
C      1  0.4762800000000  0.5585410000000  0.5235500000000 1.0
C      1  0.4622250000000  0.4596560000000  0.4690910000000 1.0
C      1  0.5954320000000  0.4557560000000  0.5045310000000 1.0
C      1  0.4807490000000  0.4975560000000  0.5733640000000 1.0
C      1  0.4560180000000  0.5814410000000  0.5295860000000 1.0
C      1  0.4220240000000  0.4273340000000  0.5065060000000 1.0
C      1  0.4728990000000  0.5061740000000  0.4864510000000 1.0
C      1  0.5568940000000  0.5720840000000  0.4647900000000 1.0
C      1  0.4112640000000  0.5050800000000  0.5601270000000 1.0
C      1  0.4520830000000  0.4865550000000  0.4777470000000 1.0
C      1  0.5064690000000  0.5366530000000  0.4856800000000 1.0
C      1  0.4165550000000  0.5305650000000  0.5483430000000 1.0
C      1  0.5146600000000  0.5400700000000  0.5917850000000 1.0
C      1  0.5604000000000  0.4526390000000  0.5389460000000 1.0
C      1  0.4817840000000  0.5117300000000  0.5258370000000 1.0
C      1  0.5210900000000  0.6058480000000  0.4927520000000 1.0
C      1  0.4715150000000  0.4653150000000  0.5326420000000 1.0
C      1  0.5494200000000  0.5611880000000  0.5637800000000 1.0
C      1  0.5991130000000  0.4716720000000  0.5291150000000 1.0
C      1  0.4295250000000  0.4303810000000  0.5356810000000 1.0
C      1  0.4939050000000  0.5731610000000  0.5703960000000 1.0
C      1  0.5399610000000  0.4519610000000  0.4155020000000 1.0
C      1  0.5018490000000  0.5896090000000  0.4474360000000 1.0
C      1  0.5160240000000  0.4592490000000  0.3987830000000 1.0
C      1  0.4968870000000  0.4521070000000  0.5342190000000 1.0
C      1  0.5397240000000  0.5059670000000  0.4134950000000 1.0
C      1  0.5082490000000  0.5340320000000  0.3982070000000 1.0
C      1  0.4354040000000  0.4266130000000  0.4559280000000 1.0
C      1  0.4828510000000  0.4565800000000  0.4095300000000 1.0
C      1  0.4992680000000  0.6050220000000  0.4737030000000 1.0
C      1  0.5642480000000  0.4919230000000  0.4185210000000 1.0
C      1  0.4739010000000  0.4289140000000  0.4241440000000 1.0
C      1  0.5471910000000  0.5370890000000  0.4230860000000 1.0
C      1  0.4587550000000  0.5799790000000  0.4812060000000 1.0
C      1  0.4056000000000  0.4771620000000  0.5475690000000 1.0
C      1  0.5776960000000  0.4970820000000  0.5674430000000 1.0
END
