TITL C-2441158-471-532 0.0056003810008229 125000 -8572.26758989154 0 0 63 (C1) n - 1
REM
REM in /home/bkarasulu/work/CARBON/AIRSS/Generating-Clusters/ReaxFF-fromJPCA2015/Units_Real/with-SteepDescent/Higher-Symm
REM
REM
REM
REM
REM
REM ./C.cell (1df0a924f5614ab8850e4351716899ee)
REM
REM compiler GCC version 9.2.1 20190827 (Red Hat 9.2.1-1)
REM options -cpp -mtune=generic -march=x86-64 -g -O0 -fpre-include=/usr/include/finclude/math-vector-fortran.h
REM seed -1638994337 -919505223 -1543155978 -394124045 -835612141 -1473584455 388346305 -1986931351 -1992867426 1412798261 749125821 -903935650 -1727263175 641491974 -266348903 445318870 1373680246 -2127467792 -211964522 427406895 -2039310575 1052220428 1315520484 1294729070 -95489992 1875277212 -943986605 -1838024597 1409974434 189596805 730008341 -2065983999 -1569962628
REM
CELL 1.54180   50.00000   50.00000   50.00000   90.00000   90.00000   90.00000
LATT -1
SFAC C  
C      1  0.4722940000000  0.5284990000000  0.5169750000000 1.0
C      1  0.4726110000000  0.4770330000000  0.4794230000000 1.0
C      1  0.5262750000000  0.4725260000000  0.5189580000000 1.0
C      1  0.5271930000000  0.5250370000000  0.4899110000000 1.0
C      1  0.5317220000000  0.5557610000000  0.5264620000000 1.0
C      1  0.5285710000000  0.4432620000000  0.4733220000000 1.0
C      1  0.4672220000000  0.4462560000000  0.5334290000000 1.0
C      1  0.4690590000000  0.5554460000000  0.4661800000000 1.0
C      1  0.4432870000000  0.4631280000000  0.5244220000000 1.0
C      1  0.4427970000000  0.5379000000000  0.4679780000000 1.0
C      1  0.5544250000000  0.5362810000000  0.5232940000000 1.0
C      1  0.5495600000000  0.4642050000000  0.4774510000000 1.0
C      1  0.5374570000000  0.5579700000000  0.4546270000000 1.0
C      1  0.5444540000000  0.4498420000000  0.5250960000000 1.0
C      1  0.4558170000000  0.4537300000000  0.4724430000000 1.0
C      1  0.4613070000000  0.5511400000000  0.5370770000000 1.0
C      1  0.4732010000000  0.4831000000000  0.5071270000000 1.0
C      1  0.4734480000000  0.5197670000000  0.4891150000000 1.0
C      1  0.5157350000000  0.5156350000000  0.5136490000000 1.0
C      1  0.5095980000000  0.4711510000000  0.4971710000000 1.0
C      1  0.4376870000000  0.4631310000000  0.4950780000000 1.0
C      1  0.4380670000000  0.5395880000000  0.4969800000000 1.0
C      1  0.5554870000000  0.5324130000000  0.4942680000000 1.0
C      1  0.5620420000000  0.4634950000000  0.5039970000000 1.0
C      1  0.4944830000000  0.4874960000000  0.4633580000000 1.0
C      1  0.4770250000000  0.5107420000000  0.5386970000000 1.0
C      1  0.5203430000000  0.5067940000000  0.4671790000000 1.0
C      1  0.5271820000000  0.4971180000000  0.5318910000000 1.0
C      1  0.5211090000000  0.4996290000000  0.5714170000000 1.0
C      1  0.5258380000000  0.5124260000000  0.4235640000000 1.0
C      1  0.4691250000000  0.5035330000000  0.5791510000000 1.0
C      1  0.4729080000000  0.4884100000000  0.4251760000000 1.0
C      1  0.5041820000000  0.5259160000000  0.4418890000000 1.0
C      1  0.5020460000000  0.4764410000000  0.5545040000000 1.0
C      1  0.5000110000000  0.4719150000000  0.4386590000000 1.0
C      1  0.4878490000000  0.5205640000000  0.5632890000000 1.0
C      1  0.4881590000000  0.5623210000000  0.5395700000000 1.0
C      1  0.4802070000000  0.4370060000000  0.4666910000000 1.0
C      1  0.5194590000000  0.4343450000000  0.5275050000000 1.0
C      1  0.5187490000000  0.5640320000000  0.4717380000000 1.0
C      1  0.5144820000000  0.5500140000000  0.5499080000000 1.0
C      1  0.5051970000000  0.4459500000000  0.4551500000000 1.0
C      1  0.4976540000000  0.4505340000000  0.5417910000000 1.0
C      1  0.4963460000000  0.5514690000000  0.4545730000000 1.0
C      1  0.5656720000000  0.5064320000000  0.4850910000000 1.0
C      1  0.5684130000000  0.4913660000000  0.5103380000000 1.0
C      1  0.4325460000000  0.4921620000000  0.4880900000000 1.0
C      1  0.4325520000000  0.5128340000000  0.5086180000000 1.0
C      1  0.4653310000000  0.5613580000000  0.4932650000000 1.0
C      1  0.4674530000000  0.4365540000000  0.5070760000000 1.0
C      1  0.5215040000000  0.4287440000000  0.4986160000000 1.0
C      1  0.5167410000000  0.5664140000000  0.5037450000000 1.0
C      1  0.4512940000000  0.5095100000000  0.4719940000000 1.0
C      1  0.4515520000000  0.4927210000000  0.5261680000000 1.0
C      1  0.5472790000000  0.4919860000000  0.4671850000000 1.0
C      1  0.5551460000000  0.5080650000000  0.5314120000000 1.0
C      1  0.5286670000000  0.4843770000000  0.4299470000000 1.0
C      1  0.5252870000000  0.5253960000000  0.5603510000000 1.0
C      1  0.4754640000000  0.5152340000000  0.4308340000000 1.0
C      1  0.4739800000000  0.4758820000000  0.5656110000000 1.0
C      1  0.4936810000000  0.4415160000000  0.4936640000000 1.0
C      1  0.4889790000000  0.5687440000000  0.5098280000000 1.0
C      1  0.4966640000000  0.4982470000000  0.5010010000000 1.0
END
