TITL C-2441161-5029-611 0.0214292058808537 125000 -10271.7076966418 0 0 75 (C1) n - 1
REM
REM in /home/bkarasulu/work/CARBON/AIRSS/Generating-Clusters/ReaxFF-fromJPCA2015/Units_Real/with-SteepDescent/Higher-Symm
REM
REM
REM
REM
REM
REM ./C.cell (1df0a924f5614ab8850e4351716899ee)
REM
REM compiler GCC version 9.2.1 20190827 (Red Hat 9.2.1-1)
REM options -cpp -mtune=generic -march=x86-64 -g -O0 -fpre-include=/usr/include/finclude/math-vector-fortran.h
REM seed 806802732 1637382404 -8833402 -1647588963 883433250 1238439530 96281117 1151464445 1102482445 1330924860 -1548310346 138863186 1544877056 -816824092 -1226736722 815667390 -82017943 -1064497883 569493172 1358174626 -535627061 41678068 1666761845 1010501249 -476867933 587487970 -607042770 -1819202452 1787652913 -281431202 -956772880 1922919998 1564752186
REM
CELL 1.54180   50.00000   50.00000   50.00000   90.00000   90.00000   90.00000
LATT -1
SFAC C  
C      1  0.5577230000000  0.4435790000000  0.4753560000000 1.0
C      1  0.5249300000000  0.5545090000000  0.5581360000000 1.0
C      1  0.4431790000000  0.4450550000000  0.5236180000000 1.0
C      1  0.4757270000000  0.5571230000000  0.4444590000000 1.0
C      1  0.4523160000000  0.4583240000000  0.5492670000000 1.0
C      1  0.4516060000000  0.5418380000000  0.4528820000000 1.0
C      1  0.5485910000000  0.4584640000000  0.4512310000000 1.0
C      1  0.5497330000000  0.5417500000000  0.5478840000000 1.0
C      1  0.5614640000000  0.5485680000000  0.5213620000000 1.0
C      1  0.4787930000000  0.4554370000000  0.5634470000000 1.0
C      1  0.4394740000000  0.5460760000000  0.4794490000000 1.0
C      1  0.5221190000000  0.4518770000000  0.4392940000000 1.0
C      1  0.5145940000000  0.5246190000000  0.4286820000000 1.0
C      1  0.5728050000000  0.4755620000000  0.5145120000000 1.0
C      1  0.4855000000000  0.5195780000000  0.5735860000000 1.0
C      1  0.4300470000000  0.4817980000000  0.4878820000000 1.0
C      1  0.5632210000000  0.4498040000000  0.5051050000000 1.0
C      1  0.4961700000000  0.5442500000000  0.5636290000000 1.0
C      1  0.4378590000000  0.4545240000000  0.4954460000000 1.0
C      1  0.5051210000000  0.5500810000000  0.4395670000000 1.0
C      1  0.5280910000000  0.4533240000000  0.5492260000000 1.0
C      1  0.4538310000000  0.5474720000000  0.5272580000000 1.0
C      1  0.4745820000000  0.4531790000000  0.4546540000000 1.0
C      1  0.5471700000000  0.5482710000000  0.4735310000000 1.0
C      1  0.5121380000000  0.5075860000000  0.5400720000000 1.0
C      1  0.4535730000000  0.4883240000000  0.5099250000000 1.0
C      1  0.4933000000000  0.5116820000000  0.4468690000000 1.0
C      1  0.5496300000000  0.4863450000000  0.4931400000000 1.0
C      1  0.4883150000000  0.4915680000000  0.5448680000000 1.0
C      1  0.4602610000000  0.5075590000000  0.4908660000000 1.0
C      1  0.5116530000000  0.4920000000000  0.4520060000000 1.0
C      1  0.5473110000000  0.5070060000000  0.5114420000000 1.0
C      1  0.4441890000000  0.4859550000000  0.5555940000000 1.0
C      1  0.4460790000000  0.5133130000000  0.4452520000000 1.0
C      1  0.5549950000000  0.4869550000000  0.4448900000000 1.0
C      1  0.5562360000000  0.5136580000000  0.5545530000000 1.0
C      1  0.5340810000000  0.5080790000000  0.4432580000000 1.0
C      1  0.5586040000000  0.4925870000000  0.5338970000000 1.0
C      1  0.4657590000000  0.5069220000000  0.5570670000000 1.0
C      1  0.4456750000000  0.4929540000000  0.4660900000000 1.0
C      1  0.4336330000000  0.5220100000000  0.4946310000000 1.0
C      1  0.5053190000000  0.4737750000000  0.4309840000000 1.0
C      1  0.5686190000000  0.5258260000000  0.5049200000000 1.0
C      1  0.4939660000000  0.4798920000000  0.5712130000000 1.0
C      1  0.5198860000000  0.5686730000000  0.5350500000000 1.0
C      1  0.4675220000000  0.4315840000000  0.5213810000000 1.0
C      1  0.4765620000000  0.5720850000000  0.4683220000000 1.0
C      1  0.5335090000000  0.4288810000000  0.4777230000000 1.0
C      1  0.5135230000000  0.4432660000000  0.4831800000000 1.0
C      1  0.5193780000000  0.5610890000000  0.5111070000000 1.0
C      1  0.4887840000000  0.4451090000000  0.5184750000000 1.0
C      1  0.4802260000000  0.5637120000000  0.4905340000000 1.0
C      1  0.4978490000000  0.5278690000000  0.4748680000000 1.0
C      1  0.5260700000000  0.4678020000000  0.4981280000000 1.0
C      1  0.5013390000000  0.5274910000000  0.5209520000000 1.0
C      1  0.4785090000000  0.4731740000000  0.5029900000000 1.0
C      1  0.5468220000000  0.5606750000000  0.4995950000000 1.0
C      1  0.5011390000000  0.4442400000000  0.5493330000000 1.0
C      1  0.4537830000000  0.5604500000000  0.5008320000000 1.0
C      1  0.5008760000000  0.4412880000000  0.4562010000000 1.0
C      1  0.4646950000000  0.4577210000000  0.4824870000000 1.0
C      1  0.5184740000000  0.5465000000000  0.4660100000000 1.0
C      1  0.5374040000000  0.4528140000000  0.5201010000000 1.0
C      1  0.4807820000000  0.5424240000000  0.5379420000000 1.0
C      1  0.4334220000000  0.4989220000000  0.5325530000000 1.0
C      1  0.4683490000000  0.5004900000000  0.4322230000000 1.0
C      1  0.5654670000000  0.4990170000000  0.4685070000000 1.0
C      1  0.5305490000000  0.5031200000000  0.5628990000000 1.0
C      1  0.5230860000000  0.4748480000000  0.5688310000000 1.0
C      1  0.4331160000000  0.5266890000000  0.5238400000000 1.0
C      1  0.4761030000000  0.4723550000000  0.4326700000000 1.0
C      1  0.5673480000000  0.5271970000000  0.4755330000000 1.0
C      1  0.5008450000000  0.4285520000000  0.5013190000000 1.0
C      1  0.5000470000000  0.5752790000000  0.5011120000000 1.0
C      1  0.4911170000000  0.5114960000000  0.4973170000000 1.0
END
