TITL C-2441160-1326-1136 0.133245400707718 125000 -25477.8189291755 0 0 191 (C1) n - 1
REM
REM in /home/bkarasulu/work/CARBON/AIRSS/Generating-Clusters/ReaxFF-fromJPCA2015/Units_Real/with-SteepDescent/Higher-Symm
REM
REM
REM
REM
REM
REM ./C.cell (1df0a924f5614ab8850e4351716899ee)
REM
REM compiler GCC version 9.2.1 20190827 (Red Hat 9.2.1-1)
REM options -cpp -mtune=generic -march=x86-64 -g -O0 -fpre-include=/usr/include/finclude/math-vector-fortran.h
REM seed -1913902208 1043413978 1124168467 708377288 1293761641 -1689773441 494912940 66571413 -1131370463 1887264064 -1439396283 -2094353574 -165473368 1405489917 -823682616 87369450 -1702347783 433527524 1161754 933325482 -1471463681 928393016 -1176307318 399780062 1870363676 -644349078 145667986 808001091 1626708297 99137957 -411876019 -2094828353 1349497809
REM
CELL 1.54180   50.00000   50.00000   50.00000   90.00000   90.00000   90.00000
LATT -1
SFAC C  
C      1  0.4464050000000  0.5892480000000  0.5178120000000 1.0
C      1  0.4802590000000  0.5880190000000  0.5529500000000 1.0
C      1  0.5303130000000  0.5888720000000  0.5503500000000 1.0
C      1  0.5560760000000  0.5873800000000  0.5094010000000 1.0
C      1  0.5428410000000  0.5901830000000  0.4614410000000 1.0
C      1  0.4945440000000  0.5890870000000  0.4429970000000 1.0
C      1  0.4529180000000  0.5855930000000  0.4683040000000 1.0
C      1  0.6090110000000  0.5202690000000  0.4957710000000 1.0
C      1  0.5665990000000  0.5224690000000  0.4166580000000 1.0
C      1  0.4806850000000  0.5237690000000  0.3947350000000 1.0
C      1  0.4069900000000  0.5195050000000  0.4535130000000 1.0
C      1  0.4007310000000  0.5080730000000  0.5527440000000 1.0
C      1  0.4765590000000  0.5031990000000  0.6115460000000 1.0
C      1  0.5648120000000  0.5267870000000  0.5888860000000 1.0
C      1  0.5078930000000  0.5692690000000  0.5908890000000 1.0
C      1  0.5803410000000  0.5684320000000  0.5485490000000 1.0
C      1  0.5852190000000  0.5656770000000  0.4752030000000 1.0
C      1  0.5342930000000  0.5677170000000  0.4184170000000 1.0
C      1  0.4506660000000  0.5669880000000  0.4205360000000 1.0
C      1  0.4106130000000  0.5654410000000  0.4904320000000 1.0
C      1  0.4312020000000  0.5680920000000  0.5607200000000 1.0
C      1  0.4302850000000  0.4196780000000  0.5448200000000 1.0
C      1  0.4953970000000  0.4182710000000  0.5713040000000 1.0
C      1  0.5598640000000  0.4154210000000  0.5624920000000 1.0
C      1  0.5705840000000  0.4161950000000  0.4916510000000 1.0
C      1  0.5397780000000  0.4166740000000  0.4379730000000 1.0
C      1  0.4776330000000  0.4217610000000  0.4276280000000 1.0
C      1  0.4247860000000  0.4104890000000  0.4681600000000 1.0
C      1  0.5703150000000  0.5039840000000  0.4392350000000 1.0
C      1  0.5043560000000  0.5059210000000  0.3970290000000 1.0
C      1  0.4341460000000  0.5012690000000  0.4441210000000 1.0
C      1  0.4056630000000  0.5055270000000  0.5243780000000 1.0
C      1  0.4621360000000  0.4995800000000  0.5863660000000 1.0
C      1  0.5419610000000  0.5063190000000  0.5944600000000 1.0
C      1  0.5998250000000  0.4962410000000  0.5092560000000 1.0
C      1  0.5885000000000  0.5261390000000  0.4520540000000 1.0
C      1  0.5247320000000  0.5259710000000  0.3962570000000 1.0
C      1  0.4445030000000  0.5378950000000  0.4147650000000 1.0
C      1  0.3988210000000  0.5288480000000  0.5044510000000 1.0
C      1  0.4330260000000  0.5432100000000  0.5769370000000 1.0
C      1  0.5239330000000  0.5274840000000  0.6035150000000 1.0
C      1  0.5920350000000  0.5427350000000  0.5527900000000 1.0
C      1  0.5154350000000  0.5481380000000  0.5474660000000 1.0
C      1  0.5495200000000  0.5257940000000  0.5285150000000 1.0
C      1  0.5377960000000  0.5470360000000  0.4796440000000 1.0
C      1  0.5119150000000  0.5360120000000  0.4480770000000 1.0
C      1  0.4692880000000  0.5443230000000  0.4608950000000 1.0
C      1  0.4451610000000  0.5372930000000  0.4975230000000 1.0
C      1  0.4714090000000  0.5434660000000  0.5365770000000 1.0
C      1  0.4268220000000  0.4571450000000  0.4320200000000 1.0
C      1  0.3946630000000  0.4538720000000  0.5151890000000 1.0
C      1  0.4440580000000  0.4544470000000  0.5873960000000 1.0
C      1  0.5324510000000  0.4572380000000  0.5920620000000 1.0
C      1  0.6021610000000  0.4567500000000  0.5362280000000 1.0
C      1  0.5801800000000  0.4538000000000  0.4330430000000 1.0
C      1  0.4964970000000  0.4575600000000  0.3941280000000 1.0
C      1  0.4855350000000  0.5706960000000  0.5292470000000 1.0
C      1  0.5147550000000  0.5716120000000  0.5295920000000 1.0
C      1  0.5299310000000  0.5816310000000  0.5068280000000 1.0
C      1  0.5252440000000  0.5794090000000  0.4801070000000 1.0
C      1  0.4980380000000  0.5875760000000  0.4724440000000 1.0
C      1  0.4754320000000  0.5709800000000  0.4799790000000 1.0
C      1  0.4733000000000  0.5846090000000  0.5061620000000 1.0
C      1  0.5274690000000  0.4818520000000  0.6064890000000 1.0
C      1  0.6033600000000  0.4851860000000  0.5369530000000 1.0
C      1  0.5902390000000  0.4807440000000  0.4468040000000 1.0
C      1  0.5165230000000  0.4796870000000  0.3945350000000 1.0
C      1  0.4303970000000  0.4826980000000  0.4207450000000 1.0
C      1  0.3924440000000  0.4826060000000  0.5056960000000 1.0
C      1  0.4377650000000  0.4830180000000  0.5830350000000 1.0
C      1  0.5387920000000  0.5418680000000  0.4510410000000 1.0
C      1  0.4875900000000  0.5465970000000  0.4370110000000 1.0
C      1  0.4413270000000  0.5444410000000  0.4704280000000 1.0
C      1  0.4436850000000  0.5439650000000  0.5255250000000 1.0
C      1  0.4928410000000  0.5365290000000  0.5614650000000 1.0
C      1  0.5424880000000  0.5430230000000  0.5504060000000 1.0
C      1  0.5623400000000  0.5349690000000  0.4994710000000 1.0
C      1  0.4844250000000  0.4868720000000  0.4344200000000 1.0
C      1  0.4298920000000  0.4867010000000  0.4675580000000 1.0
C      1  0.4337950000000  0.4917500000000  0.5238920000000 1.0
C      1  0.4863590000000  0.4900390000000  0.5731710000000 1.0
C      1  0.5370780000000  0.4947740000000  0.5631070000000 1.0
C      1  0.5759250000000  0.4885280000000  0.4947130000000 1.0
C      1  0.5388620000000  0.4874350000000  0.4383440000000 1.0
C      1  0.4252600000000  0.4420070000000  0.4800930000000 1.0
C      1  0.4376930000000  0.4642470000000  0.5406410000000 1.0
C      1  0.4929300000000  0.4621340000000  0.5773390000000 1.0
C      1  0.5578860000000  0.4525520000000  0.5472200000000 1.0
C      1  0.5754990000000  0.4604550000000  0.4856850000000 1.0
C      1  0.5327990000000  0.4588680000000  0.4378990000000 1.0
C      1  0.4694110000000  0.4624190000000  0.4377600000000 1.0
C      1  0.4412950000000  0.4273510000000  0.5703030000000 1.0
C      1  0.5171450000000  0.4304990000000  0.5890410000000 1.0
C      1  0.5774280000000  0.4306240000000  0.5461420000000 1.0
C      1  0.5795460000000  0.4320060000000  0.4691750000000 1.0
C      1  0.5268980000000  0.4351640000000  0.4199940000000 1.0
C      1  0.4501600000000  0.4369240000000  0.4249880000000 1.0
C      1  0.4059920000000  0.4312020000000  0.4991930000000 1.0
C      1  0.4546620000000  0.4432710000000  0.4873420000000 1.0
C      1  0.4652230000000  0.4510190000000  0.5376680000000 1.0
C      1  0.4914140000000  0.4558420000000  0.5495890000000 1.0
C      1  0.5386220000000  0.4454480000000  0.5291810000000 1.0
C      1  0.5469100000000  0.4585140000000  0.4834180000000 1.0
C      1  0.5268390000000  0.4505320000000  0.4653310000000 1.0
C      1  0.4709540000000  0.4521050000000  0.4633890000000 1.0
C      1  0.5957720000000  0.5546580000000  0.5282340000000 1.0
C      1  0.5826370000000  0.5537990000000  0.4495800000000 1.0
C      1  0.5159090000000  0.5535100000000  0.4016890000000 1.0
C      1  0.4249980000000  0.5547720000000  0.4275770000000 1.0
C      1  0.3998530000000  0.5557430000000  0.5150070000000 1.0
C      1  0.4574140000000  0.5509450000000  0.5872330000000 1.0
C      1  0.5326620000000  0.5536390000000  0.5957190000000 1.0
C      1  0.5850240000000  0.4247490000000  0.5159090000000 1.0
C      1  0.5663880000000  0.4293000000000  0.4443500000000 1.0
C      1  0.4990700000000  0.4324640000000  0.4117690000000 1.0
C      1  0.4393890000000  0.4194590000000  0.4454600000000 1.0
C      1  0.4190480000000  0.4189750000000  0.5213220000000 1.0
C      1  0.4678620000000  0.4215150000000  0.5718220000000 1.0
C      1  0.5389780000000  0.4188140000000  0.5767690000000 1.0
C      1  0.5014850000000  0.4758420000000  0.5302500000000 1.0
C      1  0.5249610000000  0.4681610000000  0.5204450000000 1.0
C      1  0.5288690000000  0.4768420000000  0.4954030000000 1.0
C      1  0.5082390000000  0.4662140000000  0.4796620000000 1.0
C      1  0.4836650000000  0.4719220000000  0.4778590000000 1.0
C      1  0.4639980000000  0.4711610000000  0.4970180000000 1.0
C      1  0.4726470000000  0.4756440000000  0.5225590000000 1.0
C      1  0.5822690000000  0.4967610000000  0.5542110000000 1.0
C      1  0.6062730000000  0.4914980000000  0.4662730000000 1.0
C      1  0.5468300000000  0.4815820000000  0.3961140000000 1.0
C      1  0.4489410000000  0.4867500000000  0.3981870000000 1.0
C      1  0.3912650000000  0.4941870000000  0.4813270000000 1.0
C      1  0.4122070000000  0.4939200000000  0.5744850000000 1.0
C      1  0.5026080000000  0.4900920000000  0.6186830000000 1.0
C      1  0.5563550000000  0.5016360000000  0.5422930000000 1.0
C      1  0.5584330000000  0.5090020000000  0.4871150000000 1.0
C      1  0.5119940000000  0.4949070000000  0.4433750000000 1.0
C      1  0.4646570000000  0.5025320000000  0.4473270000000 1.0
C      1  0.4430790000000  0.4922760000000  0.4927010000000 1.0
C      1  0.4591640000000  0.4986870000000  0.5354730000000 1.0
C      1  0.5048970000000  0.5074300000000  0.5597010000000 1.0
C      1  0.4666240000000  0.4188950000000  0.5010470000000 1.0
C      1  0.4744960000000  0.4141090000000  0.5287780000000 1.0
C      1  0.5010880000000  0.4110700000000  0.5420470000000 1.0
C      1  0.5300890000000  0.4185160000000  0.5201350000000 1.0
C      1  0.5410280000000  0.4127680000000  0.4931320000000 1.0
C      1  0.5175610000000  0.4040850000000  0.4529390000000 1.0
C      1  0.4884030000000  0.4096910000000  0.4521300000000 1.0
C      1  0.5547810000000  0.5506950000000  0.5757990000000 1.0
C      1  0.5918550000000  0.5454270000000  0.5003840000000 1.0
C      1  0.5580790000000  0.5499040000000  0.4298800000000 1.0
C      1  0.4869670000000  0.5497980000000  0.4080730000000 1.0
C      1  0.4159750000000  0.5473840000000  0.4558750000000 1.0
C      1  0.4202720000000  0.5543380000000  0.5372240000000 1.0
C      1  0.4848810000000  0.5509400000000  0.5891020000000 1.0
C      1  0.5024220000000  0.3821620000000  0.5346970000000 1.0
C      1  0.5279740000000  0.3868180000000  0.5221710000000 1.0
C      1  0.5314030000000  0.3847780000000  0.4933500000000 1.0
C      1  0.5125660000000  0.3810570000000  0.4711440000000 1.0
C      1  0.4833060000000  0.3865020000000  0.4705500000000 1.0
C      1  0.4680940000000  0.3904810000000  0.4951930000000 1.0
C      1  0.4756710000000  0.3846860000000  0.5231170000000 1.0
C      1  0.5501840000000  0.5115700000000  0.3963220000000 1.0
C      1  0.4534660000000  0.5166760000000  0.3964500000000 1.0
C      1  0.3897750000000  0.5212110000000  0.4763760000000 1.0
C      1  0.4118710000000  0.5217970000000  0.5737180000000 1.0
C      1  0.5001570000000  0.5193750000000  0.6176510000000 1.0
C      1  0.5861610000000  0.5205380000000  0.5705010000000 1.0
C      1  0.6116910000000  0.5184220000000  0.4685080000000 1.0
C      1  0.5238610000000  0.5847840000000  0.4387290000000 1.0
C      1  0.4654960000000  0.5827970000000  0.4418200000000 1.0
C      1  0.4327910000000  0.5830120000000  0.4914890000000 1.0
C      1  0.4516240000000  0.5853310000000  0.5465940000000 1.0
C      1  0.5064740000000  0.5871650000000  0.5677810000000 1.0
C      1  0.5567080000000  0.5836640000000  0.5389560000000 1.0
C      1  0.5650010000000  0.5849010000000  0.4799260000000 1.0
C      1  0.5085020000000  0.5129820000000  0.4665410000000 1.0
C      1  0.4780840000000  0.5169410000000  0.4694100000000 1.0
C      1  0.4647080000000  0.5159250000000  0.4950970000000 1.0
C      1  0.4767410000000  0.5177960000000  0.5230950000000 1.0
C      1  0.5024330000000  0.5055370000000  0.5303950000000 1.0
C      1  0.5224780000000  0.5193300000000  0.5134180000000 1.0
C      1  0.5297950000000  0.5049850000000  0.4888950000000 1.0
C      1  0.5957240000000  0.4501410000000  0.5099180000000 1.0
C      1  0.5657990000000  0.4675860000000  0.4129370000000 1.0
C      1  0.4729520000000  0.4718630000000  0.3959260000000 1.0
C      1  0.4200230000000  0.4623640000000  0.4598540000000 1.0
C      1  0.4114160000000  0.4547470000000  0.5382360000000 1.0
C      1  0.4713930000000  0.4546660000000  0.5985140000000 1.0
C      1  0.5460240000000  0.4671460000000  0.5687270000000 1.0
C      1  0.4897860000000  0.6101120000000  0.4946780000000 1.0
C      1  0.5128550000000  0.5426210000000  0.4956620000000 1.0
END
