TITL C-2441156-4686-289 0.126258926244317 125000 -26521.2690201421 0 0 195 (C1) n - 1
REM
REM in /home/bkarasulu/work/CARBON/AIRSS/Generating-Clusters/ReaxFF-fromJPCA2015/Units_Real/with-SteepDescent/Higher-Symm
REM
REM
REM
REM
REM
REM ./C.cell (1df0a924f5614ab8850e4351716899ee)
REM
REM compiler GCC version 9.2.1 20190827 (Red Hat 9.2.1-1)
REM options -cpp -mtune=generic -march=x86-64 -g -O0 -fpre-include=/usr/include/finclude/math-vector-fortran.h
REM seed -1510858069 -967699860 -1488758337 -1770332402 -1932851390 -525666387 1358102525 1548557391 1396687603 -1676395560 -2078312963 -671564390 462684184 1061322643 -23068995 1411887961 -1325840553 522334811 -1510809691 262142689 -219285666 -943459848 -1549083421 -649043608 -546613457 1654711983 -201649643 -1288488621 728738742 1278251501 1648463448 -955529690 1088270109
REM
CELL 1.54180   50.00000   50.00000   50.00000   90.00000   90.00000   90.00000
LATT -1
SFAC C  
C      1  0.4487740000000  0.5932860000000  0.4704120000000 1.0
C      1  0.5441660000000  0.4073160000000  0.4764150000000 1.0
C      1  0.5700570000000  0.5651060000000  0.5180200000000 1.0
C      1  0.4292280000000  0.4336560000000  0.5139940000000 1.0
C      1  0.5235760000000  0.5434710000000  0.5960450000000 1.0
C      1  0.4719990000000  0.4615680000000  0.5959050000000 1.0
C      1  0.4631600000000  0.4400930000000  0.4200420000000 1.0
C      1  0.5365950000000  0.5589950000000  0.4188000000000 1.0
C      1  0.5626610000000  0.4743540000000  0.5249120000000 1.0
C      1  0.4393030000000  0.5229620000000  0.5274440000000 1.0
C      1  0.4901350000000  0.5717590000000  0.5276230000000 1.0
C      1  0.5292160000000  0.4239420000000  0.5490560000000 1.0
C      1  0.4786360000000  0.5465970000000  0.4737570000000 1.0
C      1  0.5161350000000  0.4508050000000  0.4756550000000 1.0
C      1  0.5465270000000  0.5109630000000  0.4783330000000 1.0
C      1  0.4522070000000  0.4913910000000  0.4769940000000 1.0
C      1  0.4069440000000  0.5488730000000  0.5549040000000 1.0
C      1  0.5956820000000  0.4508380000000  0.5516950000000 1.0
C      1  0.4395570000000  0.4998010000000  0.5708990000000 1.0
C      1  0.5618820000000  0.5031990000000  0.5769430000000 1.0
C      1  0.5620350000000  0.5788110000000  0.4536360000000 1.0
C      1  0.4374850000000  0.4253870000000  0.4607390000000 1.0
C      1  0.5935440000000  0.5532220000000  0.5314530000000 1.0
C      1  0.4072680000000  0.4471130000000  0.5332070000000 1.0
C      1  0.5354280000000  0.5995390000000  0.4868100000000 1.0
C      1  0.4610370000000  0.3979050000000  0.4938720000000 1.0
C      1  0.4598290000000  0.4416860000000  0.4727210000000 1.0
C      1  0.5426680000000  0.5546790000000  0.4832140000000 1.0
C      1  0.4375460000000  0.4405070000000  0.4339860000000 1.0
C      1  0.5631050000000  0.5597990000000  0.4313250000000 1.0
C      1  0.5947790000000  0.4803680000000  0.5123770000000 1.0
C      1  0.4073700000000  0.5194650000000  0.5142620000000 1.0
C      1  0.5232010000000  0.4146450000000  0.5723190000000 1.0
C      1  0.4717320000000  0.5872140000000  0.5666860000000 1.0
C      1  0.4785330000000  0.3865620000000  0.5133080000000 1.0
C      1  0.5215100000000  0.6158330000000  0.5090970000000 1.0
C      1  0.5856080000000  0.5392850000000  0.4808470000000 1.0
C      1  0.4125630000000  0.4590130000000  0.4819320000000 1.0
C      1  0.6004210000000  0.5047480000000  0.5522850000000 1.0
C      1  0.3973640000000  0.4943540000000  0.5570890000000 1.0
C      1  0.5209800000000  0.4921710000000  0.5979240000000 1.0
C      1  0.4866800000000  0.5146360000000  0.6022000000000 1.0
C      1  0.6010840000000  0.4397940000000  0.5031610000000 1.0
C      1  0.4004800000000  0.5609410000000  0.5066950000000 1.0
C      1  0.4885080000000  0.4056830000000  0.5335320000000 1.0
C      1  0.5118650000000  0.6098270000000  0.5350710000000 1.0
C      1  0.5971490000000  0.5165710000000  0.4452820000000 1.0
C      1  0.4017560000000  0.4830520000000  0.4432960000000 1.0
C      1  0.5039340000000  0.5352870000000  0.4820620000000 1.0
C      1  0.4921710000000  0.4681940000000  0.4785100000000 1.0
C      1  0.5656130000000  0.4013680000000  0.4975100000000 1.0
C      1  0.4393180000000  0.5957510000000  0.4989430000000 1.0
C      1  0.4258570000000  0.5732960000000  0.5113350000000 1.0
C      1  0.5747640000000  0.4280070000000  0.5067250000000 1.0
C      1  0.5476210000000  0.4840300000000  0.5924260000000 1.0
C      1  0.4485400000000  0.5012390000000  0.5959490000000 1.0
C      1  0.4981100000000  0.4672170000000  0.4319320000000 1.0
C      1  0.5038400000000  0.5373170000000  0.4332920000000 1.0
C      1  0.4496240000000  0.5503050000000  0.5158350000000 1.0
C      1  0.5558070000000  0.4506550000000  0.5087260000000 1.0
C      1  0.4679400000000  0.4873730000000  0.3909560000000 1.0
C      1  0.5325340000000  0.5126020000000  0.3903720000000 1.0
C      1  0.5540990000000  0.5418420000000  0.5122590000000 1.0
C      1  0.4462310000000  0.4570270000000  0.5120310000000 1.0
C      1  0.4706920000000  0.4892410000000  0.6070530000000 1.0
C      1  0.5149140000000  0.5184620000000  0.6080250000000 1.0
C      1  0.4213570000000  0.4643120000000  0.4309790000000 1.0
C      1  0.5798750000000  0.5355150000000  0.4305810000000 1.0
C      1  0.5026380000000  0.5596630000000  0.5853260000000 1.0
C      1  0.4943980000000  0.4440600000000  0.5905280000000 1.0
C      1  0.5967140000000  0.4644040000000  0.4881870000000 1.0
C      1  0.4027320000000  0.5358400000000  0.4905380000000 1.0
C      1  0.5516700000000  0.4592360000000  0.5533890000000 1.0
C      1  0.4456660000000  0.5231650000000  0.5563280000000 1.0
C      1  0.4754950000000  0.5935470000000  0.4557310000000 1.0
C      1  0.5331710000000  0.4092590000000  0.4439270000000 1.0
C      1  0.5038630000000  0.4628880000000  0.4015090000000 1.0
C      1  0.4964440000000  0.5381420000000  0.4028290000000 1.0
C      1  0.5007870000000  0.3872370000000  0.4922530000000 1.0
C      1  0.4950750000000  0.6109080000000  0.4969080000000 1.0
C      1  0.4789240000000  0.5372520000000  0.4466360000000 1.0
C      1  0.5201890000000  0.4635370000000  0.4495780000000 1.0
C      1  0.3944210000000  0.4921080000000  0.5119220000000 1.0
C      1  0.6081760000000  0.5081070000000  0.5089370000000 1.0
C      1  0.5463860000000  0.3995350000000  0.5191990000000 1.0
C      1  0.4518780000000  0.6020580000000  0.5254240000000 1.0
C      1  0.5257780000000  0.5401390000000  0.3990510000000 1.0
C      1  0.4738060000000  0.4592070000000  0.3996990000000 1.0
C      1  0.5218090000000  0.4395340000000  0.4093280000000 1.0
C      1  0.4782900000000  0.5630760000000  0.4108750000000 1.0
C      1  0.5226560000000  0.5742000000000  0.4931400000000 1.0
C      1  0.4703290000000  0.4251620000000  0.4933390000000 1.0
C      1  0.5159270000000  0.5798760000000  0.5699700000000 1.0
C      1  0.4814440000000  0.4227430000000  0.5736840000000 1.0
C      1  0.3879360000000  0.5229840000000  0.4678770000000 1.0
C      1  0.6118360000000  0.4774320000000  0.4666310000000 1.0
C      1  0.5578890000000  0.5266950000000  0.5603810000000 1.0
C      1  0.4381590000000  0.4745180000000  0.5570460000000 1.0
C      1  0.4503290000000  0.5461850000000  0.5734570000000 1.0
C      1  0.5458400000000  0.4571820000000  0.5821130000000 1.0
C      1  0.4988780000000  0.6002340000000  0.5585810000000 1.0
C      1  0.4976680000000  0.4032320000000  0.5613050000000 1.0
C      1  0.5657550000000  0.4267040000000  0.4617290000000 1.0
C      1  0.4310940000000  0.5753590000000  0.4562800000000 1.0
C      1  0.4422020000000  0.5079940000000  0.4339230000000 1.0
C      1  0.5562480000000  0.4943070000000  0.4360340000000 1.0
C      1  0.5703250000000  0.4550680000000  0.4661000000000 1.0
C      1  0.4286700000000  0.5464250000000  0.4694520000000 1.0
C      1  0.6018330000000  0.5243800000000  0.5310130000000 1.0
C      1  0.3992660000000  0.4755330000000  0.5348190000000 1.0
C      1  0.5855000000000  0.5663830000000  0.5562830000000 1.0
C      1  0.4146420000000  0.4301750000000  0.5550090000000 1.0
C      1  0.5910190000000  0.4683030000000  0.4491060000000 1.0
C      1  0.4091730000000  0.5319340000000  0.4512480000000 1.0
C      1  0.4443200000000  0.5707860000000  0.4324560000000 1.0
C      1  0.5556350000000  0.4241810000000  0.4349750000000 1.0
C      1  0.5404460000000  0.5344970000000  0.5383740000000 1.0
C      1  0.4554470000000  0.4670130000000  0.5366820000000 1.0
C      1  0.4858830000000  0.5296820000000  0.5492150000000 1.0
C      1  0.5070660000000  0.4713330000000  0.5527650000000 1.0
C      1  0.5188000000000  0.5742400000000  0.4374670000000 1.0
C      1  0.4810970000000  0.4198680000000  0.4331360000000 1.0
C      1  0.5067050000000  0.5363340000000  0.5098780000000 1.0
C      1  0.5078290000000  0.4512570000000  0.5135560000000 1.0
C      1  0.5114470000000  0.4931250000000  0.3887610000000 1.0
C      1  0.4885310000000  0.5078160000000  0.3899740000000 1.0
C      1  0.4721840000000  0.5517960000000  0.5363420000000 1.0
C      1  0.5246940000000  0.4499920000000  0.5422650000000 1.0
C      1  0.5356210000000  0.5915740000000  0.4575120000000 1.0
C      1  0.4684160000000  0.4057760000000  0.4549470000000 1.0
C      1  0.5717730000000  0.5649920000000  0.4775950000000 1.0
C      1  0.4198200000000  0.4314030000000  0.4843410000000 1.0
C      1  0.5228810000000  0.4397070000000  0.5885520000000 1.0
C      1  0.4737720000000  0.5626590000000  0.5816040000000 1.0
C      1  0.4686470000000  0.5105680000000  0.4464730000000 1.0
C      1  0.5307030000000  0.4900630000000  0.4486320000000 1.0
C      1  0.5810530000000  0.4937770000000  0.4452820000000 1.0
C      1  0.4174540000000  0.5063960000000  0.4441450000000 1.0
C      1  0.4898020000000  0.5790500000000  0.4321890000000 1.0
C      1  0.5111460000000  0.4206360000000  0.4288400000000 1.0
C      1  0.4124880000000  0.5028610000000  0.5787300000000 1.0
C      1  0.5884470000000  0.4977070000000  0.5757660000000 1.0
C      1  0.5436720000000  0.5760620000000  0.5652300000000 1.0
C      1  0.4550830000000  0.4264870000000  0.5636750000000 1.0
C      1  0.4664230000000  0.4678880000000  0.4671860000000 1.0
C      1  0.5293350000000  0.5324530000000  0.4688500000000 1.0
C      1  0.3846160000000  0.4940630000000  0.4644110000000 1.0
C      1  0.6161310000000  0.5063740000000  0.4650780000000 1.0
C      1  0.5588180000000  0.4730300000000  0.4105680000000 1.0
C      1  0.4409960000000  0.5254500000000  0.4098460000000 1.0
C      1  0.5666980000000  0.5225130000000  0.4947540000000 1.0
C      1  0.4348070000000  0.4747530000000  0.4934910000000 1.0
C      1  0.6067860000000  0.4562670000000  0.5256500000000 1.0
C      1  0.3951320000000  0.5435540000000  0.5292370000000 1.0
C      1  0.5420960000000  0.4617310000000  0.4852640000000 1.0
C      1  0.4532290000000  0.5450250000000  0.4863200000000 1.0
C      1  0.4991570000000  0.4768330000000  0.5260180000000 1.0
C      1  0.5012840000000  0.5162600000000  0.5290250000000 1.0
C      1  0.5249010000000  0.4040840000000  0.4992210000000 1.0
C      1  0.4782480000000  0.5948350000000  0.5155350000000 1.0
C      1  0.6115620000000  0.5257650000000  0.4862620000000 1.0
C      1  0.3894210000000  0.4773910000000  0.4875280000000 1.0
C      1  0.4500090000000  0.5540690000000  0.4107380000000 1.0
C      1  0.5495880000000  0.4459550000000  0.4131490000000 1.0
C      1  0.6014130000000  0.4775530000000  0.5618110000000 1.0
C      1  0.3979820000000  0.5224370000000  0.5646030000000 1.0
C      1  0.5401550000000  0.4919670000000  0.5189300000000 1.0
C      1  0.4627360000000  0.5085710000000  0.5160130000000 1.0
C      1  0.4897190000000  0.3949150000000  0.4669810000000 1.0
C      1  0.4981100000000  0.5982520000000  0.4710520000000 1.0
C      1  0.4314410000000  0.5644310000000  0.5612460000000 1.0
C      1  0.5697560000000  0.4371210000000  0.5547860000000 1.0
C      1  0.4240490000000  0.4535250000000  0.5713780000000 1.0
C      1  0.5722770000000  0.5474290000000  0.5747990000000 1.0
C      1  0.4493910000000  0.4459120000000  0.5846180000000 1.0
C      1  0.5479300000000  0.5574350000000  0.5864750000000 1.0
C      1  0.5069850000000  0.4912690000000  0.5724880000000 1.0
C      1  0.4907280000000  0.5148120000000  0.5728970000000 1.0
C      1  0.5610410000000  0.5168690000000  0.4198400000000 1.0
C      1  0.4388510000000  0.4843540000000  0.4196320000000 1.0
C      1  0.4421070000000  0.5001740000000  0.3960940000000 1.0
C      1  0.5580450000000  0.4989750000000  0.3972660000000 1.0
C      1  0.5164420000000  0.5616130000000  0.5191440000000 1.0
C      1  0.4885500000000  0.4300830000000  0.5164600000000 1.0
C      1  0.4738260000000  0.5065180000000  0.4902870000000 1.0
C      1  0.5305630000000  0.4909600000000  0.4923520000000 1.0
C      1  0.4893130000000  0.4941040000000  0.4364680000000 1.0
C      1  0.5125720000000  0.5102230000000  0.4390990000000 1.0
C      1  0.5629610000000  0.5796830000000  0.5431600000000 1.0
C      1  0.4375790000000  0.4190360000000  0.5415570000000 1.0
C      1  0.5274740000000  0.5089040000000  0.5370700000000 1.0
C      1  0.4734270000000  0.4875550000000  0.5302190000000 1.0
C      1  0.5530900000000  0.4138940000000  0.5451080000000 1.0
C      1  0.4472250000000  0.5880100000000  0.5519120000000 1.0
C      1  0.4992410000000  0.4934330000000  0.4864110000000 1.0
END
