TITL C-2441161-5029-858 0.0178515729199392 125000 -6530.85062888447 0 0 50 (C1) n - 1
REM
REM in /home/bkarasulu/work/CARBON/AIRSS/Generating-Clusters/ReaxFF-fromJPCA2015/Units_Real/with-SteepDescent/Higher-Symm
REM
REM
REM
REM
REM
REM ./C.cell (1df0a924f5614ab8850e4351716899ee)
REM
REM compiler GCC version 9.2.1 20190827 (Red Hat 9.2.1-1)
REM options -cpp -mtune=generic -march=x86-64 -g -O0 -fpre-include=/usr/include/finclude/math-vector-fortran.h
REM seed 2102937277 -906602774 2141410502 903823130 113678390 -864884542 -1841324753 1694302666 -71349129 -849624004 1386706293 1458076488 1712856814 1106104268 -2094990583 -311416237 620242120 1714007061 -1833521926 -2036245777 846289649 -1921098466 1042709859 -927353150 1929691551 2106605371 1933426930 -944162971 1066294112 1444539952 -1093284070 1566593504 -535778060
REM
CELL 1.54180   50.00000   50.00000   50.00000   90.00000   90.00000   90.00000
LATT -1
SFAC C  
C      1  0.5369900000000  0.4418390000000  0.5222420000000 1.0
C      1  0.4641200000000  0.4471320000000  0.5208280000000 1.0
C      1  0.5174130000000  0.4706790000000  0.4537990000000 1.0
C      1  0.4297560000000  0.5135930000000  0.5038270000000 1.0
C      1  0.5446480000000  0.4602990000000  0.5441400000000 1.0
C      1  0.4894990000000  0.4809030000000  0.4480890000000 1.0
C      1  0.5020940000000  0.4708140000000  0.5366910000000 1.0
C      1  0.5680240000000  0.4778320000000  0.5088940000000 1.0
C      1  0.4709120000000  0.4921140000000  0.4913390000000 1.0
C      1  0.5424670000000  0.4901500000000  0.5488890000000 1.0
C      1  0.5062320000000  0.5485280000000  0.4619490000000 1.0
C      1  0.5012750000000  0.5174120000000  0.5460290000000 1.0
C      1  0.5119940000000  0.4898070000000  0.5613000000000 1.0
C      1  0.5587880000000  0.4971970000000  0.4707810000000 1.0
C      1  0.5398710000000  0.4945390000000  0.5171970000000 1.0
C      1  0.4614810000000  0.4875070000000  0.5244160000000 1.0
C      1  0.5130410000000  0.4848100000000  0.5071870000000 1.0
C      1  0.4740280000000  0.4702050000000  0.4702450000000 1.0
C      1  0.4432260000000  0.5356840000000  0.5143410000000 1.0
C      1  0.5365820000000  0.5680130000000  0.4779790000000 1.0
C      1  0.4412870000000  0.4647760000000  0.5163420000000 1.0
C      1  0.4336800000000  0.4916590000000  0.5230990000000 1.0
C      1  0.4989200000000  0.5079290000000  0.4944060000000 1.0
C      1  0.5380550000000  0.5158080000000  0.4621750000000 1.0
C      1  0.4576380000000  0.5182890000000  0.4562480000000 1.0
C      1  0.5236770000000  0.4651180000000  0.4850090000000 1.0
C      1  0.5148850000000  0.4413030000000  0.5027900000000 1.0
C      1  0.4856240000000  0.4373000000000  0.5031280000000 1.0
C      1  0.4750760000000  0.4666480000000  0.5388650000000 1.0
C      1  0.4765880000000  0.5554150000000  0.5237770000000 1.0
C      1  0.5416280000000  0.5235340000000  0.5149200000000 1.0
C      1  0.4593590000000  0.5486170000000  0.4994380000000 1.0
C      1  0.4589530000000  0.5448490000000  0.4678940000000 1.0
C      1  0.5068850000000  0.5197410000000  0.4638910000000 1.0
C      1  0.5078410000000  0.5655520000000  0.4857530000000 1.0
C      1  0.5207120000000  0.4442530000000  0.4442440000000 1.0
C      1  0.5528090000000  0.5217290000000  0.4856250000000 1.0
C      1  0.5547210000000  0.4706110000000  0.4850710000000 1.0
C      1  0.4794100000000  0.5819230000000  0.4723520000000 1.0
C      1  0.5543480000000  0.5195840000000  0.5449830000000 1.0
C      1  0.4800670000000  0.4418400000000  0.4744630000000 1.0
C      1  0.4801150000000  0.5598670000000  0.4544130000000 1.0
C      1  0.5011680000000  0.4342640000000  0.4564080000000 1.0
C      1  0.5185810000000  0.4474890000000  0.5439150000000 1.0
C      1  0.4466070000000  0.5054220000000  0.4800850000000 1.0
C      1  0.5029180000000  0.5537780000000  0.5121050000000 1.0
C      1  0.5116340000000  0.5274400000000  0.5152420000000 1.0
C      1  0.4840230000000  0.5088760000000  0.4468760000000 1.0
C      1  0.4792650000000  0.5398580000000  0.5495890000000 1.0
C      1  0.5010880000000  0.5374700000000  0.5667300000000 1.0
END
