TITL C-2441159-1093-228 0.00261363706428629 125000 -8957.19260779801 0 0 62 (C1) n - 1
REM
REM in /home/bkarasulu/work/CARBON/AIRSS/Generating-Clusters/ReaxFF-fromJPCA2015/Units_Real/with-SteepDescent/Higher-Symm
REM
REM
REM
REM
REM
REM ./C.cell (1df0a924f5614ab8850e4351716899ee)
REM
REM compiler GCC version 9.2.1 20190827 (Red Hat 9.2.1-1)
REM options -cpp -mtune=generic -march=x86-64 -g -O0 -fpre-include=/usr/include/finclude/math-vector-fortran.h
REM seed -1605864989 1004460026 442872104 -867468152 1277181686 -1981685934 -1794565808 -1292180571 1033402193 -135503706 459086324 1926522128 -796071203 -555439792 -1930548498 1633002281 -2099774151 -1401748062 2124539828 1461836500 217996323 687626306 1637278832 1528639112 -1887185706 2124004634 -1809449252 1711816107 -138428534 -1115412883 -367309493 1499624386 -1922310569
REM
CELL 1.54180   50.00000   50.00000   50.00000   90.00000   90.00000   90.00000
LATT -1
SFAC C  
C      1  0.4856230000000  0.4347010000000  0.5158980000000 1.0
C      1  0.5150990000000  0.4345960000000  0.5157530000000 1.0
C      1  0.4850920000000  0.4845370000000  0.5007100000000 1.0
C      1  0.5150870000000  0.4846340000000  0.5006720000000 1.0
C      1  0.4316070000000  0.4931430000000  0.5336780000000 1.0
C      1  0.5682980000000  0.4930590000000  0.5335930000000 1.0
C      1  0.5532130000000  0.5087900000000  0.4565110000000 1.0
C      1  0.4466500000000  0.5090010000000  0.4562940000000 1.0
C      1  0.4853170000000  0.4329510000000  0.4868400000000 1.0
C      1  0.5148360000000  0.4329460000000  0.4865880000000 1.0
C      1  0.5150040000000  0.4801670000000  0.4280530000000 1.0
C      1  0.4850080000000  0.4801860000000  0.4281420000000 1.0
C      1  0.4372840000000  0.4586060000000  0.5014640000000 1.0
C      1  0.5632260000000  0.4582060000000  0.5015090000000 1.0
C      1  0.4578260000000  0.4507000000000  0.5244230000000 1.0
C      1  0.5422740000000  0.4505710000000  0.5241500000000 1.0
C      1  0.5235090000000  0.5127880000000  0.4978510000000 1.0
C      1  0.4762550000000  0.5125890000000  0.4977870000000 1.0
C      1  0.4843500000000  0.4612810000000  0.4746140000000 1.0
C      1  0.5156950000000  0.4612380000000  0.4744690000000 1.0
C      1  0.4729050000000  0.5308510000000  0.5633390000000 1.0
C      1  0.5265030000000  0.5312550000000  0.5631080000000 1.0
C      1  0.4288760000000  0.4892450000000  0.4635250000000 1.0
C      1  0.5710270000000  0.4890140000000  0.4636100000000 1.0
C      1  0.5247290000000  0.4746110000000  0.5319730000000 1.0
C      1  0.4755250000000  0.4746170000000  0.5321310000000 1.0
C      1  0.4854750000000  0.5278150000000  0.4743910000000 1.0
C      1  0.5143210000000  0.5279650000000  0.4744240000000 1.0
C      1  0.5155680000000  0.5090610000000  0.5763900000000 1.0
C      1  0.4842940000000  0.5088480000000  0.5764670000000 1.0
C      1  0.4208590000000  0.5081430000000  0.5127620000000 1.0
C      1  0.5794300000000  0.5078440000000  0.5127040000000 1.0
C      1  0.4870710000000  0.5730070000000  0.5074930000000 1.0
C      1  0.5132460000000  0.5819020000000  0.5104030000000 1.0
C      1  0.4860090000000  0.4833080000000  0.5602500000000 1.0
C      1  0.5142090000000  0.4834830000000  0.5602500000000 1.0
C      1  0.4475310000000  0.4730490000000  0.5441000000000 1.0
C      1  0.5523150000000  0.4733380000000  0.5444430000000 1.0
C      1  0.5590980000000  0.5569610000000  0.5008290000000 1.0
C      1  0.4400110000000  0.5580190000000  0.5012410000000 1.0
C      1  0.4593860000000  0.5779120000000  0.5015380000000 1.0
C      1  0.5406610000000  0.5774940000000  0.5011710000000 1.0
C      1  0.5308130000000  0.5448370000000  0.5397590000000 1.0
C      1  0.4681050000000  0.5440890000000  0.5399130000000 1.0
C      1  0.4679350000000  0.5717170000000  0.5277520000000 1.0
C      1  0.5328280000000  0.5726590000000  0.5281670000000 1.0
C      1  0.5311920000000  0.5242930000000  0.4498060000000 1.0
C      1  0.4687310000000  0.5244040000000  0.4496480000000 1.0
C      1  0.5629360000000  0.4497850000000  0.4750090000000 1.0
C      1  0.4379050000000  0.4501450000000  0.4749790000000 1.0
C      1  0.5586650000000  0.4633870000000  0.4508460000000 1.0
C      1  0.4411650000000  0.4636660000000  0.4506580000000 1.0
C      1  0.5701100000000  0.5346700000000  0.5053710000000 1.0
C      1  0.4295370000000  0.5353850000000  0.5056710000000 1.0
C      1  0.4256200000000  0.4848760000000  0.4938660000000 1.0
C      1  0.5748980000000  0.4844840000000  0.4938810000000 1.0
C      1  0.4703240000000  0.4642180000000  0.4479730000000 1.0
C      1  0.5295730000000  0.4641780000000  0.4478250000000 1.0
C      1  0.4854420000000  0.5099640000000  0.4288800000000 1.0
C      1  0.5145700000000  0.5099700000000  0.4289180000000 1.0
C      1  0.5142310000000  0.5256070000000  0.5226940000000 1.0
C      1  0.4851180000000  0.5252330000000  0.5228380000000 1.0
END
