TITL C-2441158-471-51 0.210575356316431 125000 -18887.4126837725 0 0 162 (C1) n - 1
REM
REM in /home/bkarasulu/work/CARBON/AIRSS/Generating-Clusters/ReaxFF-fromJPCA2015/Units_Real/with-SteepDescent/Higher-Symm
REM
REM
REM
REM
REM
REM ./C.cell (1df0a924f5614ab8850e4351716899ee)
REM
REM compiler GCC version 9.2.1 20190827 (Red Hat 9.2.1-1)
REM options -cpp -mtune=generic -march=x86-64 -g -O0 -fpre-include=/usr/include/finclude/math-vector-fortran.h
REM seed -1566784307 -1507034097 1387286551 -356068121 -1344479844 1366980737 -1892835119 1843299374 -519390892 -664192364 1208626987 -1711835986 971253565 1847823029 -400096787 787720504 -819498817 -301761214 1708518952 -1337827167 -887355554 -849136201 -1471818062 832496004 -736596188 -1849403684 1226718899 888568842 -805562417 -1294305559 -1451225583 -2026684560 1400120311
REM
CELL 1.54180   50.00000   50.00000   50.00000   90.00000   90.00000   90.00000
LATT -1
SFAC C  
C      1  0.5115940000000  0.4057870000000  0.5043150000000 1.0
C      1  0.4884680000000  0.4055250000000  0.5042350000000 1.0
C      1  0.4851460000000  0.5880140000000  0.4956610000000 1.0
C      1  0.5159940000000  0.5933790000000  0.4972260000000 1.0
C      1  0.5445640000000  0.4113370000000  0.5303210000000 1.0
C      1  0.4550450000000  0.4110610000000  0.5305270000000 1.0
C      1  0.4879400000000  0.5228060000000  0.4109620000000 1.0
C      1  0.5132110000000  0.5222640000000  0.4132210000000 1.0
C      1  0.4892200000000  0.4940860000000  0.5120930000000 1.0
C      1  0.5123550000000  0.5037710000000  0.5075390000000 1.0
C      1  0.4852650000000  0.5602810000000  0.5282200000000 1.0
C      1  0.5114130000000  0.5592550000000  0.5279980000000 1.0
C      1  0.5979630000000  0.5124230000000  0.4924690000000 1.0
C      1  0.4020200000000  0.5149720000000  0.4960530000000 1.0
C      1  0.4856980000000  0.5347200000000  0.6021080000000 1.0
C      1  0.5161560000000  0.5351020000000  0.6020870000000 1.0
C      1  0.4744550000000  0.4994590000000  0.4018320000000 1.0
C      1  0.5264770000000  0.4996370000000  0.4028390000000 1.0
C      1  0.5382720000000  0.5189510000000  0.4801010000000 1.0
C      1  0.4646710000000  0.5191430000000  0.4847520000000 1.0
C      1  0.5225910000000  0.4572920000000  0.4519540000000 1.0
C      1  0.4757590000000  0.4568330000000  0.4511110000000 1.0
C      1  0.4107100000000  0.4375960000000  0.4837240000000 1.0
C      1  0.5887190000000  0.4366240000000  0.4843680000000 1.0
C      1  0.4626020000000  0.5924310000000  0.5209510000000 1.0
C      1  0.5357430000000  0.5926000000000  0.5204250000000 1.0
C      1  0.5193780000000  0.5585380000000  0.4516210000000 1.0
C      1  0.4752380000000  0.5571600000000  0.4464900000000 1.0
C      1  0.5606610000000  0.4973280000000  0.5460450000000 1.0
C      1  0.4403020000000  0.4994170000000  0.5461180000000 1.0
C      1  0.5611510000000  0.5760680000000  0.4613620000000 1.0
C      1  0.4382840000000  0.5761710000000  0.4615860000000 1.0
C      1  0.4239290000000  0.5211540000000  0.5140610000000 1.0
C      1  0.5788280000000  0.5199100000000  0.5133730000000 1.0
C      1  0.4503050000000  0.4803230000000  0.5251640000000 1.0
C      1  0.5478350000000  0.4839190000000  0.5225620000000 1.0
C      1  0.5214810000000  0.5530750000000  0.4809490000000 1.0
C      1  0.4780170000000  0.5601550000000  0.4851560000000 1.0
C      1  0.4328330000000  0.4394340000000  0.4640310000000 1.0
C      1  0.5672360000000  0.4396290000000  0.4643350000000 1.0
C      1  0.4835190000000  0.5364240000000  0.4977830000000 1.0
C      1  0.5108230000000  0.5323770000000  0.4993250000000 1.0
C      1  0.5410490000000  0.5250130000000  0.5339390000000 1.0
C      1  0.4605370000000  0.5189080000000  0.5372200000000 1.0
C      1  0.5479520000000  0.5439470000000  0.4269740000000 1.0
C      1  0.4548530000000  0.5445450000000  0.4288400000000 1.0
C      1  0.5134080000000  0.4837600000000  0.4441080000000 1.0
C      1  0.4842510000000  0.4841050000000  0.4442390000000 1.0
C      1  0.4713250000000  0.4507570000000  0.4103350000000 1.0
C      1  0.5292530000000  0.4508700000000  0.4111630000000 1.0
C      1  0.5325750000000  0.5108250000000  0.5971740000000 1.0
C      1  0.4682990000000  0.5112120000000  0.5969290000000 1.0
C      1  0.4648510000000  0.5842150000000  0.4519820000000 1.0
C      1  0.5345280000000  0.5832110000000  0.4517070000000 1.0
C      1  0.4143330000000  0.4383530000000  0.5133750000000 1.0
C      1  0.5847290000000  0.4375320000000  0.5135990000000 1.0
C      1  0.5609400000000  0.4888180000000  0.5720460000000 1.0
C      1  0.4387960000000  0.4891550000000  0.5734420000000 1.0
C      1  0.5176280000000  0.4330510000000  0.4340500000000 1.0
C      1  0.4824490000000  0.4329880000000  0.4338030000000 1.0
C      1  0.5252960000000  0.4837440000000  0.5878250000000 1.0
C      1  0.4753220000000  0.4835770000000  0.5885930000000 1.0
C      1  0.4150030000000  0.5653780000000  0.5011380000000 1.0
C      1  0.5894020000000  0.5678360000000  0.4994820000000 1.0
C      1  0.4325670000000  0.4304680000000  0.5357870000000 1.0
C      1  0.5667980000000  0.4304340000000  0.5368520000000 1.0
C      1  0.5868820000000  0.4692470000000  0.5452190000000 1.0
C      1  0.4136110000000  0.4723840000000  0.5440640000000 1.0
C      1  0.5153490000000  0.4373100000000  0.5697320000000 1.0
C      1  0.4842080000000  0.4373590000000  0.5697840000000 1.0
C      1  0.4001660000000  0.4850020000000  0.4950770000000 1.0
C      1  0.5991420000000  0.4826970000000  0.4957510000000 1.0
C      1  0.4061000000000  0.5432390000000  0.4844030000000 1.0
C      1  0.5934160000000  0.5445450000000  0.4826720000000 1.0
C      1  0.5677270000000  0.5368290000000  0.5645860000000 1.0
C      1  0.4319620000000  0.5371590000000  0.5652610000000 1.0
C      1  0.4862550000000  0.4731750000000  0.3990760000000 1.0
C      1  0.5147380000000  0.4732810000000  0.3994320000000 1.0
C      1  0.5209400000000  0.5374140000000  0.5406620000000 1.0
C      1  0.4714250000000  0.5426110000000  0.5434970000000 1.0
C      1  0.5148640000000  0.4877460000000  0.4830520000000 1.0
C      1  0.4871410000000  0.4848310000000  0.4865840000000 1.0
C      1  0.4756430000000  0.4955240000000  0.5326430000000 1.0
C      1  0.5256330000000  0.5007400000000  0.5308100000000 1.0
C      1  0.4718530000000  0.4111300000000  0.4791820000000 1.0
C      1  0.5279110000000  0.4129830000000  0.4793480000000 1.0
C      1  0.5906250000000  0.4744660000000  0.4501000000000 1.0
C      1  0.4108450000000  0.4733890000000  0.4492210000000 1.0
C      1  0.5632120000000  0.5818120000000  0.4900460000000 1.0
C      1  0.4358110000000  0.5842530000000  0.4902240000000 1.0
C      1  0.4853470000000  0.5989120000000  0.4677310000000 1.0
C      1  0.5151740000000  0.5982890000000  0.4686310000000 1.0
C      1  0.4432510000000  0.5159530000000  0.5825920000000 1.0
C      1  0.5570410000000  0.5154240000000  0.5817430000000 1.0
C      1  0.4790590000000  0.5060540000000  0.4632320000000 1.0
C      1  0.5195360000000  0.5070020000000  0.4611300000000 1.0
C      1  0.5547040000000  0.5029110000000  0.4990900000000 1.0
C      1  0.4458200000000  0.5020820000000  0.5011710000000 1.0
C      1  0.5713190000000  0.4555440000000  0.4398220000000 1.0
C      1  0.4307730000000  0.4547430000000  0.4396220000000 1.0
C      1  0.4495410000000  0.4139030000000  0.5010990000000 1.0
C      1  0.5502610000000  0.4156150000000  0.5011590000000 1.0
C      1  0.5507240000000  0.5601920000000  0.5645010000000 1.0
C      1  0.4498360000000  0.5606430000000  0.5643890000000 1.0
C      1  0.4547930000000  0.4654030000000  0.5778170000000 1.0
C      1  0.5457630000000  0.4641210000000  0.5779640000000 1.0
C      1  0.4242970000000  0.5496530000000  0.4627010000000 1.0
C      1  0.5750260000000  0.5497590000000  0.4615180000000 1.0
C      1  0.5561860000000  0.4604960000000  0.4805010000000 1.0
C      1  0.4435100000000  0.4594350000000  0.4812040000000 1.0
C      1  0.4407860000000  0.4875110000000  0.4768610000000 1.0
C      1  0.5588350000000  0.4876670000000  0.4739760000000 1.0
C      1  0.5290610000000  0.4091130000000  0.4490920000000 1.0
C      1  0.4712020000000  0.4089780000000  0.4490120000000 1.0
C      1  0.4875010000000  0.5377630000000  0.5636330000000 1.0
C      1  0.5123160000000  0.5354570000000  0.5632930000000 1.0
C      1  0.4451750000000  0.5761620000000  0.5372850000000 1.0
C      1  0.5532090000000  0.5732840000000  0.5373270000000 1.0
C      1  0.5508020000000  0.4941820000000  0.4146890000000 1.0
C      1  0.4500930000000  0.4946510000000  0.4144700000000 1.0
C      1  0.5451380000000  0.5595460000000  0.4950000000000 1.0
C      1  0.4530170000000  0.5606870000000  0.4943890000000 1.0
C      1  0.5904510000000  0.4981290000000  0.5474790000000 1.0
C      1  0.4084270000000  0.5004000000000  0.5478480000000 1.0
C      1  0.5147540000000  0.5873240000000  0.5400840000000 1.0
C      1  0.4847320000000  0.5882440000000  0.5396730000000 1.0
C      1  0.5998850000000  0.4629380000000  0.4749750000000 1.0
C      1  0.4004560000000  0.4642520000000  0.4746880000000 1.0
C      1  0.5540110000000  0.5489490000000  0.5201600000000 1.0
C      1  0.4370870000000  0.5541360000000  0.5174870000000 1.0
C      1  0.4151400000000  0.5277220000000  0.5426840000000 1.0
C      1  0.5855530000000  0.5263660000000  0.5416560000000 1.0
C      1  0.5160230000000  0.4613010000000  0.5527180000000 1.0
C      1  0.4844350000000  0.4612880000000  0.5530110000000 1.0
C      1  0.4519670000000  0.4433780000000  0.5010960000000 1.0
C      1  0.5480880000000  0.4450180000000  0.5008900000000 1.0
C      1  0.4438870000000  0.5185550000000  0.4289260000000 1.0
C      1  0.5582260000000  0.5180460000000  0.4287020000000 1.0
C      1  0.4484500000000  0.4657700000000  0.4195490000000 1.0
C      1  0.5524760000000  0.4657560000000  0.4198820000000 1.0
C      1  0.5247110000000  0.4578470000000  0.5045120000000 1.0
C      1  0.4761800000000  0.4533500000000  0.5026630000000 1.0
C      1  0.5144520000000  0.4478280000000  0.5289890000000 1.0
C      1  0.4860270000000  0.4473760000000  0.5287510000000 1.0
C      1  0.4748570000000  0.5537990000000  0.5825840000000 1.0
C      1  0.5266340000000  0.5533600000000  0.5811790000000 1.0
C      1  0.5826680000000  0.5006550000000  0.4624310000000 1.0
C      1  0.4220560000000  0.4980730000000  0.4587140000000 1.0
C      1  0.5770080000000  0.5247020000000  0.4470700000000 1.0
C      1  0.4244830000000  0.5245740000000  0.4475760000000 1.0
C      1  0.4804120000000  0.5493220000000  0.4183610000000 1.0
C      1  0.5208870000000  0.5482580000000  0.4234320000000 1.0
C      1  0.4392630000000  0.4565900000000  0.5493210000000 1.0
C      1  0.5639480000000  0.4534130000000  0.5551590000000 1.0
C      1  0.4852580000000  0.4432900000000  0.4764980000000 1.0
C      1  0.5149240000000  0.4449240000000  0.4779630000000 1.0
C      1  0.4074490000000  0.4660330000000  0.5168470000000 1.0
C      1  0.5908930000000  0.4650030000000  0.5174290000000 1.0
C      1  0.5228890000000  0.4238610000000  0.5448590000000 1.0
C      1  0.4768710000000  0.4236030000000  0.5450550000000 1.0
C      1  0.4864280000000  0.4874910000000  0.5605970000000 1.0
C      1  0.5150810000000  0.4896830000000  0.5597840000000 1.0
END
