TITL C-2441168-9922-1356 6.67197134312561e-08 125000 -5593.98108666726 0 0 42 (C2) n - 1
REM
REM in /home/bkarasulu/work/CARBON/AIRSS/Generating-Clusters/ReaxFF-fromJPCA2015/Units_Real/with-SteepDescent/Higher-Symm
REM
REM
REM
REM
REM
REM ./C.cell (1df0a924f5614ab8850e4351716899ee)
REM
REM compiler GCC version 9.2.1 20190827 (Red Hat 9.2.1-1)
REM options -cpp -mtune=generic -march=x86-64 -g -O0 -fpre-include=/usr/include/finclude/math-vector-fortran.h
REM seed -1980787624 -1967362647 351448299 41785470 785657215 1343959108 1010636784 1045474786 -1249308896 -1762774447 1867162680 943578721 -1411496442 822277058 -210464904 721711578 997420338 -1962067681 741215263 -302589990 1811880723 1792159527 1882686896 914523954 -479302580 1436512862 14702755 -1265491564 56473075 -1298474812 824429429 -1149586617 504620652
REM
CELL 1.54180   50.00000   50.00000   50.00000   90.00000   90.00000   90.00000
LATT -1
SFAC C  
C      1  0.4889770000000  0.5508560000000  0.5252130000000 1.0
C      1  0.4536920000000  0.5136240000000  0.5279820000000 1.0
C      1  0.4634570000000  0.4683220000000  0.5278900000000 1.0
C      1  0.5110230000000  0.4491440000000  0.5252130000000 1.0
C      1  0.5463080000000  0.4863760000000  0.5279820000000 1.0
C      1  0.5365430000000  0.5316780000000  0.5278900000000 1.0
C      1  0.4892000000000  0.5489070000000  0.4780670000000 1.0
C      1  0.4516080000000  0.5156660000000  0.4783380000000 1.0
C      1  0.4625660000000  0.4656460000000  0.4781880000000 1.0
C      1  0.5108000000000  0.4510920000000  0.4780670000000 1.0
C      1  0.5483920000000  0.4843340000000  0.4783380000000 1.0
C      1  0.5374340000000  0.5343540000000  0.4781880000000 1.0
C      1  0.4541660000000  0.4899960000000  0.5425920000000 1.0
C      1  0.4844670000000  0.4487530000000  0.5405680000000 1.0
C      1  0.5352470000000  0.4598950000000  0.5406760000000 1.0
C      1  0.5458340000000  0.5100040000000  0.5425920000000 1.0
C      1  0.5155330000000  0.5512470000000  0.5405680000000 1.0
C      1  0.4647530000000  0.5401050000000  0.5406760000000 1.0
C      1  0.4474830000000  0.4876580000000  0.4640230000000 1.0
C      1  0.4851230000000  0.4498910000000  0.4630620000000 1.0
C      1  0.5360930000000  0.4613720000000  0.4633340000000 1.0
C      1  0.5525170000000  0.5123420000000  0.4640230000000 1.0
C      1  0.5148770000000  0.5501090000000  0.4630620000000 1.0
C      1  0.4639070000000  0.5386280000000  0.4633340000000 1.0
C      1  0.4855080000000  0.4221100000000  0.5417590000000 1.0
C      1  0.5453760000000  0.4352380000000  0.5420260000000 1.0
C      1  0.5722930000000  0.5157060000000  0.5391030000000 1.0
C      1  0.5144920000000  0.5778900000000  0.5417590000000 1.0
C      1  0.4546250000000  0.5647620000000  0.5420250000000 1.0
C      1  0.4277070000000  0.4842940000000  0.5391030000000 1.0
C      1  0.4893670000000  0.4230890000000  0.4596310000000 1.0
C      1  0.5613390000000  0.4508100000000  0.4610090000000 1.0
C      1  0.5737120000000  0.5291010000000  0.4620490000000 1.0
C      1  0.5106330000000  0.5769110000000  0.4596310000000 1.0
C      1  0.4386610000000  0.5491900000000  0.4610090000000 1.0
C      1  0.4262880000000  0.4708990000000  0.4620490000000 1.0
C      1  0.5315810000000  0.4892490000000  0.5021630000000 1.0
C      1  0.4756470000000  0.4771550000000  0.5021090000000 1.0
C      1  0.5073490000000  0.4658770000000  0.5019240000000 1.0
C      1  0.4926510000000  0.5341230000000  0.5019240000000 1.0
C      1  0.5243530000000  0.5228450000000  0.5021090000000 1.0
C      1  0.4684190000000  0.5107510000000  0.5021630000000 1.0
END
