TITL C-2441161-5029-376 0.118610474361938 125000 -18319.416549765 0 0 145 (C1) n - 1
REM
REM in /home/bkarasulu/work/CARBON/AIRSS/Generating-Clusters/ReaxFF-fromJPCA2015/Units_Real/with-SteepDescent/Higher-Symm
REM
REM
REM
REM
REM
REM ./C.cell (1df0a924f5614ab8850e4351716899ee)
REM
REM compiler GCC version 9.2.1 20190827 (Red Hat 9.2.1-1)
REM options -cpp -mtune=generic -march=x86-64 -g -O0 -fpre-include=/usr/include/finclude/math-vector-fortran.h
REM seed 1065672136 1173254740 1018704463 1787608392 -14461488 -1533289758 75760895 1087457090 -1322613364 -1502199745 84779491 -757017512 1120492481 -934064573 -1331114563 1200880911 -622196991 -368579302 63412907 -159735676 -257390280 -178038030 1054702878 -1515390583 -1362600470 1090178883 -1406054038 1432111649 -1209644732 -1748664682 2019115857 1889556558 1944667666
REM
CELL 1.54180   50.00000   50.00000   50.00000   90.00000   90.00000   90.00000
LATT -1
SFAC C  
C      1  0.4381190000000  0.4325640000000  0.4590280000000 1.0
C      1  0.4170240000000  0.4753990000000  0.4580190000000 1.0
C      1  0.5111750000000  0.4303550000000  0.5654240000000 1.0
C      1  0.4693720000000  0.4189760000000  0.4366390000000 1.0
C      1  0.5126700000000  0.4248540000000  0.4544190000000 1.0
C      1  0.4957260000000  0.4318030000000  0.4330330000000 1.0
C      1  0.5861430000000  0.4808020000000  0.4660630000000 1.0
C      1  0.4634810000000  0.5925880000000  0.4822030000000 1.0
C      1  0.5019720000000  0.5683780000000  0.5500030000000 1.0
C      1  0.5054300000000  0.4662960000000  0.4770860000000 1.0
C      1  0.5457340000000  0.5425830000000  0.5621410000000 1.0
C      1  0.5729250000000  0.5433380000000  0.5123440000000 1.0
C      1  0.6030440000000  0.5102980000000  0.5143460000000 1.0
C      1  0.5951910000000  0.4828800000000  0.5110090000000 1.0
C      1  0.5648880000000  0.4814420000000  0.5157260000000 1.0
C      1  0.4657000000000  0.5620190000000  0.4545490000000 1.0
C      1  0.5509390000000  0.5677850000000  0.5457950000000 1.0
C      1  0.4708430000000  0.5361470000000  0.5814890000000 1.0
C      1  0.5771460000000  0.4969610000000  0.5608650000000 1.0
C      1  0.5138900000000  0.4847150000000  0.3993240000000 1.0
C      1  0.4606830000000  0.5397010000000  0.5047800000000 1.0
C      1  0.4475650000000  0.5158860000000  0.5118770000000 1.0
C      1  0.5210710000000  0.4844910000000  0.5237250000000 1.0
C      1  0.5775240000000  0.4471800000000  0.5309050000000 1.0
C      1  0.5013460000000  0.5793440000000  0.5233100000000 1.0
C      1  0.5192950000000  0.6002210000000  0.4870440000000 1.0
C      1  0.4181980000000  0.5552130000000  0.5196780000000 1.0
C      1  0.4186660000000  0.5116750000000  0.5447150000000 1.0
C      1  0.4422680000000  0.4691250000000  0.5668310000000 1.0
C      1  0.5598990000000  0.4860100000000  0.4241910000000 1.0
C      1  0.4545890000000  0.4484580000000  0.5001770000000 1.0
C      1  0.5394060000000  0.5510730000000  0.4245880000000 1.0
C      1  0.4729140000000  0.5711720000000  0.5514320000000 1.0
C      1  0.5100230000000  0.5103900000000  0.5975070000000 1.0
C      1  0.5091760000000  0.5264860000000  0.5376640000000 1.0
C      1  0.5198610000000  0.5373340000000  0.5134120000000 1.0
C      1  0.4811120000000  0.5299100000000  0.4872180000000 1.0
C      1  0.4757490000000  0.4580140000000  0.5182990000000 1.0
C      1  0.5405260000000  0.4142100000000  0.5282990000000 1.0
C      1  0.5361020000000  0.4000800000000  0.4757070000000 1.0
C      1  0.5341940000000  0.4694110000000  0.5849480000000 1.0
C      1  0.4475310000000  0.5140820000000  0.5403230000000 1.0
C      1  0.5137690000000  0.4496400000000  0.5872070000000 1.0
C      1  0.4276450000000  0.4993050000000  0.4455010000000 1.0
C      1  0.4938370000000  0.4158190000000  0.5018400000000 1.0
C      1  0.5024820000000  0.5471710000000  0.4846060000000 1.0
C      1  0.4260700000000  0.4352150000000  0.5259580000000 1.0
C      1  0.4484280000000  0.4225360000000  0.5388150000000 1.0
C      1  0.5641350000000  0.5803040000000  0.4914550000000 1.0
C      1  0.5504470000000  0.4615900000000  0.5603950000000 1.0
C      1  0.5330720000000  0.4523120000000  0.4333140000000 1.0
C      1  0.4080130000000  0.5441690000000  0.4958310000000 1.0
C      1  0.5068920000000  0.4055760000000  0.4743580000000 1.0
C      1  0.4874450000000  0.4584140000000  0.4256000000000 1.0
C      1  0.5449230000000  0.4839700000000  0.5385600000000 1.0
C      1  0.5232390000000  0.5466720000000  0.4653910000000 1.0
C      1  0.4878830000000  0.5648240000000  0.4704290000000 1.0
C      1  0.4386110000000  0.4688320000000  0.4965470000000 1.0
C      1  0.4439880000000  0.5726820000000  0.4697190000000 1.0
C      1  0.4452580000000  0.4196890000000  0.5063500000000 1.0
C      1  0.5262620000000  0.5938230000000  0.5150810000000 1.0
C      1  0.4527990000000  0.4920290000000  0.4962740000000 1.0
C      1  0.4757820000000  0.4850170000000  0.5370750000000 1.0
C      1  0.5631590000000  0.5203250000000  0.5255400000000 1.0
C      1  0.4792930000000  0.4707440000000  0.4662090000000 1.0
C      1  0.5315820000000  0.5716430000000  0.4512010000000 1.0
C      1  0.5566080000000  0.4235170000000  0.4738300000000 1.0
C      1  0.4896200000000  0.4909630000000  0.5952890000000 1.0
C      1  0.5418190000000  0.5029010000000  0.4415470000000 1.0
C      1  0.4462390000000  0.4992980000000  0.5792310000000 1.0
C      1  0.5733940000000  0.4465940000000  0.5004300000000 1.0
C      1  0.4796460000000  0.5740550000000  0.4313420000000 1.0
C      1  0.4927550000000  0.4130140000000  0.5318070000000 1.0
C      1  0.4870760000000  0.5108030000000  0.5287060000000 1.0
C      1  0.4740390000000  0.5066010000000  0.5783320000000 1.0
C      1  0.4375680000000  0.4587590000000  0.4464810000000 1.0
C      1  0.5430880000000  0.5349890000000  0.4770360000000 1.0
C      1  0.4609570000000  0.4918250000000  0.4696560000000 1.0
C      1  0.5427010000000  0.5890180000000  0.4737270000000 1.0
C      1  0.5095490000000  0.5194610000000  0.4310760000000 1.0
C      1  0.4011600000000  0.4895750000000  0.5355960000000 1.0
C      1  0.5629930000000  0.5248570000000  0.4601840000000 1.0
C      1  0.4724600000000  0.4346710000000  0.5430170000000 1.0
C      1  0.5799630000000  0.5090460000000  0.4779670000000 1.0
C      1  0.5081990000000  0.5458320000000  0.4232750000000 1.0
C      1  0.4065590000000  0.5151420000000  0.4905840000000 1.0
C      1  0.4729650000000  0.4966560000000  0.4070200000000 1.0
C      1  0.5590990000000  0.5034190000000  0.4995040000000 1.0
C      1  0.4310910000000  0.5465660000000  0.5651170000000 1.0
C      1  0.4999180000000  0.4485370000000  0.5012190000000 1.0
C      1  0.4400970000000  0.5271380000000  0.5850190000000 1.0
C      1  0.4795100000000  0.5485990000000  0.4178840000000 1.0
C      1  0.5341040000000  0.4988590000000  0.5849530000000 1.0
C      1  0.5214680000000  0.4554760000000  0.5180090000000 1.0
C      1  0.4697920000000  0.5175960000000  0.4587740000000 1.0
C      1  0.5176410000000  0.5030020000000  0.5017070000000 1.0
C      1  0.4994660000000  0.5357270000000  0.5887350000000 1.0
C      1  0.5943880000000  0.5309510000000  0.4946700000000 1.0
C      1  0.5453270000000  0.5463830000000  0.5017640000000 1.0
C      1  0.5681420000000  0.5525380000000  0.4508840000000 1.0
C      1  0.4871920000000  0.4713440000000  0.4004880000000 1.0
C      1  0.4871920000000  0.4638730000000  0.5833490000000 1.0
C      1  0.4132430000000  0.4708760000000  0.4871720000000 1.0
C      1  0.4258590000000  0.5487450000000  0.4734320000000 1.0
C      1  0.4121980000000  0.5404810000000  0.5437650000000 1.0
C      1  0.4134850000000  0.4702180000000  0.5543290000000 1.0
C      1  0.4895820000000  0.5064650000000  0.5007050000000 1.0
C      1  0.4635590000000  0.4495740000000  0.5665070000000 1.0
C      1  0.4452930000000  0.5617990000000  0.5117830000000 1.0
C      1  0.4612570000000  0.4170460000000  0.4640870000000 1.0
C      1  0.5002000000000  0.5844980000000  0.4518750000000 1.0
C      1  0.5148680000000  0.5402660000000  0.5635340000000 1.0
C      1  0.4684040000000  0.4081430000000  0.4899500000000 1.0
C      1  0.5264560000000  0.5785290000000  0.5539400000000 1.0
C      1  0.4594070000000  0.5300960000000  0.4293380000000 1.0
C      1  0.5566750000000  0.4329650000000  0.5429350000000 1.0
C      1  0.4750630000000  0.5891740000000  0.5293150000000 1.0
C      1  0.5535770000000  0.5150530000000  0.5697780000000 1.0
C      1  0.5790880000000  0.4673980000000  0.5546950000000 1.0
C      1  0.4450850000000  0.4346680000000  0.4310460000000 1.0
C      1  0.5710870000000  0.4673680000000  0.4456610000000 1.0
C      1  0.4950620000000  0.4739780000000  0.5553890000000 1.0
C      1  0.4316900000000  0.4621570000000  0.5347620000000 1.0
C      1  0.5380710000000  0.4721660000000  0.4107480000000 1.0
C      1  0.4938270000000  0.5075990000000  0.4476850000000 1.0
C      1  0.5879190000000  0.5139970000000  0.5398340000000 1.0
C      1  0.5794310000000  0.5597340000000  0.4760750000000 1.0
C      1  0.5525680000000  0.5818100000000  0.5189360000000 1.0
C      1  0.5481540000000  0.5244700000000  0.4231820000000 1.0
C      1  0.4236610000000  0.5195500000000  0.4664970000000 1.0
C      1  0.5116710000000  0.4528690000000  0.5464110000000 1.0
C      1  0.4551150000000  0.5892080000000  0.5089170000000 1.0
C      1  0.4998440000000  0.5098380000000  0.4058490000000 1.0
C      1  0.5216390000000  0.4719240000000  0.4519550000000 1.0
C      1  0.4914730000000  0.6028020000000  0.4755560000000 1.0
C      1  0.4023140000000  0.4905530000000  0.5054280000000 1.0
C      1  0.5417670000000  0.4166370000000  0.4987740000000 1.0
C      1  0.5473590000000  0.4618460000000  0.4961590000000 1.0
C      1  0.5552340000000  0.4429530000000  0.4505650000000 1.0
C      1  0.5377440000000  0.4888110000000  0.4855770000000 1.0
C      1  0.5941310000000  0.4644880000000  0.4884630000000 1.0
C      1  0.4481960000000  0.5050640000000  0.4223370000000 1.0
C      1  0.4578960000000  0.5452320000000  0.5517970000000 1.0
C      1  0.5169320000000  0.4090230000000  0.5454900000000 1.0
C      1  0.4960040000000  0.4803930000000  0.4421670000000 1.0
END
