TITL C-2441163-1170-144 0.0737650333865773 125000 -19547.6635480924 0 0 148 (C1) n - 1
REM
REM in /home/bkarasulu/work/CARBON/AIRSS/Generating-Clusters/ReaxFF-fromJPCA2015/Units_Real/with-SteepDescent/Higher-Symm
REM
REM
REM
REM
REM
REM ./C.cell (1df0a924f5614ab8850e4351716899ee)
REM
REM compiler GCC version 9.2.1 20190827 (Red Hat 9.2.1-1)
REM options -cpp -mtune=generic -march=x86-64 -g -O0 -fpre-include=/usr/include/finclude/math-vector-fortran.h
REM seed 772899014 1340626917 1662941434 -1625573250 -2031392690 -591627905 777188469 566958419 -544776409 79670101 2031850228 -300059714 1639056005 272086244 949604975 558177424 -409079249 237413204 354155213 1036380504 7273607 1719645103 14325241 711315368 -629946049 -1704400851 95340858 2087878455 -1436195187 95446926 1547418945 -486479562 -1770715315
REM
CELL 1.54180   50.00000   50.00000   50.00000   90.00000   90.00000   90.00000
LATT -1
SFAC C  
C      1  0.5125560000000  0.4938940000000  0.5430090000000 1.0
C      1  0.5139010000000  0.5067260000000  0.4562630000000 1.0
C      1  0.4880170000000  0.4984080000000  0.4555020000000 1.0
C      1  0.4873500000000  0.5025450000000  0.5442840000000 1.0
C      1  0.4539910000000  0.5612500000000  0.4352860000000 1.0
C      1  0.4546830000000  0.4431310000000  0.5670710000000 1.0
C      1  0.5460390000000  0.5608050000000  0.5654710000000 1.0
C      1  0.5450440000000  0.4385690000000  0.4344660000000 1.0
C      1  0.5212430000000  0.5773020000000  0.5652920000000 1.0
C      1  0.5207410000000  0.4218350000000  0.4309200000000 1.0
C      1  0.4766450000000  0.5801050000000  0.4316600000000 1.0
C      1  0.4730090000000  0.4199600000000  0.5627690000000 1.0
C      1  0.4641780000000  0.5458140000000  0.5837740000000 1.0
C      1  0.4655950000000  0.4532810000000  0.4200730000000 1.0
C      1  0.5397260000000  0.5437120000000  0.4100890000000 1.0
C      1  0.5349660000000  0.4566260000000  0.5906820000000 1.0
C      1  0.4827670000000  0.5923290000000  0.4572050000000 1.0
C      1  0.4790090000000  0.4085670000000  0.5367010000000 1.0
C      1  0.5185080000000  0.5919770000000  0.5386700000000 1.0
C      1  0.5143930000000  0.4061780000000  0.4540670000000 1.0
C      1  0.4628510000000  0.5494260000000  0.5118420000000 1.0
C      1  0.4651370000000  0.4516380000000  0.4920710000000 1.0
C      1  0.5340140000000  0.5488070000000  0.4928210000000 1.0
C      1  0.5360240000000  0.4502490000000  0.5073610000000 1.0
C      1  0.5884990000000  0.5047760000000  0.4647650000000 1.0
C      1  0.5888320000000  0.4953200000000  0.5378850000000 1.0
C      1  0.4082600000000  0.5047400000000  0.5357100000000 1.0
C      1  0.4127760000000  0.4948330000000  0.4629940000000 1.0
C      1  0.5404520000000  0.5150490000000  0.4065050000000 1.0
C      1  0.5392360000000  0.4857580000000  0.5934660000000 1.0
C      1  0.4538230000000  0.5212590000000  0.5962910000000 1.0
C      1  0.4603420000000  0.4801660000000  0.4110530000000 1.0
C      1  0.4877690000000  0.5225790000000  0.5615060000000 1.0
C      1  0.4898300000000  0.4788130000000  0.4382850000000 1.0
C      1  0.5168660000000  0.5272260000000  0.4393580000000 1.0
C      1  0.5161470000000  0.4740340000000  0.5599360000000 1.0
C      1  0.5329820000000  0.5890030000000  0.5122500000000 1.0
C      1  0.5310670000000  0.4167580000000  0.4744230000000 1.0
C      1  0.4667970000000  0.5823610000000  0.4782850000000 1.0
C      1  0.4665560000000  0.4105590000000  0.5109770000000 1.0
C      1  0.4441020000000  0.4298720000000  0.4936710000000 1.0
C      1  0.4403800000000  0.5684560000000  0.5107660000000 1.0
C      1  0.5611150000000  0.4350640000000  0.5128010000000 1.0
C      1  0.5559710000000  0.5700560000000  0.4939480000000 1.0
C      1  0.5306770000000  0.5387850000000  0.5966390000000 1.0
C      1  0.5294070000000  0.4611580000000  0.4041750000000 1.0
C      1  0.4723610000000  0.5387580000000  0.4054960000000 1.0
C      1  0.4818940000000  0.4605150000000  0.5933190000000 1.0
C      1  0.4352530000000  0.4419370000000  0.4652320000000 1.0
C      1  0.4294010000000  0.5598440000000  0.5368470000000 1.0
C      1  0.5664530000000  0.4439220000000  0.5393240000000 1.0
C      1  0.5657370000000  0.5568960000000  0.4683850000000 1.0
C      1  0.4489370000000  0.5532070000000  0.5593460000000 1.0
C      1  0.4439230000000  0.4432600000000  0.4368910000000 1.0
C      1  0.5443810000000  0.5472370000000  0.4381300000000 1.0
C      1  0.5465760000000  0.4544470000000  0.5628960000000 1.0
C      1  0.4052530000000  0.4855480000000  0.5132230000000 1.0
C      1  0.4053020000000  0.5131320000000  0.4848690000000 1.0
C      1  0.5941230000000  0.4860770000000  0.4863370000000 1.0
C      1  0.5938730000000  0.5132680000000  0.5148540000000 1.0
C      1  0.4615790000000  0.5334610000000  0.4306950000000 1.0
C      1  0.4651920000000  0.4704560000000  0.5730360000000 1.0
C      1  0.5390460000000  0.5325020000000  0.5706380000000 1.0
C      1  0.5407630000000  0.4674180000000  0.4287610000000 1.0
C      1  0.4865590000000  0.5635270000000  0.5205710000000 1.0
C      1  0.4848710000000  0.4406410000000  0.4737410000000 1.0
C      1  0.5153020000000  0.5599960000000  0.4746840000000 1.0
C      1  0.5132250000000  0.4351510000000  0.5186770000000 1.0
C      1  0.5563280000000  0.5526470000000  0.5390670000000 1.0
C      1  0.5513350000000  0.4406550000000  0.4636990000000 1.0
C      1  0.4482690000000  0.5588740000000  0.4646940000000 1.0
C      1  0.4424700000000  0.4490430000000  0.5414990000000 1.0
C      1  0.4939250000000  0.5141270000000  0.5893090000000 1.0
C      1  0.4898720000000  0.4856440000000  0.4093140000000 1.0
C      1  0.5106260000000  0.5147370000000  0.4100550000000 1.0
C      1  0.5118280000000  0.4908770000000  0.5860980000000 1.0
C      1  0.4029560000000  0.4564460000000  0.5164950000000 1.0
C      1  0.4016770000000  0.5420750000000  0.4811450000000 1.0
C      1  0.5971980000000  0.4572340000000  0.4809260000000 1.0
C      1  0.5970560000000  0.5423220000000  0.5173560000000 1.0
C      1  0.4183950000000  0.4384810000000  0.5323640000000 1.0
C      1  0.4188440000000  0.5623970000000  0.4691550000000 1.0
C      1  0.5797980000000  0.4379210000000  0.4691910000000 1.0
C      1  0.5817020000000  0.5612400000000  0.5313030000000 1.0
C      1  0.5699360000000  0.5314720000000  0.4356000000000 1.0
C      1  0.5708030000000  0.4705650000000  0.5698500000000 1.0
C      1  0.4342880000000  0.5286840000000  0.5616280000000 1.0
C      1  0.4238800000000  0.4663670000000  0.4333550000000 1.0
C      1  0.4348850000000  0.5164620000000  0.4951680000000 1.0
C      1  0.4331470000000  0.4865470000000  0.5026580000000 1.0
C      1  0.5655400000000  0.5143260000000  0.5052380000000 1.0
C      1  0.5650380000000  0.4835560000000  0.4956240000000 1.0
C      1  0.5524790000000  0.4751740000000  0.4692210000000 1.0
C      1  0.5537890000000  0.5231200000000  0.5329910000000 1.0
C      1  0.4440480000000  0.4770160000000  0.5323800000000 1.0
C      1  0.4476270000000  0.5244100000000  0.4692860000000 1.0
C      1  0.4839120000000  0.4097430000000  0.4646840000000 1.0
C      1  0.4893730000000  0.5908160000000  0.5416690000000 1.0
C      1  0.5107040000000  0.4133210000000  0.5445080000000 1.0
C      1  0.5144540000000  0.5903220000000  0.4641680000000 1.0
C      1  0.4906300000000  0.5223140000000  0.4909130000000 1.0
C      1  0.4891940000000  0.4787480000000  0.5103950000000 1.0
C      1  0.5097150000000  0.5216130000000  0.5109170000000 1.0
C      1  0.5088330000000  0.4790500000000  0.4908850000000 1.0
C      1  0.5027590000000  0.5425500000000  0.5987500000000 1.0
C      1  0.5020520000000  0.4575360000000  0.4004780000000 1.0
C      1  0.5002700000000  0.5431830000000  0.4015860000000 1.0
C      1  0.5069910000000  0.4476890000000  0.5953860000000 1.0
C      1  0.4902510000000  0.4537010000000  0.5239150000000 1.0
C      1  0.4918110000000  0.5456400000000  0.4747790000000 1.0
C      1  0.5102930000000  0.4544640000000  0.4758100000000 1.0
C      1  0.5100340000000  0.5463230000000  0.5248700000000 1.0
C      1  0.5829560000000  0.5646840000000  0.5044960000000 1.0
C      1  0.5847040000000  0.4357130000000  0.4952090000000 1.0
C      1  0.4140670000000  0.5640320000000  0.4978120000000 1.0
C      1  0.4185970000000  0.4345500000000  0.5062500000000 1.0
C      1  0.5436730000000  0.4766800000000  0.5145490000000 1.0
C      1  0.5445240000000  0.5225150000000  0.4873470000000 1.0
C      1  0.4553970000000  0.4780860000000  0.4862860000000 1.0
C      1  0.4550790000000  0.5231260000000  0.5152210000000 1.0
C      1  0.5696810000000  0.4886200000000  0.4488350000000 1.0
C      1  0.5696650000000  0.5098340000000  0.5545670000000 1.0
C      1  0.4265350000000  0.4901570000000  0.5525120000000 1.0
C      1  0.4320450000000  0.5111170000000  0.4472040000000 1.0
C      1  0.4996070000000  0.4330070000000  0.5683430000000 1.0
C      1  0.4989570000000  0.5628200000000  0.4245270000000 1.0
C      1  0.4977960000000  0.4409040000000  0.4252240000000 1.0
C      1  0.4991370000000  0.5602080000000  0.5744070000000 1.0
C      1  0.5831290000000  0.5344770000000  0.4620760000000 1.0
C      1  0.5845510000000  0.4667770000000  0.5440060000000 1.0
C      1  0.4149930000000  0.5333280000000  0.5411330000000 1.0
C      1  0.4164920000000  0.4646000000000  0.4617860000000 1.0
C      1  0.4378380000000  0.4913580000000  0.4260400000000 1.0
C      1  0.4441780000000  0.5014110000000  0.5731660000000 1.0
C      1  0.5618700000000  0.4960250000000  0.5786920000000 1.0
C      1  0.5607920000000  0.5045560000000  0.4255610000000 1.0
C      1  0.4845260000000  0.5859810000000  0.5006170000000 1.0
C      1  0.4884730000000  0.4012250000000  0.4958250000000 1.0
C      1  0.5116020000000  0.5966770000000  0.4961290000000 1.0
C      1  0.5146180000000  0.4139940000000  0.4973380000000 1.0
C      1  0.4918510000000  0.4593120000000  0.5527210000000 1.0
C      1  0.4915580000000  0.5417670000000  0.4450610000000 1.0
C      1  0.5110350000000  0.4613490000000  0.4450660000000 1.0
C      1  0.5096340000000  0.5399590000000  0.5540550000000 1.0
C      1  0.4693290000000  0.4977280000000  0.5231890000000 1.0
C      1  0.4696310000000  0.5032990000000  0.4770260000000 1.0
C      1  0.5305980000000  0.4977220000000  0.4773100000000 1.0
C      1  0.5295900000000  0.5020130000000  0.5230390000000 1.0
END
