TITL C-2441157-2117-1089 0.0128084608423289 125000 -14075.0844238133 0 0 98 (C1) n - 1
REM
REM in /home/bkarasulu/work/CARBON/AIRSS/Generating-Clusters/ReaxFF-fromJPCA2015/Units_Real/with-SteepDescent/Higher-Symm
REM
REM
REM
REM
REM
REM ./C.cell (1df0a924f5614ab8850e4351716899ee)
REM
REM compiler GCC version 9.2.1 20190827 (Red Hat 9.2.1-1)
REM options -cpp -mtune=generic -march=x86-64 -g -O0 -fpre-include=/usr/include/finclude/math-vector-fortran.h
REM seed 1633581576 -685001606 41902348 -529680347 -708388424 507368331 -222616477 -991726370 395016026 83518889 -1532786984 1702164126 1734550000 913508169 563470435 -1984851404 1718708859 -123718663 -1842581149 791854354 -811996469 607018575 226151157 448726935 360569060 1614763759 947256214 624645465 1608448026 -343616916 979469810 164990041 2118157126
REM
CELL 1.54180   50.00000   50.00000   50.00000   90.00000   90.00000   90.00000
LATT -1
SFAC C  
C      1  0.5068530000000  0.5242770000000  0.5181510000000 1.0
C      1  0.4987350000000  0.5046670000000  0.4616690000000 1.0
C      1  0.5023020000000  0.4660030000000  0.5159220000000 1.0
C      1  0.4423910000000  0.4372840000000  0.5233490000000 1.0
C      1  0.4379500000000  0.5525540000000  0.5448900000000 1.0
C      1  0.4410110000000  0.5079830000000  0.4334570000000 1.0
C      1  0.5763910000000  0.4646210000000  0.5201270000000 1.0
C      1  0.5771210000000  0.5401990000000  0.5142060000000 1.0
C      1  0.5753920000000  0.4957800000000  0.4615890000000 1.0
C      1  0.4594810000000  0.4355510000000  0.4551890000000 1.0
C      1  0.4538780000000  0.4943060000000  0.5768980000000 1.0
C      1  0.4546640000000  0.5684440000000  0.4662100000000 1.0
C      1  0.4577490000000  0.4407200000000  0.5003260000000 1.0
C      1  0.4619410000000  0.5403110000000  0.5569280000000 1.0
C      1  0.4613830000000  0.5288390000000  0.4336070000000 1.0
C      1  0.5298520000000  0.5369850000000  0.5064350000000 1.0
C      1  0.5258560000000  0.4914090000000  0.4587790000000 1.0
C      1  0.5273040000000  0.4739200000000  0.5316170000000 1.0
C      1  0.5527750000000  0.5683890000000  0.4704850000000 1.0
C      1  0.5531400000000  0.4417540000000  0.4561590000000 1.0
C      1  0.5473430000000  0.4936430000000  0.5730540000000 1.0
C      1  0.5280350000000  0.5821820000000  0.4803950000000 1.0
C      1  0.5314960000000  0.4439450000000  0.4360820000000 1.0
C      1  0.5281480000000  0.4732650000000  0.5814890000000 1.0
C      1  0.5302600000000  0.4680290000000  0.4194200000000 1.0
C      1  0.5250800000000  0.4462870000000  0.5695720000000 1.0
C      1  0.5254190000000  0.5854640000000  0.5096470000000 1.0
C      1  0.5596600000000  0.4415210000000  0.5259670000000 1.0
C      1  0.5603080000000  0.5501260000000  0.5366870000000 1.0
C      1  0.5610190000000  0.5112590000000  0.4409350000000 1.0
C      1  0.4968520000000  0.5524980000000  0.4535450000000 1.0
C      1  0.4981880000000  0.4369210000000  0.4729820000000 1.0
C      1  0.4976010000000  0.5122690000000  0.5694720000000 1.0
C      1  0.4719360000000  0.4252480000000  0.4792760000000 1.0
C      1  0.4691090000000  0.5192460000000  0.5752570000000 1.0
C      1  0.4676260000000  0.5540020000000  0.4443920000000 1.0
C      1  0.4849850000000  0.5267190000000  0.4976920000000 1.0
C      1  0.4821150000000  0.4860610000000  0.4775530000000 1.0
C      1  0.4815700000000  0.4888430000000  0.5238700000000 1.0
C      1  0.5140060000000  0.5483630000000  0.5593690000000 1.0
C      1  0.5147720000000  0.5300090000000  0.4282680000000 1.0
C      1  0.5135790000000  0.4206320000000  0.5145610000000 1.0
C      1  0.4880380000000  0.5494120000000  0.5466030000000 1.0
C      1  0.4889810000000  0.5145860000000  0.4339510000000 1.0
C      1  0.4911230000000  0.4383240000000  0.5173040000000 1.0
C      1  0.4992710000000  0.5087850000000  0.5400600000000 1.0
C      1  0.4979130000000  0.5302940000000  0.4723000000000 1.0
C      1  0.5066350000000  0.4640750000000  0.4858670000000 1.0
C      1  0.5056310000000  0.5084310000000  0.4110120000000 1.0
C      1  0.4983930000000  0.4204830000000  0.5379480000000 1.0
C      1  0.5034080000000  0.5745620000000  0.5491230000000 1.0
C      1  0.4423770000000  0.5717800000000  0.5240330000000 1.0
C      1  0.4566290000000  0.4814870000000  0.4319090000000 1.0
C      1  0.4487450000000  0.4433420000000  0.5501930000000 1.0
C      1  0.5016890000000  0.4863780000000  0.5832420000000 1.0
C      1  0.5019970000000  0.5786640000000  0.4679370000000 1.0
C      1  0.5052360000000  0.4344620000000  0.4450630000000 1.0
C      1  0.4990050000000  0.4346410000000  0.5633610000000 1.0
C      1  0.4995360000000  0.5859560000000  0.5229340000000 1.0
C      1  0.5044080000000  0.4793540000000  0.4109430000000 1.0
C      1  0.5423750000000  0.4526210000000  0.5467880000000 1.0
C      1  0.5407500000000  0.5618480000000  0.5183430000000 1.0
C      1  0.5425010000000  0.4893860000000  0.4352080000000 1.0
C      1  0.5516710000000  0.5504960000000  0.4486810000000 1.0
C      1  0.5475150000000  0.4313070000000  0.4803180000000 1.0
C      1  0.5583400000000  0.5165100000000  0.5627980000000 1.0
C      1  0.4755850000000  0.4736510000000  0.5802850000000 1.0
C      1  0.4757040000000  0.5837540000000  0.4793000000000 1.0
C      1  0.4785950000000  0.4419570000000  0.4339630000000 1.0
C      1  0.5423740000000  0.4981130000000  0.5320180000000 1.0
C      1  0.5433690000000  0.5288000000000  0.4821220000000 1.0
C      1  0.5335660000000  0.4761040000000  0.4801160000000 1.0
C      1  0.4274420000000  0.4579290000000  0.5347650000000 1.0
C      1  0.4242420000000  0.5497230000000  0.5177450000000 1.0
C      1  0.4270750000000  0.4976180000000  0.4556130000000 1.0
C      1  0.5894590000000  0.4984210000000  0.4871060000000 1.0
C      1  0.5850500000000  0.4701520000000  0.4930800000000 1.0
C      1  0.5845180000000  0.5123060000000  0.5129470000000 1.0
C      1  0.5662910000000  0.5459470000000  0.4870100000000 1.0
C      1  0.5626810000000  0.4692680000000  0.4713950000000 1.0
C      1  0.5711100000000  0.4926610000000  0.5309280000000 1.0
C      1  0.4414550000000  0.4963310000000  0.5498220000000 1.0
C      1  0.4471620000000  0.5448850000000  0.4822450000000 1.0
C      1  0.4444500000000  0.4564100000000  0.4747040000000 1.0
C      1  0.5417690000000  0.4259570000000  0.5072830000000 1.0
C      1  0.5390630000000  0.5328730000000  0.5486360000000 1.0
C      1  0.5393050000000  0.5288730000000  0.4475060000000 1.0
C      1  0.4680110000000  0.5494440000000  0.5017950000000 1.0
C      1  0.4612510000000  0.4759570000000  0.4605880000000 1.0
C      1  0.4623600000000  0.4793970000000  0.5397430000000 1.0
C      1  0.4253750000000  0.4819130000000  0.4782790000000 1.0
C      1  0.4243950000000  0.4865720000000  0.5283890000000 1.0
C      1  0.4277310000000  0.5294800000000  0.4970730000000 1.0
C      1  0.4729360000000  0.5781190000000  0.5088790000000 1.0
C      1  0.4786520000000  0.4672900000000  0.4187250000000 1.0
C      1  0.4735540000000  0.4484330000000  0.5665610000000 1.0
C      1  0.4684750000000  0.4996060000000  0.4997370000000 1.0
C      1  0.4344570000000  0.4997850000000  0.5016780000000 1.0
END
