TITL C-2441160-1326-254 0.0107257370312601 125000 -11442.2558029739 0 0 76 (C1) n - 1
REM
REM in /home/bkarasulu/work/CARBON/AIRSS/Generating-Clusters/ReaxFF-fromJPCA2015/Units_Real/with-SteepDescent/Higher-Symm
REM
REM
REM
REM
REM
REM ./C.cell (1df0a924f5614ab8850e4351716899ee)
REM
REM compiler GCC version 9.2.1 20190827 (Red Hat 9.2.1-1)
REM options -cpp -mtune=generic -march=x86-64 -g -O0 -fpre-include=/usr/include/finclude/math-vector-fortran.h
REM seed -561358222 1812154344 -314080009 -780616782 1905308746 -767238847 104284997 1188868185 849896480 580560011 -1792671511 -2067970279 -890259950 124345187 815010034 2111164650 1848923574 1747281287 188776577 682016384 442949249 914883687 -894818747 1521908735 -909153598 1741843933 -1895029407 2077518377 -1170014397 -1837531824 -501604901 -33808299 123844714
REM
CELL 1.54180   50.00000   50.00000   50.00000   90.00000   90.00000   90.00000
LATT -1
SFAC C  
C      1  0.5712620000000  0.4872870000000  0.4857750000000 1.0
C      1  0.4292250000000  0.4877360000000  0.5142290000000 1.0
C      1  0.4292800000000  0.4877270000000  0.4857210000000 1.0
C      1  0.5711280000000  0.4874200000000  0.5142560000000 1.0
C      1  0.4853990000000  0.4366330000000  0.5564800000000 1.0
C      1  0.5143760000000  0.4366160000000  0.4435170000000 1.0
C      1  0.5144290000000  0.4365400000000  0.5564370000000 1.0
C      1  0.4853390000000  0.4366500000000  0.4435250000000 1.0
C      1  0.4744360000000  0.4659460000000  0.5598880000000 1.0
C      1  0.5255970000000  0.4658420000000  0.4400360000000 1.0
C      1  0.5254540000000  0.4658290000000  0.5598990000000 1.0
C      1  0.4745210000000  0.4659670000000  0.4401650000000 1.0
C      1  0.5567250000000  0.5009360000000  0.4414280000000 1.0
C      1  0.4434930000000  0.5010500000000  0.5591400000000 1.0
C      1  0.4435780000000  0.5010150000000  0.4409220000000 1.0
C      1  0.5566820000000  0.5010010000000  0.5587190000000 1.0
C      1  0.5300880000000  0.5663280000000  0.5303660000000 1.0
C      1  0.4694400000000  0.5659270000000  0.4693870000000 1.0
C      1  0.4703380000000  0.5660380000000  0.5298810000000 1.0
C      1  0.5298370000000  0.5665740000000  0.4696570000000 1.0
C      1  0.5579410000000  0.4647320000000  0.5265760000000 1.0
C      1  0.4419970000000  0.4648310000000  0.4733380000000 1.0
C      1  0.4419270000000  0.4648620000000  0.5267000000000 1.0
C      1  0.5581240000000  0.4645470000000  0.4734250000000 1.0
C      1  0.5543090000000  0.4725110000000  0.5542290000000 1.0
C      1  0.4457170000000  0.4725760000000  0.4456990000000 1.0
C      1  0.4455500000000  0.4725600000000  0.5544350000000 1.0
C      1  0.5544190000000  0.4723890000000  0.4458050000000 1.0
C      1  0.4367830000000  0.5341030000000  0.5258210000000 1.0
C      1  0.5635400000000  0.5341290000000  0.4743780000000 1.0
C      1  0.5631970000000  0.5341060000000  0.5251000000000 1.0
C      1  0.4365760000000  0.5339570000000  0.4743650000000 1.0
C      1  0.4843480000000  0.4319220000000  0.5278750000000 1.0
C      1  0.5153690000000  0.4318820000000  0.4720980000000 1.0
C      1  0.5153820000000  0.4318920000000  0.5278260000000 1.0
C      1  0.4843270000000  0.4319000000000  0.4721130000000 1.0
C      1  0.5169310000000  0.5185700000000  0.4621930000000 1.0
C      1  0.4830370000000  0.5185210000000  0.5379340000000 1.0
C      1  0.4832000000000  0.5184360000000  0.4621140000000 1.0
C      1  0.5173150000000  0.5185340000000  0.5379940000000 1.0
C      1  0.4615280000000  0.4454910000000  0.5140550000000 1.0
C      1  0.5382640000000  0.4453730000000  0.4859440000000 1.0
C      1  0.5382250000000  0.4454300000000  0.5139960000000 1.0
C      1  0.4615590000000  0.4455270000000  0.4859610000000 1.0
C      1  0.4278680000000  0.5105940000000  0.5352800000000 1.0
C      1  0.5724700000000  0.5103670000000  0.4651960000000 1.0
C      1  0.5721050000000  0.5106040000000  0.5347860000000 1.0
C      1  0.4279380000000  0.5105510000000  0.4647210000000 1.0
C      1  0.5140500000000  0.5850590000000  0.4854380000000 1.0
C      1  0.4853590000000  0.5837240000000  0.5146360000000 1.0
C      1  0.4845390000000  0.5846670000000  0.4855890000000 1.0
C      1  0.5138360000000  0.5848360000000  0.5151720000000 1.0
C      1  0.4761430000000  0.4982020000000  0.5142230000000 1.0
C      1  0.5241600000000  0.4980350000000  0.4858660000000 1.0
C      1  0.5240650000000  0.4979790000000  0.5142550000000 1.0
C      1  0.4761880000000  0.4980600000000  0.4857640000000 1.0
C      1  0.5544560000000  0.5573260000000  0.4837720000000 1.0
C      1  0.4458770000000  0.5571680000000  0.5161500000000 1.0
C      1  0.4452260000000  0.5569800000000  0.4841790000000 1.0
C      1  0.5543610000000  0.5572860000000  0.5155320000000 1.0
C      1  0.5136380000000  0.4770580000000  0.4688370000000 1.0
C      1  0.4864750000000  0.4769980000000  0.5311020000000 1.0
C      1  0.4866050000000  0.4768720000000  0.4689310000000 1.0
C      1  0.5134840000000  0.4769170000000  0.5311360000000 1.0
C      1  0.4850790000000  0.5471310000000  0.4534130000000 1.0
C      1  0.5150450000000  0.5472030000000  0.5464030000000 1.0
C      1  0.5150090000000  0.5472320000000  0.4535450000000 1.0
C      1  0.4850170000000  0.5471270000000  0.5463330000000 1.0
C      1  0.5297200000000  0.5112820000000  0.5647750000000 1.0
C      1  0.4704860000000  0.5113360000000  0.4351590000000 1.0
C      1  0.4704670000000  0.5115510000000  0.5647500000000 1.0
C      1  0.5298160000000  0.5113540000000  0.4355040000000 1.0
C      1  0.5143920000000  0.4897180000000  0.4233880000000 1.0
C      1  0.4857660000000  0.4896830000000  0.5767150000000 1.0
C      1  0.4859590000000  0.4897010000000  0.4232840000000 1.0
C      1  0.5142050000000  0.4895540000000  0.5767640000000 1.0
END
