TITL C-2441157-2117-1169 0.15875957422849 125000 -25213.2056050487 0 0 194 (C1) n - 1
REM
REM in /home/bkarasulu/work/CARBON/AIRSS/Generating-Clusters/ReaxFF-fromJPCA2015/Units_Real/with-SteepDescent/Higher-Symm
REM
REM
REM
REM
REM
REM ./C.cell (1df0a924f5614ab8850e4351716899ee)
REM
REM compiler GCC version 9.2.1 20190827 (Red Hat 9.2.1-1)
REM options -cpp -mtune=generic -march=x86-64 -g -O0 -fpre-include=/usr/include/finclude/math-vector-fortran.h
REM seed -869036982 -1722763131 -1582286789 1444113278 335146659 828557295 608890675 -1815309183 -348586262 39836642 1855626653 389537999 -685669795 1130610426 1493292688 -471116284 -591393704 -610068391 1263420003 -1238104283 210928373 -818907525 533383354 -1170125485 1322533632 1439949416 103826385 -878365083 -910887349 -149108070 901300849 -601274499 -1066289445
REM
CELL 1.54180   50.00000   50.00000   50.00000   90.00000   90.00000   90.00000
LATT -1
SFAC C  
C      1  0.4747680000000  0.3955720000000  0.4870830000000 1.0
C      1  0.4739140000000  0.5419030000000  0.5995110000000 1.0
C      1  0.4743460000000  0.5651080000000  0.4148110000000 1.0
C      1  0.5280410000000  0.3908880000000  0.5150140000000 1.0
C      1  0.5258470000000  0.5404410000000  0.4006140000000 1.0
C      1  0.5242630000000  0.5643350000000  0.5847130000000 1.0
C      1  0.3904240000000  0.5272960000000  0.4940600000000 1.0
C      1  0.3920470000000  0.4827070000000  0.4809150000000 1.0
C      1  0.3913490000000  0.4916390000000  0.5263680000000 1.0
C      1  0.6074530000000  0.5265880000000  0.5051560000000 1.0
C      1  0.6083440000000  0.4812150000000  0.5189500000000 1.0
C      1  0.6089090000000  0.4923120000000  0.4736610000000 1.0
C      1  0.4547440000000  0.5797290000000  0.5663640000000 1.0
C      1  0.4552490000000  0.5164790000000  0.4014980000000 1.0
C      1  0.4564710000000  0.4048610000000  0.5347420000000 1.0
C      1  0.5454210000000  0.5786040000000  0.4345250000000 1.0
C      1  0.5407760000000  0.5158040000000  0.5958670000000 1.0
C      1  0.5380780000000  0.4137710000000  0.4671970000000 1.0
C      1  0.5713240000000  0.5813480000000  0.4701550000000 1.0
C      1  0.5731950000000  0.4359080000000  0.4443460000000 1.0
C      1  0.5708890000000  0.4824140000000  0.5817830000000 1.0
C      1  0.4239730000000  0.5803110000000  0.5289800000000 1.0
C      1  0.4278400000000  0.4303040000000  0.5523420000000 1.0
C      1  0.4255560000000  0.4838540000000  0.4157260000000 1.0
C      1  0.4848150000000  0.4489540000000  0.5392580000000 1.0
C      1  0.4865920000000  0.5500470000000  0.5230010000000 1.0
C      1  0.4864780000000  0.4954300000000  0.4410090000000 1.0
C      1  0.5133340000000  0.4463800000000  0.4675810000000 1.0
C      1  0.5117010000000  0.5543410000000  0.4728210000000 1.0
C      1  0.5147050000000  0.4958680000000  0.5616440000000 1.0
C      1  0.5474630000000  0.4701030000000  0.5028470000000 1.0
C      1  0.5573030000000  0.5115720000000  0.5188240000000 1.0
C      1  0.5562950000000  0.5102490000000  0.4878340000000 1.0
C      1  0.4523540000000  0.4685600000000  0.4964840000000 1.0
C      1  0.4473300000000  0.5084500000000  0.4842480000000 1.0
C      1  0.4389670000000  0.5077440000000  0.5117790000000 1.0
C      1  0.6022920000000  0.5281300000000  0.5325010000000 1.0
C      1  0.6055570000000  0.5147480000000  0.4566970000000 1.0
C      1  0.6062090000000  0.4551520000000  0.5081190000000 1.0
C      1  0.3966670000000  0.5305990000000  0.4663520000000 1.0
C      1  0.3939470000000  0.5136160000000  0.5441710000000 1.0
C      1  0.3941620000000  0.4569600000000  0.4918350000000 1.0
C      1  0.4532590000000  0.4777550000000  0.5524390000000 1.0
C      1  0.4495310000000  0.5554160000000  0.5021030000000 1.0
C      1  0.4524210000000  0.4645510000000  0.4509240000000 1.0
C      1  0.5468250000000  0.4737160000000  0.4502940000000 1.0
C      1  0.5484500000000  0.5576510000000  0.4971480000000 1.0
C      1  0.5434340000000  0.4633560000000  0.5470860000000 1.0
C      1  0.5122250000000  0.5307810000000  0.4294710000000 1.0
C      1  0.5136050000000  0.4296600000000  0.5074030000000 1.0
C      1  0.5108450000000  0.5445190000000  0.5598720000000 1.0
C      1  0.4865130000000  0.5300920000000  0.5685520000000 1.0
C      1  0.4869850000000  0.4240430000000  0.4882400000000 1.0
C      1  0.4883400000000  0.5449730000000  0.4389050000000 1.0
C      1  0.4524530000000  0.5677420000000  0.4356320000000 1.0
C      1  0.4485190000000  0.4095140000000  0.4749240000000 1.0
C      1  0.4487750000000  0.5258890000000  0.5913600000000 1.0
C      1  0.5505030000000  0.5659370000000  0.5680260000000 1.0
C      1  0.5496580000000  0.4084760000000  0.5249740000000 1.0
C      1  0.5503360000000  0.5248560000000  0.4096700000000 1.0
C      1  0.5513520000000  0.4601670000000  0.5755230000000 1.0
C      1  0.5554700000000  0.5853790000000  0.4944790000000 1.0
C      1  0.5540070000000  0.4538570000000  0.4296450000000 1.0
C      1  0.4422850000000  0.4608900000000  0.4239880000000 1.0
C      1  0.4431850000000  0.5832950000000  0.5059170000000 1.0
C      1  0.4587450000000  0.4611550000000  0.5760630000000 1.0
C      1  0.5961740000000  0.5557210000000  0.5353620000000 1.0
C      1  0.5997400000000  0.5038930000000  0.4302590000000 1.0
C      1  0.6012030000000  0.4380350000000  0.5317790000000 1.0
C      1  0.4035840000000  0.5583940000000  0.4620480000000 1.0
C      1  0.4006820000000  0.5002550000000  0.5696820000000 1.0
C      1  0.3969470000000  0.4402170000000  0.4677840000000 1.0
C      1  0.4733600000000  0.5255560000000  0.5272730000000 1.0
C      1  0.4857000000000  0.5144790000000  0.4626360000000 1.0
C      1  0.4836950000000  0.4534670000000  0.5124630000000 1.0
C      1  0.5147020000000  0.5250160000000  0.4693420000000 1.0
C      1  0.5124810000000  0.5035700000000  0.5344610000000 1.0
C      1  0.5004140000000  0.4659280000000  0.4909200000000 1.0
C      1  0.4182410000000  0.5166130000000  0.5554040000000 1.0
C      1  0.4222130000000  0.5383550000000  0.4611640000000 1.0
C      1  0.4164030000000  0.4427800000000  0.4865800000000 1.0
C      1  0.5806140000000  0.5163650000000  0.4465370000000 1.0
C      1  0.5756140000000  0.5348880000000  0.5367970000000 1.0
C      1  0.5827630000000  0.4423270000000  0.5116940000000 1.0
C      1  0.5014190000000  0.5774800000000  0.4227500000000 1.0
C      1  0.5006860000000  0.3914730000000  0.4718090000000 1.0
C      1  0.4981440000000  0.5249460000000  0.6065380000000 1.0
C      1  0.4998060000000  0.5796330000000  0.5746690000000 1.0
C      1  0.5022800000000  0.3957410000000  0.5288750000000 1.0
C      1  0.4998830000000  0.5243380000000  0.3927590000000 1.0
C      1  0.5645870000000  0.5114100000000  0.5824490000000 1.0
C      1  0.5644710000000  0.5627810000000  0.4485070000000 1.0
C      1  0.5658350000000  0.4205430000000  0.4682360000000 1.0
C      1  0.4359610000000  0.5114360000000  0.4189280000000 1.0
C      1  0.4324260000000  0.5671660000000  0.5540320000000 1.0
C      1  0.4313780000000  0.4168740000000  0.5274000000000 1.0
C      1  0.4762350000000  0.5697610000000  0.5865440000000 1.0
C      1  0.4762940000000  0.5387630000000  0.3976090000000 1.0
C      1  0.4762000000000  0.3918460000000  0.5180420000000 1.0
C      1  0.5262780000000  0.5690340000000  0.4132720000000 1.0
C      1  0.5222290000000  0.5389470000000  0.6019450000000 1.0
C      1  0.5255310000000  0.3910980000000  0.4852090000000 1.0
C      1  0.4040400000000  0.5699840000000  0.5102770000000 1.0
C      1  0.4044540000000  0.4761070000000  0.4349560000000 1.0
C      1  0.4112910000000  0.4542930000000  0.5530580000000 1.0
C      1  0.5933040000000  0.5712600000000  0.4877550000000 1.0
C      1  0.5928380000000  0.4739810000000  0.5640350000000 1.0
C      1  0.5935470000000  0.4571930000000  0.4460500000000 1.0
C      1  0.4375280000000  0.4886150000000  0.4652650000000 1.0
C      1  0.4375620000000  0.4798470000000  0.5237200000000 1.0
C      1  0.4331700000000  0.5354350000000  0.5153570000000 1.0
C      1  0.5614610000000  0.4844650000000  0.5313290000000 1.0
C      1  0.5628110000000  0.4781830000000  0.4753210000000 1.0
C      1  0.5639860000000  0.5383820000000  0.4820180000000 1.0
C      1  0.4556380000000  0.5865280000000  0.4566220000000 1.0
C      1  0.4478660000000  0.4279850000000  0.4539310000000 1.0
C      1  0.4459770000000  0.4982810000000  0.5915720000000 1.0
C      1  0.5556120000000  0.5801830000000  0.5459880000000 1.0
C      1  0.5484900000000  0.4280000000000  0.5455290000000 1.0
C      1  0.5484640000000  0.4980540000000  0.4181470000000 1.0
C      1  0.5115540000000  0.4505960000000  0.5787960000000 1.0
C      1  0.5129160000000  0.5897780000000  0.5088430000000 1.0
C      1  0.5158650000000  0.4617080000000  0.4180390000000 1.0
C      1  0.4897960000000  0.4498870000000  0.4238130000000 1.0
C      1  0.4854280000000  0.5914850000000  0.4979530000000 1.0
C      1  0.4852820000000  0.4597160000000  0.5896060000000 1.0
C      1  0.4864460000000  0.4996060000000  0.5236380000000 1.0
C      1  0.4753490000000  0.5074380000000  0.4872830000000 1.0
C      1  0.4757130000000  0.4806640000000  0.4870260000000 1.0
C      1  0.5276210000000  0.5075630000000  0.4864060000000 1.0
C      1  0.5310430000000  0.5222090000000  0.5253890000000 1.0
C      1  0.5224260000000  0.4839400000000  0.4977210000000 1.0
C      1  0.4629070000000  0.5273020000000  0.5529680000000 1.0
C      1  0.4681410000000  0.5336090000000  0.4530360000000 1.0
C      1  0.4637170000000  0.4413460000000  0.4969610000000 1.0
C      1  0.5332590000000  0.5223770000000  0.4466720000000 1.0
C      1  0.5336680000000  0.5346150000000  0.5489930000000 1.0
C      1  0.5389310000000  0.4421570000000  0.5025470000000 1.0
C      1  0.5918980000000  0.5769900000000  0.5164750000000 1.0
C      1  0.5924080000000  0.4765040000000  0.4243050000000 1.0
C      1  0.5922590000000  0.4454970000000  0.5583680000000 1.0
C      1  0.4092820000000  0.5782210000000  0.4825140000000 1.0
C      1  0.4092440000000  0.4731810000000  0.5750960000000 1.0
C      1  0.4043110000000  0.4478930000000  0.4409200000000 1.0
C      1  0.4571940000000  0.4901120000000  0.3911830000000 1.0
C      1  0.4532670000000  0.4142220000000  0.5634210000000 1.0
C      1  0.4601430000000  0.5955390000000  0.5439230000000 1.0
C      1  0.5418040000000  0.4906660000000  0.6090040000000 1.0
C      1  0.5403590000000  0.4112750000000  0.4385000000000 1.0
C      1  0.5366870000000  0.5963810000000  0.4542290000000 1.0
C      1  0.5067010000000  0.4229560000000  0.5690850000000 1.0
C      1  0.5057800000000  0.5940860000000  0.5367840000000 1.0
C      1  0.5085980000000  0.4835320000000  0.3983320000000 1.0
C      1  0.4913310000000  0.4217190000000  0.4301730000000 1.0
C      1  0.4845450000000  0.5982510000000  0.4674410000000 1.0
C      1  0.4907800000000  0.4839000000000  0.6050070000000 1.0
C      1  0.5599570000000  0.5361410000000  0.5619800000000 1.0
C      1  0.5603410000000  0.5343800000000  0.4399700000000 1.0
C      1  0.5635510000000  0.4252840000000  0.5008580000000 1.0
C      1  0.4418650000000  0.5371730000000  0.4413100000000 1.0
C      1  0.4366360000000  0.5362630000000  0.5632030000000 1.0
C      1  0.4335400000000  0.4236420000000  0.4971220000000 1.0
C      1  0.5173570000000  0.4690130000000  0.5564730000000 1.0
C      1  0.5205720000000  0.5639680000000  0.4976640000000 1.0
C      1  0.5194240000000  0.4659100000000  0.4475990000000 1.0
C      1  0.4788690000000  0.4691330000000  0.4422920000000 1.0
C      1  0.4771980000000  0.5619760000000  0.4996950000000 1.0
C      1  0.4798730000000  0.4772860000000  0.5421380000000 1.0
C      1  0.4349800000000  0.4722740000000  0.5906570000000 1.0
C      1  0.4356950000000  0.5902620000000  0.4783140000000 1.0
C      1  0.4303470000000  0.4358280000000  0.4320380000000 1.0
C      1  0.5651250000000  0.4750820000000  0.4127350000000 1.0
C      1  0.5662800000000  0.5906380000000  0.5218470000000 1.0
C      1  0.5656970000000  0.4355920000000  0.5674630000000 1.0
C      1  0.4086460000000  0.4929870000000  0.4588550000000 1.0
C      1  0.4090140000000  0.4684760000000  0.5267550000000 1.0
C      1  0.4037140000000  0.5411250000000  0.5163020000000 1.0
C      1  0.5905070000000  0.4907450000000  0.5399550000000 1.0
C      1  0.5916480000000  0.4686510000000  0.4731510000000 1.0
C      1  0.5936740000000  0.5418670000000  0.4838350000000 1.0
C      1  0.4797210000000  0.4172250000000  0.5703720000000 1.0
C      1  0.4803890000000  0.6062950000000  0.5280380000000 1.0
C      1  0.4819790000000  0.4822070000000  0.3895290000000 1.0
C      1  0.5172840000000  0.4131820000000  0.4273340000000 1.0
C      1  0.5124460000000  0.6048940000000  0.4619770000000 1.0
C      1  0.5176890000000  0.4831760000000  0.6121000000000 1.0
C      1  0.4969950000000  0.4219530000000  0.4611640000000 1.0
C      1  0.4953040000000  0.5049720000000  0.5817670000000 1.0
C      1  0.4973700000000  0.5686940000000  0.4520740000000 1.0
C      1  0.5042680000000  0.4260930000000  0.5382090000000 1.0
C      1  0.5017420000000  0.5051410000000  0.4184820000000 1.0
C      1  0.5002240000000  0.5668110000000  0.5439590000000 1.0
C      1  0.3873610000000  0.5007840000000  0.5004830000000 1.0
C      1  0.6115280000000  0.5002650000000  0.4994770000000 1.0
END
