TITL C-2441158-471-513 0.0011990077000333 125000 -15789.0737896091 0 0 101 (C1) n - 1
REM
REM in /home/bkarasulu/work/CARBON/AIRSS/Generating-Clusters/ReaxFF-fromJPCA2015/Units_Real/with-SteepDescent/Higher-Symm
REM
REM
REM
REM
REM
REM ./C.cell (1df0a924f5614ab8850e4351716899ee)
REM
REM compiler GCC version 9.2.1 20190827 (Red Hat 9.2.1-1)
REM options -cpp -mtune=generic -march=x86-64 -g -O0 -fpre-include=/usr/include/finclude/math-vector-fortran.h
REM seed 1813415003 413450379 282340844 -778707848 -186960046 948250289 -2131182315 1688606283 1564918729 219145184 -2094900808 2133422601 410129384 -1069052421 -2132914070 -1384803707 2139842228 -1767758262 1739771809 255631987 191185552 1875499972 -1644487343 432300818 1271136876 -243043167 1682680056 -199814695 783543727 -669830158 439660755 -1434634383 126376151
REM
CELL 1.54180   50.00000   50.00000   50.00000   90.00000   90.00000   90.00000
LATT -1
SFAC C  
C      1  0.5210040000000  0.5369060000000  0.4194140000000 1.0
C      1  0.5198570000000  0.4622380000000  0.4225910000000 1.0
C      1  0.5199050000000  0.4180790000000  0.4827090000000 1.0
C      1  0.5204070000000  0.4316500000000  0.5560100000000 1.0
C      1  0.5206220000000  0.4999100000000  0.5854310000000 1.0
C      1  0.5191810000000  0.5658250000000  0.5506480000000 1.0
C      1  0.5198850000000  0.5826230000000  0.4781740000000 1.0
C      1  0.4357110000000  0.5432140000000  0.4623670000000 1.0
C      1  0.4355570000000  0.5189900000000  0.4451220000000 1.0
C      1  0.4363850000000  0.4675830000000  0.4606010000000 1.0
C      1  0.4385990000000  0.4492810000000  0.5075900000000 1.0
C      1  0.4290000000000  0.4597110000000  0.5562850000000 1.0
C      1  0.4353630000000  0.5103370000000  0.5534930000000 1.0
C      1  0.4372210000000  0.5456570000000  0.5162550000000 1.0
C      1  0.4533500000000  0.5191190000000  0.5745540000000 1.0
C      1  0.4531620000000  0.5679210000000  0.5255120000000 1.0
C      1  0.4541760000000  0.5648680000000  0.4578640000000 1.0
C      1  0.4541640000000  0.5154750000000  0.4232870000000 1.0
C      1  0.4532640000000  0.4511710000000  0.4435060000000 1.0
C      1  0.4544400000000  0.4257070000000  0.5070990000000 1.0
C      1  0.4535890000000  0.4527750000000  0.5676220000000 1.0
C      1  0.4697800000000  0.4991540000000  0.5874560000000 1.0
C      1  0.4682400000000  0.5643270000000  0.5503350000000 1.0
C      1  0.4690350000000  0.5806390000000  0.4773230000000 1.0
C      1  0.4706700000000  0.5385330000000  0.4179180000000 1.0
C      1  0.4690420000000  0.4641830000000  0.4230880000000 1.0
C      1  0.4690190000000  0.4191200000000  0.4829950000000 1.0
C      1  0.4696390000000  0.4316240000000  0.5565300000000 1.0
C      1  0.4780810000000  0.5200250000000  0.5287280000000 1.0
C      1  0.5016240000000  0.5298940000000  0.4864820000000 1.0
C      1  0.4963530000000  0.5154600000000  0.4591420000000 1.0
C      1  0.4990000000000  0.4869770000000  0.4665010000000 1.0
C      1  0.4766160000000  0.4778390000000  0.4895370000000 1.0
C      1  0.4923530000000  0.4726640000000  0.5164050000000 1.0
C      1  0.4932940000000  0.4955800000000  0.5354210000000 1.0
C      1  0.4226890000000  0.4849870000000  0.5465570000000 1.0
C      1  0.4496180000000  0.5237590000000  0.5318690000000 1.0
C      1  0.4290190000000  0.5361250000000  0.4897930000000 1.0
C      1  0.4353790000000  0.5074890000000  0.4871590000000 1.0
C      1  0.4283450000000  0.4958330000000  0.4610120000000 1.0
C      1  0.4509440000000  0.4625730000000  0.4851630000000 1.0
C      1  0.4247640000000  0.4622990000000  0.5290840000000 1.0
C      1  0.5362670000000  0.5687890000000  0.4590470000000 1.0
C      1  0.5364710000000  0.5127420000000  0.4198580000000 1.0
C      1  0.5357350000000  0.4469920000000  0.4411590000000 1.0
C      1  0.5360370000000  0.4228610000000  0.5059560000000 1.0
C      1  0.5360480000000  0.4522790000000  0.5678010000000 1.0
C      1  0.5361230000000  0.5205010000000  0.5730950000000 1.0
C      1  0.5353920000000  0.5726020000000  0.5280710000000 1.0
C      1  0.5193490000000  0.4283730000000  0.4554000000000 1.0
C      1  0.5203130000000  0.4190170000000  0.5294940000000 1.0
C      1  0.5205700000000  0.4706520000000  0.5830560000000 1.0
C      1  0.5198910000000  0.5439170000000  0.5698590000000 1.0
C      1  0.5193170000000  0.5841940000000  0.5073140000000 1.0
C      1  0.5208400000000  0.5608430000000  0.4362590000000 1.0
C      1  0.5200620000000  0.4900320000000  0.4136500000000 1.0
C      1  0.4944930000000  0.5853550000000  0.4653000000000 1.0
C      1  0.4957060000000  0.5289340000000  0.4088440000000 1.0
C      1  0.4939890000000  0.4501470000000  0.4233760000000 1.0
C      1  0.4943500000000  0.4098470000000  0.4925650000000 1.0
C      1  0.4951200000000  0.4348720000000  0.5688500000000 1.0
C      1  0.4951520000000  0.5116320000000  0.5911320000000 1.0
C      1  0.4932950000000  0.5767250000000  0.5447450000000 1.0
C      1  0.4947920000000  0.4099830000000  0.5203150000000 1.0
C      1  0.4951690000000  0.4576730000000  0.5847510000000 1.0
C      1  0.4944060000000  0.5376880000000  0.5814650000000 1.0
C      1  0.4935280000000  0.5875940000000  0.5191130000000 1.0
C      1  0.4955760000000  0.5735820000000  0.4402060000000 1.0
C      1  0.4946540000000  0.5012870000000  0.4065610000000 1.0
C      1  0.4936670000000  0.4301610000000  0.4427470000000 1.0
C      1  0.5624890000000  0.5557730000000  0.4661790000000 1.0
C      1  0.5627090000000  0.5101050000000  0.4344280000000 1.0
C      1  0.5623660000000  0.4563680000000  0.4518090000000 1.0
C      1  0.5619610000000  0.4386650000000  0.5057260000000 1.0
C      1  0.5639500000000  0.4599900000000  0.5566160000000 1.0
C      1  0.5613450000000  0.5151120000000  0.5570340000000 1.0
C      1  0.5619940000000  0.5594900000000  0.5224310000000 1.0
C      1  0.4695010000000  0.4187460000000  0.5304810000000 1.0
C      1  0.4696720000000  0.4704230000000  0.5838060000000 1.0
C      1  0.4687080000000  0.5436520000000  0.5704880000000 1.0
C      1  0.4686840000000  0.5827220000000  0.5059940000000 1.0
C      1  0.4706260000000  0.5618870000000  0.4343380000000 1.0
C      1  0.4691220000000  0.4918280000000  0.4151610000000 1.0
C      1  0.4685720000000  0.4298120000000  0.4561040000000 1.0
C      1  0.5406480000000  0.5170110000000  0.5178350000000 1.0
C      1  0.5283150000000  0.5289090000000  0.4943540000000 1.0
C      1  0.5440000000000  0.5146190000000  0.4755780000000 1.0
C      1  0.5272160000000  0.4879800000000  0.4690340000000 1.0
C      1  0.5422330000000  0.4740560000000  0.4909820000000 1.0
C      1  0.5212480000000  0.4712610000000  0.5164830000000 1.0
C      1  0.5227300000000  0.4948520000000  0.5327610000000 1.0
C      1  0.5655790000000  0.4827690000000  0.4419430000000 1.0
C      1  0.5635270000000  0.4552270000000  0.4815690000000 1.0
C      1  0.5670360000000  0.4543840000000  0.5290530000000 1.0
C      1  0.5666780000000  0.4876630000000  0.5512910000000 1.0
C      1  0.5619480000000  0.5317320000000  0.5328110000000 1.0
C      1  0.5651510000000  0.5588570000000  0.4942950000000 1.0
C      1  0.5631410000000  0.5275500000000  0.4579640000000 1.0
C      1  0.4794490000000  0.5241440000000  0.5015320000000 1.0
C      1  0.5624310000000  0.4992110000000  0.4994540000000 1.0
C      1  0.4633130000000  0.5039010000000  0.4918860000000 1.0
END
