TITL C-2441165-58-940 -1.40400901796067e-08 125000 -1347.43745419817 0 0 10 (D(inf)h) n - 1
REM
REM in /home/bkarasulu/work/CARBON/AIRSS/Generating-Clusters/ReaxFF-fromJPCA2015/Units_Real/with-SteepDescent/Higher-Symm
REM
REM
REM
REM
REM
REM ./C.cell (1df0a924f5614ab8850e4351716899ee)
REM
REM compiler GCC version 9.2.1 20190827 (Red Hat 9.2.1-1)
REM options -cpp -mtune=generic -march=x86-64 -g -O0 -fpre-include=/usr/include/finclude/math-vector-fortran.h
REM seed -606937645 430983952 2145275834 1160756545 654509138 -566423574 -264628572 -1871215497 969490267 1770679385 1597711204 1957495473 532351966 1868185739 -856982855 1534605420 -1149126481 253425370 -786061124 -1599547438 1036523011 1925971893 -859375083 1331089142 1148261464 1403884059 -1196388697 2016655796 -1395491112 -447243689 591807301 19820183 791056661
REM
CELL 1.54180   50.00000   50.00000   50.00000   90.00000   90.00000   90.00000
LATT -1
SFAC C  
C      1  0.5379790000000  0.4992570000000  0.4997810000000 1.0
C      1  0.6134100000000  0.4992570000000  0.4997810000000 1.0
C      1  0.4367530000000  0.4992570000000  0.4997810000000 1.0
C      1  0.4873440000000  0.4992570000000  0.4997810000000 1.0
C      1  0.4110050000000  0.4992570000000  0.4997810000000 1.0
C      1  0.4620210000000  0.4992570000000  0.4997810000000 1.0
C      1  0.5889950000000  0.4992570000000  0.4997810000000 1.0
C      1  0.5126560000000  0.4992570000000  0.4997810000000 1.0
C      1  0.3865900000000  0.4992570000000  0.4997810000000 1.0
C      1  0.5632470000000  0.4992570000000  0.4997810000000 1.0
END
