TITL C-2441169-1362-1279 0.17475410915893 125000 -25179.33397664 0 0 192 (C1) n - 1
REM
REM in /home/bkarasulu/work/CARBON/AIRSS/Generating-Clusters/ReaxFF-fromJPCA2015/Units_Real/with-SteepDescent/Higher-Symm
REM
REM
REM
REM
REM
REM ./C.cell (1df0a924f5614ab8850e4351716899ee)
REM
REM compiler GCC version 9.2.1 20190827 (Red Hat 9.2.1-1)
REM options -cpp -mtune=generic -march=x86-64 -g -O0 -fpre-include=/usr/include/finclude/math-vector-fortran.h
REM seed 135564932 -873466070 -1934246851 46741908 2115156992 1143894267 -1286797862 1280175578 -1284372732 1080493699 -916130939 -1563604404 1691776823 -26309340 -1593346549 867540189 -1988825358 -1449664173 -764816181 2125014613 102826248 -1121619412 336104920 -1546390014 1949255948 299034918 -275886082 -1179301283 -454747285 -1323340242 341595364 -387506885 441573019
REM
CELL 1.54180   50.00000   50.00000   50.00000   90.00000   90.00000   90.00000
LATT -1
SFAC C  
C      1  0.5153070000000  0.5583130000000  0.4877020000000 1.0
C      1  0.5152540000000  0.4427970000000  0.5148180000000 1.0
C      1  0.4825430000000  0.5578380000000  0.4848140000000 1.0
C      1  0.4851910000000  0.4427100000000  0.5143800000000 1.0
C      1  0.5244350000000  0.5589450000000  0.5146400000000 1.0
C      1  0.5160430000000  0.4419520000000  0.4847550000000 1.0
C      1  0.4759330000000  0.5596120000000  0.5130640000000 1.0
C      1  0.4841380000000  0.4415480000000  0.4854340000000 1.0
C      1  0.4429900000000  0.3953370000000  0.4846900000000 1.0
C      1  0.4437150000000  0.6044410000000  0.5145690000000 1.0
C      1  0.5560940000000  0.3940860000000  0.4851920000000 1.0
C      1  0.5564240000000  0.6047290000000  0.5145160000000 1.0
C      1  0.4430100000000  0.3950010000000  0.5143690000000 1.0
C      1  0.4430050000000  0.6052230000000  0.4853340000000 1.0
C      1  0.5561680000000  0.3943270000000  0.5147700000000 1.0
C      1  0.5559920000000  0.6042170000000  0.4863130000000 1.0
C      1  0.5803390000000  0.4684600000000  0.4420630000000 1.0
C      1  0.5756530000000  0.5323770000000  0.5610800000000 1.0
C      1  0.4227350000000  0.4696850000000  0.4445520000000 1.0
C      1  0.4208840000000  0.5303850000000  0.5569850000000 1.0
C      1  0.5752100000000  0.4677400000000  0.5604650000000 1.0
C      1  0.5771490000000  0.5333040000000  0.4372390000000 1.0
C      1  0.4198970000000  0.4680750000000  0.5583310000000 1.0
C      1  0.4251850000000  0.5328170000000  0.4395710000000 1.0
C      1  0.5446930000000  0.4574850000000  0.5934140000000 1.0
C      1  0.5428530000000  0.5435070000000  0.4068780000000 1.0
C      1  0.4531330000000  0.4578000000000  0.5906730000000 1.0
C      1  0.4557260000000  0.5427550000000  0.4062200000000 1.0
C      1  0.5460120000000  0.4571670000000  0.4095470000000 1.0
C      1  0.5431000000000  0.5427490000000  0.5936150000000 1.0
C      1  0.4541230000000  0.4576840000000  0.4076250000000 1.0
C      1  0.4549550000000  0.5427260000000  0.5912430000000 1.0
C      1  0.3957770000000  0.4544510000000  0.4845030000000 1.0
C      1  0.3952650000000  0.5511590000000  0.5151770000000 1.0
C      1  0.6033910000000  0.4435290000000  0.4824150000000 1.0
C      1  0.6058690000000  0.5539190000000  0.5142560000000 1.0
C      1  0.3951560000000  0.4493010000000  0.5141700000000 1.0
C      1  0.3955640000000  0.5470780000000  0.4858540000000 1.0
C      1  0.6062270000000  0.4481540000000  0.5119820000000 1.0
C      1  0.6052860000000  0.5536590000000  0.4847610000000 1.0
C      1  0.4668790000000  0.4870720000000  0.5120270000000 1.0
C      1  0.4824190000000  0.5091710000000  0.4823320000000 1.0
C      1  0.5244850000000  0.4869610000000  0.5133060000000 1.0
C      1  0.5336190000000  0.5146480000000  0.4869070000000 1.0
C      1  0.4769610000000  0.4822670000000  0.4871100000000 1.0
C      1  0.4708540000000  0.5147220000000  0.5082650000000 1.0
C      1  0.5297340000000  0.4854450000000  0.4869830000000 1.0
C      1  0.5255470000000  0.5142200000000  0.5143970000000 1.0
C      1  0.4331500000000  0.5825740000000  0.4692490000000 1.0
C      1  0.4331900000000  0.4182340000000  0.5280770000000 1.0
C      1  0.5654400000000  0.5829890000000  0.4712000000000 1.0
C      1  0.5662350000000  0.4171660000000  0.5300680000000 1.0
C      1  0.4336340000000  0.5828690000000  0.5282830000000 1.0
C      1  0.4326260000000  0.4181870000000  0.4701580000000 1.0
C      1  0.5662360000000  0.5833570000000  0.5301280000000 1.0
C      1  0.5654040000000  0.4173390000000  0.4716330000000 1.0
C      1  0.5812500000000  0.5129290000000  0.5218160000000 1.0
C      1  0.5741090000000  0.4853710000000  0.4829130000000 1.0
C      1  0.4267380000000  0.5114180000000  0.5211880000000 1.0
C      1  0.4248230000000  0.4864420000000  0.4834910000000 1.0
C      1  0.5799000000000  0.5133440000000  0.4785830000000 1.0
C      1  0.5790840000000  0.4861490000000  0.5164270000000 1.0
C      1  0.4239910000000  0.5141110000000  0.4804790000000 1.0
C      1  0.4222000000000  0.4850820000000  0.5132290000000 1.0
C      1  0.5128900000000  0.4728110000000  0.4475010000000 1.0
C      1  0.5136960000000  0.5317460000000  0.5538280000000 1.0
C      1  0.4859050000000  0.4723870000000  0.4470220000000 1.0
C      1  0.4851090000000  0.5272120000000  0.5513150000000 1.0
C      1  0.5139570000000  0.4743920000000  0.5520210000000 1.0
C      1  0.5140380000000  0.5278070000000  0.4475950000000 1.0
C      1  0.4868620000000  0.4738610000000  0.5524510000000 1.0
C      1  0.4859270000000  0.5217900000000  0.4532540000000 1.0
C      1  0.5306820000000  0.4682640000000  0.5308550000000 1.0
C      1  0.5273650000000  0.5377140000000  0.4709490000000 1.0
C      1  0.4651900000000  0.4684500000000  0.5335400000000 1.0
C      1  0.4693400000000  0.5431390000000  0.4621840000000 1.0
C      1  0.5300050000000  0.4642430000000  0.4689580000000 1.0
C      1  0.5318080000000  0.5355750000000  0.5302920000000 1.0
C      1  0.4683340000000  0.4665490000000  0.4675320000000 1.0
C      1  0.4716430000000  0.5358430000000  0.5274340000000 1.0
C      1  0.4862400000000  0.5676340000000  0.5697440000000 1.0
C      1  0.4863800000000  0.4320710000000  0.4303110000000 1.0
C      1  0.5133570000000  0.5630820000000  0.5675680000000 1.0
C      1  0.5134940000000  0.4315330000000  0.4289990000000 1.0
C      1  0.4834890000000  0.5619730000000  0.4359570000000 1.0
C      1  0.4861420000000  0.4326710000000  0.5719400000000 1.0
C      1  0.5113970000000  0.5667150000000  0.4333000000000 1.0
C      1  0.5132890000000  0.4322170000000  0.5697520000000 1.0
C      1  0.4435260000000  0.4832140000000  0.4609240000000 1.0
C      1  0.4404910000000  0.5107640000000  0.5461600000000 1.0
C      1  0.5599050000000  0.4842960000000  0.4565060000000 1.0
C      1  0.5605170000000  0.5171170000000  0.5412490000000 1.0
C      1  0.4439740000000  0.4825190000000  0.5479660000000 1.0
C      1  0.4426130000000  0.5211960000000  0.4599890000000 1.0
C      1  0.5600380000000  0.4814620000000  0.5394420000000 1.0
C      1  0.5649850000000  0.5138180000000  0.4552980000000 1.0
C      1  0.5777150000000  0.5620260000000  0.5144650000000 1.0
C      1  0.5758810000000  0.4364260000000  0.4864370000000 1.0
C      1  0.4223770000000  0.5624500000000  0.5129030000000 1.0
C      1  0.4215470000000  0.4387460000000  0.4849410000000 1.0
C      1  0.5772600000000  0.5621480000000  0.4859000000000 1.0
C      1  0.5775770000000  0.4383400000000  0.5143670000000 1.0
C      1  0.4217580000000  0.5604250000000  0.4843530000000 1.0
C      1  0.4201050000000  0.4358770000000  0.5120510000000 1.0
C      1  0.5154660000000  0.4106890000000  0.4704760000000 1.0
C      1  0.5172850000000  0.5842260000000  0.5277330000000 1.0
C      1  0.4846010000000  0.4109300000000  0.4706920000000 1.0
C      1  0.4832770000000  0.5845750000000  0.5272490000000 1.0
C      1  0.5152140000000  0.4117720000000  0.5293050000000 1.0
C      1  0.5144280000000  0.5888610000000  0.4721460000000 1.0
C      1  0.4845840000000  0.4126040000000  0.5291450000000 1.0
C      1  0.4843520000000  0.5905190000000  0.4704750000000 1.0
C      1  0.4167440000000  0.5145900000000  0.4179080000000 1.0
C      1  0.4149650000000  0.4870360000000  0.5837450000000 1.0
C      1  0.5842260000000  0.5159760000000  0.4145930000000 1.0
C      1  0.5829610000000  0.4849840000000  0.5833610000000 1.0
C      1  0.4157020000000  0.5163760000000  0.5828200000000 1.0
C      1  0.4174000000000  0.4845870000000  0.4190710000000 1.0
C      1  0.5834780000000  0.5150690000000  0.5835280000000 1.0
C      1  0.5837540000000  0.4859920000000  0.4181790000000 1.0
C      1  0.4442960000000  0.4236020000000  0.5538290000000 1.0
C      1  0.4446060000000  0.5790500000000  0.4428600000000 1.0
C      1  0.5545920000000  0.4226350000000  0.5553670000000 1.0
C      1  0.5542520000000  0.5777240000000  0.4454180000000 1.0
C      1  0.4440530000000  0.4242890000000  0.4453000000000 1.0
C      1  0.4437730000000  0.5761550000000  0.5541510000000 1.0
C      1  0.5557790000000  0.4232120000000  0.4453840000000 1.0
C      1  0.5548400000000  0.5776260000000  0.5559900000000 1.0
C      1  0.4410810000000  0.4850510000000  0.4018350000000 1.0
C      1  0.4415130000000  0.5162220000000  0.5980830000000 1.0
C      1  0.5582300000000  0.4852960000000  0.4042560000000 1.0
C      1  0.5575730000000  0.5154700000000  0.5977590000000 1.0
C      1  0.4398510000000  0.4854990000000  0.5974450000000 1.0
C      1  0.4423710000000  0.5151350000000  0.4029230000000 1.0
C      1  0.5586910000000  0.4857310000000  0.5993790000000 1.0
C      1  0.5575080000000  0.5151790000000  0.4018020000000 1.0
C      1  0.3971600000000  0.4806710000000  0.4740770000000 1.0
C      1  0.4002130000000  0.5230200000000  0.5215400000000 1.0
C      1  0.6018900000000  0.4727740000000  0.4785340000000 1.0
C      1  0.6063050000000  0.5247440000000  0.5143030000000 1.0
C      1  0.4052390000000  0.4709120000000  0.5301480000000 1.0
C      1  0.3970530000000  0.5177620000000  0.4908740000000 1.0
C      1  0.6065720000000  0.4763220000000  0.5074780000000 1.0
C      1  0.6056720000000  0.5243940000000  0.4853070000000 1.0
C      1  0.5279710000000  0.6101830000000  0.4859640000000 1.0
C      1  0.5271840000000  0.3900980000000  0.5139620000000 1.0
C      1  0.4715860000000  0.6103420000000  0.4854060000000 1.0
C      1  0.4719320000000  0.3904160000000  0.5139280000000 1.0
C      1  0.5280390000000  0.6095430000000  0.5151270000000 1.0
C      1  0.5279520000000  0.3905510000000  0.4857870000000 1.0
C      1  0.4722260000000  0.6093630000000  0.5140670000000 1.0
C      1  0.4715650000000  0.3905250000000  0.4854330000000 1.0
C      1  0.5167440000000  0.5135070000000  0.3961030000000 1.0
C      1  0.5156230000000  0.4850480000000  0.6051110000000 1.0
C      1  0.4860810000000  0.5154350000000  0.3972420000000 1.0
C      1  0.4854600000000  0.4835300000000  0.6045870000000 1.0
C      1  0.5136730000000  0.5158680000000  0.6049500000000 1.0
C      1  0.5145930000000  0.4827290000000  0.3954220000000 1.0
C      1  0.4828130000000  0.5147350000000  0.6043600000000 1.0
C      1  0.4843910000000  0.4836300000000  0.3955440000000 1.0
C      1  0.5606800000000  0.5545070000000  0.5731590000000 1.0
C      1  0.5638540000000  0.4469100000000  0.4303900000000 1.0
C      1  0.4373740000000  0.5519080000000  0.5693640000000 1.0
C      1  0.4364570000000  0.4479370000000  0.4300620000000 1.0
C      1  0.5603650000000  0.5552580000000  0.4272990000000 1.0
C      1  0.5615290000000  0.4451400000000  0.5723160000000 1.0
C      1  0.4383350000000  0.5554630000000  0.4262370000000 1.0
C      1  0.4368200000000  0.4454790000000  0.5705420000000 1.0
C      1  0.4760990000000  0.5125120000000  0.4256690000000 1.0
C      1  0.4773660000000  0.4860530000000  0.5760040000000 1.0
C      1  0.5235460000000  0.5131430000000  0.4255860000000 1.0
C      1  0.5234170000000  0.4878760000000  0.5748350000000 1.0
C      1  0.4767420000000  0.5127200000000  0.5742610000000 1.0
C      1  0.4769380000000  0.4856750000000  0.4249460000000 1.0
C      1  0.5207100000000  0.5142250000000  0.5756900000000 1.0
C      1  0.5224850000000  0.4865070000000  0.4247570000000 1.0
C      1  0.5149510000000  0.5538310000000  0.4081310000000 1.0
C      1  0.5184480000000  0.4482620000000  0.5923830000000 1.0
C      1  0.4831770000000  0.5525280000000  0.4068260000000 1.0
C      1  0.4794620000000  0.4486350000000  0.5947520000000 1.0
C      1  0.5151800000000  0.5531130000000  0.5943870000000 1.0
C      1  0.5199530000000  0.4474890000000  0.4062590000000 1.0
C      1  0.4834820000000  0.5535940000000  0.5941160000000 1.0
C      1  0.4805140000000  0.4480940000000  0.4076680000000 1.0
C      1  0.5265620000000  0.5833740000000  0.4471570000000 1.0
C      1  0.5280140000000  0.4163160000000  0.5536620000000 1.0
C      1  0.4723640000000  0.5859640000000  0.4448510000000 1.0
C      1  0.4717240000000  0.4174810000000  0.5541680000000 1.0
C      1  0.5274990000000  0.5830030000000  0.5542420000000 1.0
C      1  0.5282750000000  0.4158290000000  0.4456890000000 1.0
C      1  0.4714680000000  0.5822240000000  0.5532700000000 1.0
C      1  0.4710820000000  0.4165720000000  0.4463740000000 1.0
END
