TITL C-2441154-10-225 0.0732132442497231 125000 -22431.4644493227 0 0 159 (C1) n - 1
REM
REM in /home/bkarasulu/work/CARBON/AIRSS/Generating-Clusters/ReaxFF-fromJPCA2015/Units_Real/with-SteepDescent/Higher-Symm
REM
REM
REM
REM
REM
REM ./C.cell (1df0a924f5614ab8850e4351716899ee)
REM
REM compiler GCC version 9.2.1 20190827 (Red Hat 9.2.1-1)
REM options -cpp -mtune=generic -march=x86-64 -g -O0 -fpre-include=/usr/include/finclude/math-vector-fortran.h
REM seed 1052284202 903434586 -333763122 -391195088 -1115071393 1679731625 -1128238095 570688658 -2020543431 459618644 -2143918931 1576380253 -1469391157 -489782558 685386762 905686712 -1979885403 -695991659 -1757069116 -1963317623 -1752060170 634044341 1026310783 2128718655 -350596758 559815235 -110039254 29779387 -613707946 -1499105594 -1860599359 -1391194743 18331561
REM
CELL 1.54180   50.00000   50.00000   50.00000   90.00000   90.00000   90.00000
LATT -1
SFAC C  
C      1  0.5039900000000  0.4727140000000  0.5387280000000 1.0
C      1  0.4957210000000  0.5273660000000  0.4564640000000 1.0
C      1  0.5005330000000  0.5213620000000  0.5402690000000 1.0
C      1  0.5011770000000  0.4804270000000  0.4553700000000 1.0
C      1  0.4972890000000  0.5435820000000  0.4798000000000 1.0
C      1  0.5086070000000  0.4522960000000  0.5192090000000 1.0
C      1  0.4930160000000  0.5164800000000  0.5134700000000 1.0
C      1  0.4971360000000  0.4778130000000  0.4822320000000 1.0
C      1  0.5024090000000  0.5404780000000  0.6019070000000 1.0
C      1  0.5031230000000  0.4571600000000  0.3989940000000 1.0
C      1  0.4965830000000  0.4582910000000  0.6036660000000 1.0
C      1  0.4989090000000  0.5416570000000  0.3961540000000 1.0
C      1  0.4808080000000  0.6040530000000  0.5305060000000 1.0
C      1  0.4991060000000  0.3968440000000  0.4523350000000 1.0
C      1  0.5186320000000  0.6025340000000  0.4689220000000 1.0
C      1  0.5150770000000  0.4017640000000  0.5251760000000 1.0
C      1  0.4527560000000  0.5161540000000  0.4066850000000 1.0
C      1  0.4544180000000  0.4864480000000  0.5941900000000 1.0
C      1  0.5480280000000  0.4826250000000  0.4083890000000 1.0
C      1  0.5467310000000  0.5122590000000  0.5926780000000 1.0
C      1  0.4610340000000  0.4044640000000  0.5153050000000 1.0
C      1  0.4626090000000  0.5986530000000  0.4785260000000 1.0
C      1  0.5410810000000  0.4020820000000  0.4846010000000 1.0
C      1  0.5356020000000  0.5994010000000  0.5141000000000 1.0
C      1  0.4237140000000  0.4688910000000  0.5619840000000 1.0
C      1  0.4291260000000  0.5372290000000  0.4484350000000 1.0
C      1  0.5765040000000  0.5226550000000  0.5593470000000 1.0
C      1  0.5751540000000  0.4566310000000  0.4444350000000 1.0
C      1  0.4275360000000  0.5595080000000  0.4677070000000 1.0
C      1  0.4324050000000  0.4424050000000  0.5264760000000 1.0
C      1  0.5695580000000  0.5632630000000  0.5251300000000 1.0
C      1  0.5721630000000  0.4402730000000  0.4691480000000 1.0
C      1  0.4770040000000  0.5489040000000  0.5917750000000 1.0
C      1  0.4782610000000  0.4488850000000  0.4114980000000 1.0
C      1  0.5208790000000  0.4499020000000  0.5922820000000 1.0
C      1  0.5236840000000  0.5481620000000  0.4088250000000 1.0
C      1  0.4829660000000  0.5848120000000  0.5518560000000 1.0
C      1  0.4861490000000  0.4192370000000  0.4629660000000 1.0
C      1  0.5171690000000  0.5833790000000  0.4485320000000 1.0
C      1  0.5150440000000  0.4152440000000  0.5504510000000 1.0
C      1  0.5661000000000  0.4899410000000  0.5846730000000 1.0
C      1  0.5677960000000  0.4987960000000  0.4234050000000 1.0
C      1  0.4349610000000  0.5093720000000  0.5879430000000 1.0
C      1  0.4419790000000  0.4923180000000  0.4159310000000 1.0
C      1  0.5407220000000  0.5947100000000  0.4859460000000 1.0
C      1  0.5407280000000  0.4087560000000  0.5128400000000 1.0
C      1  0.4580540000000  0.5927270000000  0.5123580000000 1.0
C      1  0.4429170000000  0.4156120000000  0.4970270000000 1.0
C      1  0.5075400000000  0.6073370000000  0.5189680000000 1.0
C      1  0.5141230000000  0.3930110000000  0.4768970000000 1.0
C      1  0.4905770000000  0.4001590000000  0.5099130000000 1.0
C      1  0.4906740000000  0.6064030000000  0.4776970000000 1.0
C      1  0.5177330000000  0.5164770000000  0.5946760000000 1.0
C      1  0.5186950000000  0.4814900000000  0.4046190000000 1.0
C      1  0.4838740000000  0.5174350000000  0.4027760000000 1.0
C      1  0.4833750000000  0.4831470000000  0.5957360000000 1.0
C      1  0.5189310000000  0.5526130000000  0.4965910000000 1.0
C      1  0.5193140000000  0.4413610000000  0.4956180000000 1.0
C      1  0.4768130000000  0.4574780000000  0.4894350000000 1.0
C      1  0.4771350000000  0.5712220000000  0.5053810000000 1.0
C      1  0.5219800000000  0.4842190000000  0.5551660000000 1.0
C      1  0.5164310000000  0.5137880000000  0.4414260000000 1.0
C      1  0.4749930000000  0.4836820000000  0.4459610000000 1.0
C      1  0.4780150000000  0.5141600000000  0.5570000000000 1.0
C      1  0.5751540000000  0.5527510000000  0.4764170000000 1.0
C      1  0.5756680000000  0.4504150000000  0.5244590000000 1.0
C      1  0.4176710000000  0.4459350000000  0.4744570000000 1.0
C      1  0.4234330000000  0.5513380000000  0.5208810000000 1.0
C      1  0.5789760000000  0.4679800000000  0.5494120000000 1.0
C      1  0.5724580000000  0.5261430000000  0.4630890000000 1.0
C      1  0.4160530000000  0.4657830000000  0.4510290000000 1.0
C      1  0.4193710000000  0.5295960000000  0.5410290000000 1.0
C      1  0.6000620000000  0.5365860000000  0.5111820000000 1.0
C      1  0.6035600000000  0.4691990000000  0.4862760000000 1.0
C      1  0.4028630000000  0.4729270000000  0.5024770000000 1.0
C      1  0.3983890000000  0.5267560000000  0.4856680000000 1.0
C      1  0.5953530000000  0.5103650000000  0.5178960000000 1.0
C      1  0.6012690000000  0.4903910000000  0.4656220000000 1.0
C      1  0.3991210000000  0.5134000000000  0.4610860000000 1.0
C      1  0.4120910000000  0.5041830000000  0.5295390000000 1.0
C      1  0.4634400000000  0.4584460000000  0.4363050000000 1.0
C      1  0.4616150000000  0.5416960000000  0.5677300000000 1.0
C      1  0.5348460000000  0.5371020000000  0.4338670000000 1.0
C      1  0.5339860000000  0.4570070000000  0.5674990000000 1.0
C      1  0.4654190000000  0.4391570000000  0.4609610000000 1.0
C      1  0.4613870000000  0.5657670000000  0.5493690000000 1.0
C      1  0.5361360000000  0.4334930000000  0.5494630000000 1.0
C      1  0.5361150000000  0.5634600000000  0.4509610000000 1.0
C      1  0.4082570000000  0.4909370000000  0.4507430000000 1.0
C      1  0.4170690000000  0.4930380000000  0.5742170000000 1.0
C      1  0.5859140000000  0.4830480000000  0.4419580000000 1.0
C      1  0.5858310000000  0.4955210000000  0.5635530000000 1.0
C      1  0.4110140000000  0.4463330000000  0.5037710000000 1.0
C      1  0.4142670000000  0.5506070000000  0.4921710000000 1.0
C      1  0.5841050000000  0.4494530000000  0.4954990000000 1.0
C      1  0.5887250000000  0.5605070000000  0.5021350000000 1.0
C      1  0.4390250000000  0.5395000000000  0.4201620000000 1.0
C      1  0.4437810000000  0.4618750000000  0.5820410000000 1.0
C      1  0.5576410000000  0.4576930000000  0.4200300000000 1.0
C      1  0.5583440000000  0.5349440000000  0.5787750000000 1.0
C      1  0.4486430000000  0.4194270000000  0.5378680000000 1.0
C      1  0.4473020000000  0.5822890000000  0.4615930000000 1.0
C      1  0.5530600000000  0.4188720000000  0.4638710000000 1.0
C      1  0.5481750000000  0.5823440000000  0.5349840000000 1.0
C      1  0.5211170000000  0.5578590000000  0.5246210000000 1.0
C      1  0.5330620000000  0.4557080000000  0.4760410000000 1.0
C      1  0.4800020000000  0.4472900000000  0.5185570000000 1.0
C      1  0.4714150000000  0.5500890000000  0.4882530000000 1.0
C      1  0.5189170000000  0.5430760000000  0.5470450000000 1.0
C      1  0.5198010000000  0.4595810000000  0.4503240000000 1.0
C      1  0.4755120000000  0.5338670000000  0.4379280000000 1.0
C      1  0.4774230000000  0.4622060000000  0.5436480000000 1.0
C      1  0.5365450000000  0.5533100000000  0.5715620000000 1.0
C      1  0.5321490000000  0.4456490000000  0.4280940000000 1.0
C      1  0.4670350000000  0.4488660000000  0.5683010000000 1.0
C      1  0.4627650000000  0.5562610000000  0.4247210000000 1.0
C      1  0.5348830000000  0.5804060000000  0.5624330000000 1.0
C      1  0.5372920000000  0.4189670000000  0.4384210000000 1.0
C      1  0.4666250000000  0.5820410000000  0.4395400000000 1.0
C      1  0.4653120000000  0.4205160000000  0.5622380000000 1.0
C      1  0.4947510000000  0.5818700000000  0.4309130000000 1.0
C      1  0.4933900000000  0.4165280000000  0.5700460000000 1.0
C      1  0.5110050000000  0.4103230000000  0.4295850000000 1.0
C      1  0.5065610000000  0.5825450000000  0.5698020000000 1.0
C      1  0.5013870000000  0.4317680000000  0.5931870000000 1.0
C      1  0.5038700000000  0.5668270000000  0.4084800000000 1.0
C      1  0.4986240000000  0.4289800000000  0.4099730000000 1.0
C      1  0.4976270000000  0.5666750000000  0.5921570000000 1.0
C      1  0.4506990000000  0.5303040000000  0.4922690000000 1.0
C      1  0.4429590000000  0.4677920000000  0.5171460000000 1.0
C      1  0.5506740000000  0.4773660000000  0.4852130000000 1.0
C      1  0.5571150000000  0.5376390000000  0.5197560000000 1.0
C      1  0.4360990000000  0.4860670000000  0.5377220000000 1.0
C      1  0.4424660000000  0.5178150000000  0.4677530000000 1.0
C      1  0.5540380000000  0.5028560000000  0.4691020000000 1.0
C      1  0.5674410000000  0.5152870000000  0.5336160000000 1.0
C      1  0.5311090000000  0.5131280000000  0.4831690000000 1.0
C      1  0.5420240000000  0.4940150000000  0.5345260000000 1.0
C      1  0.4556970000000  0.4920280000000  0.4671910000000 1.0
C      1  0.4597090000000  0.5033850000000  0.5372300000000 1.0
C      1  0.5451380000000  0.4845270000000  0.5109930000000 1.0
C      1  0.5409840000000  0.5352680000000  0.4972930000000 1.0
C      1  0.4530670000000  0.4753130000000  0.4910110000000 1.0
C      1  0.4644620000000  0.5153650000000  0.5125010000000 1.0
C      1  0.5638620000000  0.4625210000000  0.5735470000000 1.0
C      1  0.5643740000000  0.5250980000000  0.4352140000000 1.0
C      1  0.4330030000000  0.5301740000000  0.5672620000000 1.0
C      1  0.4337040000000  0.4687000000000  0.4270150000000 1.0
C      1  0.5537600000000  0.5714770000000  0.4713620000000 1.0
C      1  0.5546440000000  0.4300810000000  0.5281220000000 1.0
C      1  0.4425610000000  0.5709080000000  0.5289140000000 1.0
C      1  0.4392900000000  0.4266590000000  0.4712450000000 1.0
C      1  0.5015740000000  0.5004360000000  0.4199580000000 1.0
C      1  0.5008610000000  0.4992010000000  0.5773790000000 1.0
C      1  0.4984770000000  0.5873840000000  0.4991140000000 1.0
C      1  0.5006500000000  0.4175400000000  0.4879230000000 1.0
C      1  0.4057320000000  0.5015030000000  0.5013820000000 1.0
C      1  0.5921400000000  0.4951810000000  0.4932480000000 1.0
C      1  0.5077650000000  0.5001060000000  0.4947390000000 1.0
END
