TITL C-2441158-471-1308 0.00311236189060739 125000 -5366.56084527135 0 0 40 (C1) n - 1
REM
REM in /home/bkarasulu/work/CARBON/AIRSS/Generating-Clusters/ReaxFF-fromJPCA2015/Units_Real/with-SteepDescent/Higher-Symm
REM
REM
REM
REM
REM
REM ./C.cell (1df0a924f5614ab8850e4351716899ee)
REM
REM compiler GCC version 9.2.1 20190827 (Red Hat 9.2.1-1)
REM options -cpp -mtune=generic -march=x86-64 -g -O0 -fpre-include=/usr/include/finclude/math-vector-fortran.h
REM seed -218909096 -600074546 1930733179 -1032574134 1735083317 -918356468 -329551714 -1423128086 -1439045652 -2106725319 -1757488428 -1863503663 -32357608 -659959271 -1098086313 1054906024 -126669221 -1584193899 478793138 568107852 -1849393746 2016388303 2054492952 -542078702 2107971076 2060542863 -322896540 -205945831 -941008420 711292402 -798613842 598274270 1748611252
REM
CELL 1.54180   50.00000   50.00000   50.00000   90.00000   90.00000   90.00000
LATT -1
SFAC C  
C      1  0.4920020000000  0.5308170000000  0.5491110000000 1.0
C      1  0.5474020000000  0.5327890000000  0.4848860000000 1.0
C      1  0.4610070000000  0.5342400000000  0.4653750000000 1.0
C      1  0.4440860000000  0.5420090000000  0.4908610000000 1.0
C      1  0.5207660000000  0.5379560000000  0.5517810000000 1.0
C      1  0.5452820000000  0.5297560000000  0.4552200000000 1.0
C      1  0.4679890000000  0.5089340000000  0.4583320000000 1.0
C      1  0.4825490000000  0.5047050000000  0.5503020000000 1.0
C      1  0.5535850000000  0.5096290000000  0.4998000000000 1.0
C      1  0.4274180000000  0.5224440000000  0.5024910000000 1.0
C      1  0.5429860000000  0.5267370000000  0.5613300000000 1.0
C      1  0.5229500000000  0.5289170000000  0.4364560000000 1.0
C      1  0.5258250000000  0.4834740000000  0.5482280000000 1.0
C      1  0.5275960000000  0.4832820000000  0.4590630000000 1.0
C      1  0.4489180000000  0.4768970000000  0.5014480000000 1.0
C      1  0.4791720000000  0.5572730000000  0.4529440000000 1.0
C      1  0.4814880000000  0.5480670000000  0.5276200000000 1.0
C      1  0.5328520000000  0.5447010000000  0.5073800000000 1.0
C      1  0.4964640000000  0.5359690000000  0.4446620000000 1.0
C      1  0.4576320000000  0.5443850000000  0.5148100000000 1.0
C      1  0.5417500000000  0.5332790000000  0.5315850000000 1.0
C      1  0.4713080000000  0.4963140000000  0.5060820000000 1.0
C      1  0.5170770000000  0.4898870000000  0.5223270000000 1.0
C      1  0.5089130000000  0.4980080000000  0.4756840000000 1.0
C      1  0.5531540000000  0.4807780000000  0.5025860000000 1.0
C      1  0.4743050000000  0.4820740000000  0.4533780000000 1.0
C      1  0.4742600000000  0.4784540000000  0.5474040000000 1.0
C      1  0.4304360000000  0.4971590000000  0.5031530000000 1.0
C      1  0.5333540000000  0.5013000000000  0.5646360000000 1.0
C      1  0.5389310000000  0.5042320000000  0.4428230000000 1.0
C      1  0.4738130000000  0.4682540000000  0.5163680000000 1.0
C      1  0.5290610000000  0.4652410000000  0.5132900000000 1.0
C      1  0.5011020000000  0.4702480000000  0.4666820000000 1.0
C      1  0.4999340000000  0.5807230000000  0.4954420000000 1.0
C      1  0.4993380000000  0.5035230000000  0.5024150000000 1.0
C      1  0.5016480000000  0.4572170000000  0.4986820000000 1.0
C      1  0.5004740000000  0.4050270000000  0.4994660000000 1.0
C      1  0.5000960000000  0.3806110000000  0.5002950000000 1.0
C      1  0.5048980000000  0.5593730000000  0.5083640000000 1.0
C      1  0.5010480000000  0.4304420000000  0.4990830000000 1.0
END
