TITL C-2441161-5029-957 0.0378540995141152 125000 -16687.2208757454 0 0 126 (C1) n - 1
REM
REM in /home/bkarasulu/work/CARBON/AIRSS/Generating-Clusters/ReaxFF-fromJPCA2015/Units_Real/with-SteepDescent/Higher-Symm
REM
REM
REM
REM
REM
REM ./C.cell (1df0a924f5614ab8850e4351716899ee)
REM
REM compiler GCC version 9.2.1 20190827 (Red Hat 9.2.1-1)
REM options -cpp -mtune=generic -march=x86-64 -g -O0 -fpre-include=/usr/include/finclude/math-vector-fortran.h
REM seed 384614830 -149497731 751272412 -560860774 -1951723897 1137050677 -1757726610 1895711645 1439362224 513343903 2072123699 -2099604989 -664038857 -460219364 -1733140489 -1253025523 -79880299 673015632 -1109023434 -1060475232 -694187187 -1660465351 2002529586 -725169480 -1356331523 -1160589318 648136220 1955142995 -1374678616 -602094964 -506741236 747423380 -989940100
REM
CELL 1.54180   50.00000   50.00000   50.00000   90.00000   90.00000   90.00000
LATT -1
SFAC C  
C      1  0.4779300000000  0.4759140000000  0.5489150000000 1.0
C      1  0.5468890000000  0.4869220000000  0.4785800000000 1.0
C      1  0.4792590000000  0.5463260000000  0.4761520000000 1.0
C      1  0.5227040000000  0.4799820000000  0.4639040000000 1.0
C      1  0.4753290000000  0.5216660000000  0.4601110000000 1.0
C      1  0.5163360000000  0.5250810000000  0.5504240000000 1.0
C      1  0.4489180000000  0.4818040000000  0.5285130000000 1.0
C      1  0.5482000000000  0.5238510000000  0.5207780000000 1.0
C      1  0.4505770000000  0.5127370000000  0.4744150000000 1.0
C      1  0.5224520000000  0.5409770000000  0.5230740000000 1.0
C      1  0.4792510000000  0.4443950000000  0.5139760000000 1.0
C      1  0.5215930000000  0.4508360000000  0.4793000000000 1.0
C      1  0.4763200000000  0.5203140000000  0.5470770000000 1.0
C      1  0.5507990000000  0.5273600000000  0.4733070000000 1.0
C      1  0.4760720000000  0.4590330000000  0.4727470000000 1.0
C      1  0.5148050000000  0.5225480000000  0.4446580000000 1.0
C      1  0.4845280000000  0.4745210000000  0.4487460000000 1.0
C      1  0.5201330000000  0.4790450000000  0.5424500000000 1.0
C      1  0.4588600000000  0.5216210000000  0.5228460000000 1.0
C      1  0.5486340000000  0.4842660000000  0.5253930000000 1.0
C      1  0.4567740000000  0.4744960000000  0.4872200000000 1.0
C      1  0.5238710000000  0.4508850000000  0.5234490000000 1.0
C      1  0.4766120000000  0.5499620000000  0.5161710000000 1.0
C      1  0.5275260000000  0.5500600000000  0.4818760000000 1.0
C      1  0.5991010000000  0.5119050000000  0.5136260000000 1.0
C      1  0.5152780000000  0.5952780000000  0.5150550000000 1.0
C      1  0.5160990000000  0.5139970000000  0.5973750000000 1.0
C      1  0.4022650000000  0.5158090000000  0.4863800000000 1.0
C      1  0.5961650000000  0.4811940000000  0.4866560000000 1.0
C      1  0.4003760000000  0.4850180000000  0.5142370000000 1.0
C      1  0.4851640000000  0.5987030000000  0.4868760000000 1.0
C      1  0.5126950000000  0.4006030000000  0.4852540000000 1.0
C      1  0.4857240000000  0.4006830000000  0.5161360000000 1.0
C      1  0.4868400000000  0.5156660000000  0.4056320000000 1.0
C      1  0.5135870000000  0.4836370000000  0.4037470000000 1.0
C      1  0.4869090000000  0.4845540000000  0.5988840000000 1.0
C      1  0.5960500000000  0.4829210000000  0.5151670000000 1.0
C      1  0.5144470000000  0.3994510000000  0.5135960000000 1.0
C      1  0.5165270000000  0.4848060000000  0.5959230000000 1.0
C      1  0.4014620000000  0.4871860000000  0.4853630000000 1.0
C      1  0.5991460000000  0.5105970000000  0.4842950000000 1.0
C      1  0.4042180000000  0.5151300000000  0.5157980000000 1.0
C      1  0.4836780000000  0.4050200000000  0.4862290000000 1.0
C      1  0.5140800000000  0.5984840000000  0.4848370000000 1.0
C      1  0.4860040000000  0.5978610000000  0.5154570000000 1.0
C      1  0.4849210000000  0.4867750000000  0.4020410000000 1.0
C      1  0.5166300000000  0.5126760000000  0.4018290000000 1.0
C      1  0.4871300000000  0.5135460000000  0.5986920000000 1.0
C      1  0.5110160000000  0.5500010000000  0.4356290000000 1.0
C      1  0.4354650000000  0.5135340000000  0.5664980000000 1.0
C      1  0.5523720000000  0.4416360000000  0.5200340000000 1.0
C      1  0.4831390000000  0.5525200000000  0.5581200000000 1.0
C      1  0.5127740000000  0.4361170000000  0.5643890000000 1.0
C      1  0.4879830000000  0.4488580000000  0.4340730000000 1.0
C      1  0.5627010000000  0.5169720000000  0.4489000000000 1.0
C      1  0.4372910000000  0.4852530000000  0.4343810000000 1.0
C      1  0.5655410000000  0.4873690000000  0.5509490000000 1.0
C      1  0.4357890000000  0.4363520000000  0.4861890000000 1.0
C      1  0.5514740000000  0.5679140000000  0.4875960000000 1.0
C      1  0.4510830000000  0.5657600000000  0.5122970000000 1.0
C      1  0.5134840000000  0.4345070000000  0.4360410000000 1.0
C      1  0.4319690000000  0.4875600000000  0.5521850000000 1.0
C      1  0.5656630000000  0.5645000000000  0.5134470000000 1.0
C      1  0.4858220000000  0.4489860000000  0.5622370000000 1.0
C      1  0.5118050000000  0.5492280000000  0.5665830000000 1.0
C      1  0.4853370000000  0.5645770000000  0.4357380000000 1.0
C      1  0.5597940000000  0.4862400000000  0.4402360000000 1.0
C      1  0.4342490000000  0.5104340000000  0.4487100000000 1.0
C      1  0.5592610000000  0.5166630000000  0.5528780000000 1.0
C      1  0.4475150000000  0.5576440000000  0.4836810000000 1.0
C      1  0.5506140000000  0.4420420000000  0.4806130000000 1.0
C      1  0.4514120000000  0.4363950000000  0.5111330000000 1.0
C      1  0.4875880000000  0.5728340000000  0.4648390000000 1.0
C      1  0.4698470000000  0.4853020000000  0.5753340000000 1.0
C      1  0.5667990000000  0.4669790000000  0.4846870000000 1.0
C      1  0.5178170000000  0.5694070000000  0.5283040000000 1.0
C      1  0.4864300000000  0.4245280000000  0.5314290000000 1.0
C      1  0.5105000000000  0.4275090000000  0.4650460000000 1.0
C      1  0.5316000000000  0.4838330000000  0.4309170000000 1.0
C      1  0.4712090000000  0.5172820000000  0.4306060000000 1.0
C      1  0.5324110000000  0.5124130000000  0.5708450000000 1.0
C      1  0.4258460000000  0.4699550000000  0.5161530000000 1.0
C      1  0.5739350000000  0.5351650000000  0.5126830000000 1.0
C      1  0.4304430000000  0.5307360000000  0.4883470000000 1.0
C      1  0.4817310000000  0.4301030000000  0.4706620000000 1.0
C      1  0.4655030000000  0.5129020000000  0.5730650000000 1.0
C      1  0.5763710000000  0.5297990000000  0.4853280000000 1.0
C      1  0.5134070000000  0.4257290000000  0.5358550000000 1.0
C      1  0.4890720000000  0.5705610000000  0.5334630000000 1.0
C      1  0.5163150000000  0.5738880000000  0.4686310000000 1.0
C      1  0.5306380000000  0.5113800000000  0.4256320000000 1.0
C      1  0.4662460000000  0.4882150000000  0.4281710000000 1.0
C      1  0.5296490000000  0.4836180000000  0.5699240000000 1.0
C      1  0.4304640000000  0.5275210000000  0.5176440000000 1.0
C      1  0.5675170000000  0.4658600000000  0.5137920000000 1.0
C      1  0.4280600000000  0.4660210000000  0.4869190000000 1.0
C      1  0.5609950000000  0.4359840000000  0.5472710000000 1.0
C      1  0.5388660000000  0.5615240000000  0.4364200000000 1.0
C      1  0.4318120000000  0.5412260000000  0.5604200000000 1.0
C      1  0.4398990000000  0.4340160000000  0.4574960000000 1.0
C      1  0.5583680000000  0.5673320000000  0.4579120000000 1.0
C      1  0.4388580000000  0.5644490000000  0.5382960000000 1.0
C      1  0.4536730000000  0.5601100000000  0.5627240000000 1.0
C      1  0.5412130000000  0.4407510000000  0.5686810000000 1.0
C      1  0.4593890000000  0.4398360000000  0.4355070000000 1.0
C      1  0.5635180000000  0.5452950000000  0.4384700000000 1.0
C      1  0.4353410000000  0.4565280000000  0.4378530000000 1.0
C      1  0.5641920000000  0.4605890000000  0.5626900000000 1.0
C      1  0.5594310000000  0.5676090000000  0.5416330000000 1.0
C      1  0.5418020000000  0.4382980000000  0.4316870000000 1.0
C      1  0.4340610000000  0.4577160000000  0.5591920000000 1.0
C      1  0.4386800000000  0.5624020000000  0.4549710000000 1.0
C      1  0.5599220000000  0.4341940000000  0.4542800000000 1.0
C      1  0.4403370000000  0.4368180000000  0.5393720000000 1.0
C      1  0.4571360000000  0.4400280000000  0.5632600000000 1.0
C      1  0.5384500000000  0.5610460000000  0.5642900000000 1.0
C      1  0.4568540000000  0.5592350000000  0.4322470000000 1.0
C      1  0.5649750000000  0.4577020000000  0.4372310000000 1.0
C      1  0.4348080000000  0.5386980000000  0.4389620000000 1.0
C      1  0.5628810000000  0.5457580000000  0.5607000000000 1.0
C      1  0.4968180000000  0.4987550000000  0.5389290000000 1.0
C      1  0.5023900000000  0.5022350000000  0.4617470000000 1.0
C      1  0.5037040000000  0.4556860000000  0.5027010000000 1.0
C      1  0.4981060000000  0.5394610000000  0.4979900000000 1.0
C      1  0.4635380000000  0.4987840000000  0.5010240000000 1.0
C      1  0.5407530000000  0.5012780000000  0.5031540000000 1.0
END
