TITL C-2441163-1170-1046 -9.38762325100295e-05 125000 -2423.51414669112 0 0 18 (C3) n - 1
REM
REM in /home/bkarasulu/work/CARBON/AIRSS/Generating-Clusters/ReaxFF-fromJPCA2015/Units_Real/with-SteepDescent/Higher-Symm
REM
REM
REM
REM
REM
REM ./C.cell (1df0a924f5614ab8850e4351716899ee)
REM
REM compiler GCC version 9.2.1 20190827 (Red Hat 9.2.1-1)
REM options -cpp -mtune=generic -march=x86-64 -g -O0 -fpre-include=/usr/include/finclude/math-vector-fortran.h
REM seed -1510955092 1971495904 -491034002 2131698514 -1372765725 -975350769 -800534174 1847779660 574232715 -585481651 1612139740 1141721258 852691721 -1376342079 1248905648 -2111526759 425214131 -2088597103 -1739300684 -1084830758 394053891 1404416883 -551879903 975958337 843098831 1774068137 -1498490998 -607712538 1604542971 1813610857 -635924316 -1333379766 230040170
REM
CELL 1.54180   50.00000   50.00000   50.00000   90.00000   90.00000   90.00000
LATT -1
SFAC C  
C      1  0.5277890000000  0.4528880000000  0.5041190000000 1.0
C      1  0.5290510000000  0.5453510000000  0.5041010000000 1.0
C      1  0.4483180000000  0.5002460000000  0.5041270000000 1.0
C      1  0.5245360000000  0.5346360000000  0.5304360000000 1.0
C      1  0.4598820000000  0.5016930000000  0.5304580000000 1.0
C      1  0.5207500000000  0.4621780000000  0.5304560000000 1.0
C      1  0.4788650000000  0.5018780000000  0.5477560000000 1.0
C      1  0.5110980000000  0.4785200000000  0.5477530000000 1.0
C      1  0.5152110000000  0.5181140000000  0.5477480000000 1.0
C      1  0.5203960000000  0.4746920000000  0.4558780000000 1.0
C      1  0.5139170000000  0.5281170000000  0.4558340000000 1.0
C      1  0.4708980000000  0.4957830000000  0.4558780000000 1.0
C      1  0.4730710000000  0.4977860000000  0.4846970000000 1.0
C      1  0.5175310000000  0.4755550000000  0.4846790000000 1.0
C      1  0.5145540000000  0.5251490000000  0.4846570000000 1.0
C      1  0.5017220000000  0.4995020000000  0.5313860000000 1.0
C      1  0.5017150000000  0.4994950000000  0.4952760000000 1.0
C      1  0.5017440000000  0.4995230000000  0.4504680000000 1.0
END
