TITL C-2441163-1170-824 0.00152416271948341 125000 -10894.1203201298 0 0 75 (C1) n - 1
REM
REM in /home/bkarasulu/work/CARBON/AIRSS/Generating-Clusters/ReaxFF-fromJPCA2015/Units_Real/with-SteepDescent/Higher-Symm
REM
REM
REM
REM
REM
REM ./C.cell (1df0a924f5614ab8850e4351716899ee)
REM
REM compiler GCC version 9.2.1 20190827 (Red Hat 9.2.1-1)
REM options -cpp -mtune=generic -march=x86-64 -g -O0 -fpre-include=/usr/include/finclude/math-vector-fortran.h
REM seed -1965898010 -158295064 -34816873 -865412940 -1830583132 1783694291 90654670 1154436785 2003071613 1110708661 1740303255 -853862200 -1467059958 -310598487 -557064379 1217466141 847468666 509321007 930072222 536068948 1016080773 600248382 473799871 1285498732 -796766756 -2094210617 -1760349828 -1180897483 -1859765870 -1381538958 1274241 -110476880 -1696124052
REM
CELL 1.54180   50.00000   50.00000   50.00000   90.00000   90.00000   90.00000
LATT -1
SFAC C  
C      1  0.5191090000000  0.5549190000000  0.5624470000000 1.0
C      1  0.4975830000000  0.5219030000000  0.5153900000000 1.0
C      1  0.4348080000000  0.4682170000000  0.5254010000000 1.0
C      1  0.5385670000000  0.5121120000000  0.5402460000000 1.0
C      1  0.5560090000000  0.4455920000000  0.5381450000000 1.0
C      1  0.5629250000000  0.4958260000000  0.5401830000000 1.0
C      1  0.5499000000000  0.4756920000000  0.4490630000000 1.0
C      1  0.5549600000000  0.4708860000000  0.5545820000000 1.0
C      1  0.4561830000000  0.5084140000000  0.5377640000000 1.0
C      1  0.5056290000000  0.5359400000000  0.5778810000000 1.0
C      1  0.4855220000000  0.4666050000000  0.5017750000000 1.0
C      1  0.4726930000000  0.4914920000000  0.4893220000000 1.0
C      1  0.4248050000000  0.5132660000000  0.4996830000000 1.0
C      1  0.5601800000000  0.5436040000000  0.4816350000000 1.0
C      1  0.4742810000000  0.4540770000000  0.4513100000000 1.0
C      1  0.4361360000000  0.4860290000000  0.5480000000000 1.0
C      1  0.5603250000000  0.5439270000000  0.5277260000000 1.0
C      1  0.4863400000000  0.4516010000000  0.5346530000000 1.0
C      1  0.5130690000000  0.4672370000000  0.4930070000000 1.0
C      1  0.4582240000000  0.5309490000000  0.5559070000000 1.0
C      1  0.5029530000000  0.5758040000000  0.5465650000000 1.0
C      1  0.5165970000000  0.4930740000000  0.4195450000000 1.0
C      1  0.5245490000000  0.4405980000000  0.4873790000000 1.0
C      1  0.5183150000000  0.5582330000000  0.4554420000000 1.0
C      1  0.5570140000000  0.4412270000000  0.4869580000000 1.0
C      1  0.4587340000000  0.5194180000000  0.4292550000000 1.0
C      1  0.5007000000000  0.5802540000000  0.5174700000000 1.0
C      1  0.4543390000000  0.5129150000000  0.5080920000000 1.0
C      1  0.4614330000000  0.4789670000000  0.4612180000000 1.0
C      1  0.4268590000000  0.5108930000000  0.4697770000000 1.0
C      1  0.5435480000000  0.5406630000000  0.5485690000000 1.0
C      1  0.5559930000000  0.5049150000000  0.4455130000000 1.0
C      1  0.4798520000000  0.4843290000000  0.5716900000000 1.0
C      1  0.4571650000000  0.4521160000000  0.5388290000000 1.0
C      1  0.4255570000000  0.4823230000000  0.5007030000000 1.0
C      1  0.5167900000000  0.4380200000000  0.4634980000000 1.0
C      1  0.5275520000000  0.4690960000000  0.5598140000000 1.0
C      1  0.5313500000000  0.5157000000000  0.4323670000000 1.0
C      1  0.5723930000000  0.5302290000000  0.5059610000000 1.0
C      1  0.4998000000000  0.4667630000000  0.5594920000000 1.0
C      1  0.5736620000000  0.5003330000000  0.5135970000000 1.0
C      1  0.4866280000000  0.5071580000000  0.5379210000000 1.0
C      1  0.5157370000000  0.5793700000000  0.4913730000000 1.0
C      1  0.5243430000000  0.4936490000000  0.4895950000000 1.0
C      1  0.4678960000000  0.5367900000000  0.4694050000000 1.0
C      1  0.5115630000000  0.5101490000000  0.4682130000000 1.0
C      1  0.4828610000000  0.5164270000000  0.5661560000000 1.0
C      1  0.5767570000000  0.4759360000000  0.4981870000000 1.0
C      1  0.4991240000000  0.5803000000000  0.4658000000000 1.0
C      1  0.5234140000000  0.5097990000000  0.5141430000000 1.0
C      1  0.4775070000000  0.5734520000000  0.5339170000000 1.0
C      1  0.4696600000000  0.4438190000000  0.4941610000000 1.0
C      1  0.5069600000000  0.4194820000000  0.4993870000000 1.0
C      1  0.5248480000000  0.4688210000000  0.4354460000000 1.0
C      1  0.5162110000000  0.5305990000000  0.4496550000000 1.0
C      1  0.4630410000000  0.5398260000000  0.5111290000000 1.0
C      1  0.4556870000000  0.5508040000000  0.5354570000000 1.0
C      1  0.5350510000000  0.5620320000000  0.4782600000000 1.0
C      1  0.5702920000000  0.4500780000000  0.5109700000000 1.0
C      1  0.4658460000000  0.4934910000000  0.4311920000000 1.0
C      1  0.5050740000000  0.4275070000000  0.5280080000000 1.0
C      1  0.5646850000000  0.4642890000000  0.4715180000000 1.0
C      1  0.4891940000000  0.4994130000000  0.4174930000000 1.0
C      1  0.4240850000000  0.5422460000000  0.5209610000000 1.0
C      1  0.4795580000000  0.4186770000000  0.4897930000000 1.0
C      1  0.5305770000000  0.4352340000000  0.5340870000000 1.0
C      1  0.4326810000000  0.4826160000000  0.4722110000000 1.0
C      1  0.5026760000000  0.4506600000000  0.4429250000000 1.0
C      1  0.4451480000000  0.5283170000000  0.4525240000000 1.0
C      1  0.4567220000000  0.5571920000000  0.4876070000000 1.0
C      1  0.4878260000000  0.5163590000000  0.4839180000000 1.0
C      1  0.5623890000000  0.5220770000000  0.4664630000000 1.0
C      1  0.4554910000000  0.4701650000000  0.5629430000000 1.0
C      1  0.4728200000000  0.5758080000000  0.4740550000000 1.0
C      1  0.4652480000000  0.4333010000000  0.4692720000000 1.0
END
