TITL C-2441161-5029-356 0.009168202123494 125000 -10832.6810095234 0 0 77 (C1) n - 1
REM
REM in /home/bkarasulu/work/CARBON/AIRSS/Generating-Clusters/ReaxFF-fromJPCA2015/Units_Real/with-SteepDescent/Higher-Symm
REM
REM
REM
REM
REM
REM ./C.cell (1df0a924f5614ab8850e4351716899ee)
REM
REM compiler GCC version 9.2.1 20190827 (Red Hat 9.2.1-1)
REM options -cpp -mtune=generic -march=x86-64 -g -O0 -fpre-include=/usr/include/finclude/math-vector-fortran.h
REM seed 1937443909 -101951836 8854665 -486568829 -1452528452 -565867561 -691598366 -1712834466 854006030 -1076379094 828988820 -1555771755 1562054205 302998461 -2128567551 -1011036416 -2083103898 -32643189 -569774936 2126375892 327594878 -99606342 219987912 165768037 1892554700 1834148473 -530417732 -1193461316 -1637113661 -1471887616 -2094766320 -966404826 1622174617
REM
CELL 1.54180   50.00000   50.00000   50.00000   90.00000   90.00000   90.00000
LATT -1
SFAC C  
C      1  0.5469780000000  0.5406300000000  0.4631640000000 1.0
C      1  0.4545190000000  0.4614920000000  0.4536590000000 1.0
C      1  0.4616310000000  0.5354100000000  0.4632950000000 1.0
C      1  0.5434590000000  0.4639080000000  0.4566790000000 1.0
C      1  0.5325900000000  0.4892660000000  0.5726260000000 1.0
C      1  0.4666560000000  0.5142810000000  0.5779760000000 1.0
C      1  0.4723890000000  0.4866460000000  0.5750900000000 1.0
C      1  0.5245330000000  0.5143830000000  0.5755300000000 1.0
C      1  0.4387340000000  0.5120910000000  0.4539080000000 1.0
C      1  0.5461830000000  0.4909440000000  0.4423200000000 1.0
C      1  0.5613610000000  0.5155190000000  0.4506990000000 1.0
C      1  0.4487290000000  0.4873650000000  0.4415550000000 1.0
C      1  0.4845030000000  0.5186340000000  0.4182150000000 1.0
C      1  0.5123480000000  0.4722610000000  0.4143100000000 1.0
C      1  0.5107610000000  0.5235690000000  0.4190200000000 1.0
C      1  0.4857470000000  0.4785680000000  0.4099860000000 1.0
C      1  0.4296990000000  0.4853510000000  0.5372390000000 1.0
C      1  0.5751240000000  0.5166440000000  0.5404320000000 1.0
C      1  0.5742870000000  0.4872860000000  0.5376810000000 1.0
C      1  0.4271370000000  0.5144570000000  0.5405160000000 1.0
C      1  0.4604910000000  0.5388570000000  0.5149790000000 1.0
C      1  0.5443390000000  0.4494780000000  0.5098540000000 1.0
C      1  0.5510070000000  0.5527290000000  0.5138250000000 1.0
C      1  0.4557510000000  0.4500220000000  0.5078610000000 1.0
C      1  0.5219370000000  0.4445240000000  0.4535400000000 1.0
C      1  0.4820850000000  0.5586080000000  0.4464200000000 1.0
C      1  0.4791030000000  0.4456700000000  0.4483040000000 1.0
C      1  0.5224720000000  0.5549050000000  0.4548170000000 1.0
C      1  0.5149470000000  0.4470320000000  0.5617700000000 1.0
C      1  0.4855380000000  0.5533470000000  0.5580280000000 1.0
C      1  0.4911800000000  0.4372900000000  0.5534780000000 1.0
C      1  0.5094430000000  0.5632910000000  0.5509130000000 1.0
C      1  0.5509530000000  0.5453570000000  0.4888270000000 1.0
C      1  0.4448920000000  0.4600160000000  0.4815650000000 1.0
C      1  0.4558250000000  0.5396880000000  0.4896710000000 1.0
C      1  0.5519600000000  0.4632240000000  0.4844280000000 1.0
C      1  0.5375370000000  0.4631190000000  0.5640380000000 1.0
C      1  0.4617980000000  0.5394680000000  0.5629100000000 1.0
C      1  0.4702850000000  0.4635250000000  0.5548030000000 1.0
C      1  0.5300220000000  0.5364260000000  0.5547010000000 1.0
C      1  0.5498120000000  0.4694990000000  0.5347420000000 1.0
C      1  0.4439180000000  0.5380510000000  0.5386350000000 1.0
C      1  0.4492920000000  0.4646150000000  0.5326230000000 1.0
C      1  0.5548230000000  0.5371730000000  0.5372510000000 1.0
C      1  0.4878380000000  0.5599020000000  0.5038770000000 1.0
C      1  0.5205750000000  0.4360880000000  0.5133620000000 1.0
C      1  0.5318130000000  0.5694480000000  0.5154250000000 1.0
C      1  0.4808260000000  0.4365350000000  0.5024800000000 1.0
C      1  0.5064650000000  0.5764050000000  0.5242950000000 1.0
C      1  0.4964560000000  0.4271920000000  0.5245440000000 1.0
C      1  0.5897860000000  0.5028080000000  0.5191280000000 1.0
C      1  0.4151220000000  0.5017830000000  0.5199260000000 1.0
C      1  0.5276810000000  0.4862940000000  0.5199130000000 1.0
C      1  0.4708290000000  0.5131620000000  0.5209430000000 1.0
C      1  0.4991450000000  0.4752880000000  0.4707750000000 1.0
C      1  0.4893800000000  0.5251420000000  0.4673710000000 1.0
C      1  0.5804790000000  0.5037880000000  0.4904020000000 1.0
C      1  0.4250050000000  0.5030630000000  0.4924070000000 1.0
C      1  0.5014300000000  0.4754380000000  0.5126210000000 1.0
C      1  0.5040610000000  0.5378900000000  0.5115370000000 1.0
C      1  0.5057030000000  0.5512970000000  0.4310240000000 1.0
C      1  0.5035570000000  0.4480710000000  0.4313740000000 1.0
C      1  0.4499580000000  0.4872710000000  0.4883710000000 1.0
C      1  0.5527120000000  0.4924180000000  0.4876010000000 1.0
C      1  0.5262250000000  0.4969840000000  0.4235610000000 1.0
C      1  0.4654660000000  0.4968760000000  0.4178550000000 1.0
C      1  0.4967850000000  0.5528460000000  0.4696660000000 1.0
C      1  0.4959730000000  0.4464560000000  0.4737290000000 1.0
C      1  0.4149220000000  0.5135310000000  0.4686910000000 1.0
C      1  0.5857160000000  0.5128780000000  0.4647200000000 1.0
C      1  0.5141450000000  0.5229520000000  0.5326480000000 1.0
C      1  0.4940020000000  0.4755000000000  0.5404750000000 1.0
C      1  0.5282380000000  0.5038950000000  0.4978300000000 1.0
C      1  0.4760360000000  0.4939840000000  0.5001350000000 1.0
C      1  0.4929820000000  0.5062200000000  0.5729360000000 1.0
C      1  0.4919890000000  0.5055090000000  0.5409340000000 1.0
C      1  0.5009420000000  0.5026820000000  0.4801160000000 1.0
END
