TITL C-2441163-1170-842 0.0796764467100272 125000 -27564.660927852 0 0 193 (C1) n - 1
REM
REM in /home/bkarasulu/work/CARBON/AIRSS/Generating-Clusters/ReaxFF-fromJPCA2015/Units_Real/with-SteepDescent/Higher-Symm
REM
REM
REM
REM
REM
REM ./C.cell (1df0a924f5614ab8850e4351716899ee)
REM
REM compiler GCC version 9.2.1 20190827 (Red Hat 9.2.1-1)
REM options -cpp -mtune=generic -march=x86-64 -g -O0 -fpre-include=/usr/include/finclude/math-vector-fortran.h
REM seed 1332445993 -186566074 -316478609 222428774 -1693697446 872106327 1287702437 -219265350 750540572 1077908090 2018177601 2136067956 -1596462377 825454725 -561604688 120560873 92675591 -1947526751 -1255402618 -1917412693 -67105189 -1411012064 -2055873910 232880355 821668435 1113865553 1743509641 -482558094 1950627330 -1953714195 7776180 583308186 2134945597
REM
CELL 1.54180   50.00000   50.00000   50.00000   90.00000   90.00000   90.00000
LATT -1
SFAC C  
C      1  0.6046960000000  0.4533820000000  0.5080650000000 1.0
C      1  0.5636230000000  0.4074630000000  0.5084210000000 1.0
C      1  0.5022090000000  0.3857900000000  0.5081150000000 1.0
C      1  0.4426320000000  0.4062160000000  0.5083170000000 1.0
C      1  0.3983330000000  0.4514360000000  0.5068260000000 1.0
C      1  0.3895550000000  0.5168880000000  0.5094840000000 1.0
C      1  0.4169890000000  0.5726100000000  0.5122920000000 1.0
C      1  0.4543530000000  0.6091600000000  0.5064290000000 1.0
C      1  0.5348750000000  0.6076030000000  0.5119790000000 1.0
C      1  0.5857520000000  0.5873190000000  0.5100840000000 1.0
C      1  0.6152580000000  0.5184730000000  0.5072990000000 1.0
C      1  0.5924310000000  0.5597560000000  0.5218420000000 1.0
C      1  0.6192570000000  0.4998930000000  0.5288670000000 1.0
C      1  0.5992540000000  0.4344980000000  0.5285740000000 1.0
C      1  0.5470860000000  0.3947780000000  0.5276480000000 1.0
C      1  0.4862700000000  0.3835930000000  0.5322660000000 1.0
C      1  0.4263970000000  0.4116120000000  0.5317650000000 1.0
C      1  0.3941420000000  0.4620070000000  0.5336060000000 1.0
C      1  0.3933700000000  0.5320130000000  0.5346830000000 1.0
C      1  0.4355750000000  0.5965620000000  0.5237250000000 1.0
C      1  0.4894860000000  0.6045850000000  0.5358850000000 1.0
C      1  0.5637500000000  0.5997660000000  0.5239370000000 1.0
C      1  0.5215320000000  0.6171310000000  0.4821190000000 1.0
C      1  0.5799120000000  0.5890060000000  0.4808010000000 1.0
C      1  0.6164070000000  0.5302860000000  0.4796370000000 1.0
C      1  0.6162300000000  0.4605990000000  0.4813100000000 1.0
C      1  0.5751650000000  0.4083650000000  0.4803210000000 1.0
C      1  0.5128060000000  0.3814370000000  0.4804820000000 1.0
C      1  0.4450650000000  0.3930010000000  0.4814920000000 1.0
C      1  0.3945460000000  0.4387190000000  0.4805500000000 1.0
C      1  0.3798220000000  0.5067610000000  0.4835330000000 1.0
C      1  0.4026450000000  0.5684760000000  0.4831310000000 1.0
C      1  0.4510160000000  0.6101200000000  0.4773990000000 1.0
C      1  0.5210050000000  0.4554050000000  0.5344300000000 1.0
C      1  0.4947850000000  0.4568270000000  0.5480200000000 1.0
C      1  0.4696950000000  0.4641450000000  0.5349440000000 1.0
C      1  0.4632330000000  0.4913810000000  0.5457380000000 1.0
C      1  0.4537400000000  0.5145200000000  0.5298780000000 1.0
C      1  0.4686820000000  0.5381400000000  0.5313320000000 1.0
C      1  0.4934370000000  0.5408650000000  0.5470020000000 1.0
C      1  0.5171390000000  0.5440610000000  0.5317440000000 1.0
C      1  0.5387990000000  0.5263040000000  0.5329710000000 1.0
C      1  0.5339320000000  0.5014020000000  0.5459500000000 1.0
C      1  0.5399130000000  0.4764730000000  0.5332460000000 1.0
C      1  0.4649830000000  0.4708890000000  0.3829290000000 1.0
C      1  0.4481950000000  0.4925660000000  0.3852110000000 1.0
C      1  0.4592470000000  0.5176280000000  0.3810580000000 1.0
C      1  0.4719110000000  0.5417790000000  0.3857390000000 1.0
C      1  0.4993830000000  0.5423000000000  0.3833270000000 1.0
C      1  0.5255480000000  0.5432330000000  0.3882910000000 1.0
C      1  0.5463470000000  0.5217970000000  0.3888930000000 1.0
C      1  0.5466690000000  0.4947750000000  0.3837360000000 1.0
C      1  0.5364920000000  0.4675900000000  0.3870050000000 1.0
C      1  0.5099600000000  0.4578570000000  0.3820680000000 1.0
C      1  0.4838790000000  0.4509120000000  0.3883270000000 1.0
C      1  0.4297620000000  0.4846130000000  0.5119360000000 1.0
C      1  0.4399830000000  0.5107550000000  0.5041650000000 1.0
C      1  0.4658430000000  0.5550080000000  0.5089910000000 1.0
C      1  0.4876740000000  0.5685310000000  0.4999210000000 1.0
C      1  0.5150140000000  0.5597550000000  0.5051970000000 1.0
C      1  0.5584520000000  0.5259220000000  0.5133290000000 1.0
C      1  0.5659550000000  0.5005650000000  0.5011870000000 1.0
C      1  0.5585170000000  0.4753940000000  0.5128710000000 1.0
C      1  0.5209670000000  0.4368430000000  0.5133760000000 1.0
C      1  0.4978100000000  0.4347270000000  0.5006470000000 1.0
C      1  0.4549620000000  0.4609800000000  0.5087170000000 1.0
C      1  0.4736860000000  0.6114910000000  0.4588720000000 1.0
C      1  0.5362530000000  0.6070110000000  0.4597020000000 1.0
C      1  0.5883320000000  0.5704250000000  0.4600800000000 1.0
C      1  0.6137690000000  0.5112380000000  0.4579780000000 1.0
C      1  0.6004950000000  0.4479190000000  0.4605980000000 1.0
C      1  0.5564980000000  0.4005530000000  0.4595350000000 1.0
C      1  0.4949210000000  0.3869750000000  0.4581490000000 1.0
C      1  0.4332590000000  0.4079640000000  0.4594740000000 1.0
C      1  0.3916100000000  0.4585450000000  0.4587680000000 1.0
C      1  0.3881410000000  0.5220600000000  0.4602330000000 1.0
C      1  0.4164910000000  0.5779630000000  0.4594480000000 1.0
C      1  0.5538170000000  0.5015980000000  0.5921350000000 1.0
C      1  0.5459370000000  0.4719860000000  0.5923930000000 1.0
C      1  0.5212620000000  0.4537000000000  0.5910330000000 1.0
C      1  0.4953000000000  0.4613980000000  0.5774270000000 1.0
C      1  0.4675540000000  0.4590220000000  0.5868710000000 1.0
C      1  0.4497060000000  0.4822480000000  0.5780370000000 1.0
C      1  0.4451140000000  0.5131710000000  0.5895450000000 1.0
C      1  0.4614360000000  0.5376620000000  0.5893970000000 1.0
C      1  0.4904160000000  0.5455460000000  0.5769860000000 1.0
C      1  0.5184640000000  0.5496600000000  0.5905760000000 1.0
C      1  0.5424540000000  0.5320670000000  0.5918880000000 1.0
C      1  0.4731680000000  0.5303390000000  0.4715010000000 1.0
C      1  0.4929590000000  0.5485700000000  0.4645870000000 1.0
C      1  0.5194010000000  0.5443640000000  0.4772340000000 1.0
C      1  0.5358870000000  0.5231110000000  0.4729070000000 1.0
C      1  0.5510120000000  0.4996850000000  0.4714940000000 1.0
C      1  0.5363650000000  0.4764410000000  0.4670100000000 1.0
C      1  0.5170710000000  0.4575690000000  0.4610220000000 1.0
C      1  0.4946480000000  0.4517800000000  0.4793730000000 1.0
C      1  0.4715090000000  0.4660800000000  0.4836370000000 1.0
C      1  0.4677330000000  0.4860680000000  0.4623290000000 1.0
C      1  0.4565660000000  0.5110240000000  0.4759710000000 1.0
C      1  0.4411770000000  0.5529020000000  0.5784810000000 1.0
C      1  0.4893170000000  0.5769880000000  0.5766390000000 1.0
C      1  0.5178650000000  0.5772280000000  0.5804140000000 1.0
C      1  0.5590240000000  0.5472610000000  0.5772420000000 1.0
C      1  0.5745700000000  0.5059260000000  0.5756300000000 1.0
C      1  0.5656320000000  0.4626050000000  0.5755660000000 1.0
C      1  0.5332230000000  0.4330700000000  0.5770390000000 1.0
C      1  0.4818900000000  0.4124850000000  0.5820660000000 1.0
C      1  0.4604410000000  0.4312620000000  0.5820200000000 1.0
C      1  0.4216890000000  0.4721020000000  0.5749980000000 1.0
C      1  0.4229070000000  0.5160960000000  0.5731390000000 1.0
C      1  0.5748090000000  0.5637630000000  0.5616600000000 1.0
C      1  0.5929200000000  0.5154790000000  0.5571560000000 1.0
C      1  0.5860490000000  0.4606760000000  0.5578210000000 1.0
C      1  0.5505690000000  0.4202290000000  0.5600590000000 1.0
C      1  0.4972940000000  0.3999710000000  0.5569720000000 1.0
C      1  0.4464700000000  0.4153140000000  0.5557220000000 1.0
C      1  0.4084290000000  0.4517450000000  0.5580200000000 1.0
C      1  0.4046120000000  0.5101760000000  0.5525290000000 1.0
C      1  0.4270720000000  0.5664940000000  0.5579150000000 1.0
C      1  0.4739370000000  0.5925340000000  0.5570690000000 1.0
C      1  0.5316950000000  0.5912730000000  0.5577620000000 1.0
C      1  0.4135230000000  0.4720410000000  0.4933780000000 1.0
C      1  0.4147890000000  0.5257540000000  0.5002280000000 1.0
C      1  0.4416410000000  0.5623690000000  0.4968740000000 1.0
C      1  0.4829610000000  0.5977780000000  0.5060520000000 1.0
C      1  0.5344930000000  0.5811970000000  0.5001640000000 1.0
C      1  0.5745550000000  0.5471310000000  0.5024710000000 1.0
C      1  0.5950040000000  0.4995850000000  0.4973160000000 1.0
C      1  0.5750020000000  0.4534650000000  0.5021820000000 1.0
C      1  0.5403820000000  0.4226530000000  0.4985360000000 1.0
C      1  0.4878870000000  0.4093130000000  0.4983240000000 1.0
C      1  0.4414340000000  0.4337860000000  0.5000730000000 1.0
C      1  0.4036210000000  0.5399160000000  0.4776580000000 1.0
C      1  0.4412240000000  0.5817600000000  0.4747040000000 1.0
C      1  0.4933150000000  0.6145950000000  0.4801760000000 1.0
C      1  0.5504830000000  0.5874920000000  0.4770420000000 1.0
C      1  0.5934760000000  0.5483270000000  0.4786340000000 1.0
C      1  0.6103710000000  0.4882220000000  0.4755200000000 1.0
C      1  0.5788850000000  0.4373910000000  0.4774180000000 1.0
C      1  0.5337360000000  0.4022280000000  0.4773330000000 1.0
C      1  0.4738690000000  0.3959790000000  0.4762760000000 1.0
C      1  0.4225680000000  0.4285390000000  0.4775660000000 1.0
C      1  0.3916840000000  0.4811570000000  0.4769070000000 1.0
C      1  0.4608170000000  0.4705260000000  0.4328590000000 1.0
C      1  0.4452990000000  0.4945230000000  0.4186120000000 1.0
C      1  0.4510550000000  0.5223420000000  0.4262060000000 1.0
C      1  0.4689930000000  0.5445880000000  0.4188300000000 1.0
C      1  0.4976320000000  0.5502190000000  0.4329990000000 1.0
C      1  0.5267770000000  0.5460620000000  0.4198910000000 1.0
C      1  0.5483490000000  0.5221710000000  0.4214080000000 1.0
C      1  0.5513340000000  0.4937030000000  0.4242740000000 1.0
C      1  0.5338630000000  0.4723930000000  0.4159170000000 1.0
C      1  0.5153900000000  0.4545360000000  0.4313290000000 1.0
C      1  0.4831230000000  0.4517350000000  0.4214470000000 1.0
C      1  0.5917960000000  0.5131950000000  0.4383520000000 1.0
C      1  0.5872270000000  0.4609070000000  0.4358700000000 1.0
C      1  0.5509870000000  0.4190710000000  0.4360630000000 1.0
C      1  0.4997570000000  0.4080960000000  0.4377060000000 1.0
C      1  0.4482500000000  0.4233400000000  0.4391820000000 1.0
C      1  0.4127150000000  0.4630390000000  0.4386160000000 1.0
C      1  0.4066860000000  0.5141250000000  0.4391620000000 1.0
C      1  0.4292870000000  0.5623390000000  0.4381140000000 1.0
C      1  0.4735710000000  0.5906620000000  0.4376260000000 1.0
C      1  0.5264910000000  0.5905510000000  0.4370940000000 1.0
C      1  0.5707500000000  0.5614830000000  0.4380130000000 1.0
C      1  0.5587150000000  0.5873430000000  0.5487510000000 1.0
C      1  0.5923450000000  0.5460670000000  0.5471650000000 1.0
C      1  0.6029270000000  0.4891160000000  0.5491850000000 1.0
C      1  0.5806340000000  0.4333250000000  0.5497590000000 1.0
C      1  0.5314100000000  0.4013790000000  0.5500530000000 1.0
C      1  0.4733630000000  0.4074790000000  0.5409600000000 1.0
C      1  0.4281820000000  0.4341910000000  0.5465450000000 1.0
C      1  0.4090770000000  0.4865690000000  0.5345720000000 1.0
C      1  0.4095420000000  0.5561110000000  0.5362680000000 1.0
C      1  0.4452130000000  0.5888280000000  0.5492340000000 1.0
C      1  0.5174380000000  0.6060220000000  0.5373490000000 1.0
C      1  0.4184630000000  0.4898430000000  0.4304240000000 1.0
C      1  0.4272600000000  0.5336270000000  0.4343900000000 1.0
C      1  0.4555910000000  0.5689890000000  0.4301070000000 1.0
C      1  0.4996260000000  0.5799930000000  0.4323740000000 1.0
C      1  0.5435000000000  0.5684930000000  0.4303010000000 1.0
C      1  0.5732330000000  0.5338930000000  0.4319480000000 1.0
C      1  0.5780300000000  0.4890670000000  0.4313490000000 1.0
C      1  0.5686370000000  0.4409750000000  0.4345310000000 1.0
C      1  0.5224800000000  0.4248290000000  0.4322090000000 1.0
C      1  0.4765050000000  0.4249710000000  0.4319100000000 1.0
C      1  0.4390220000000  0.4506190000000  0.4359980000000 1.0
C      1  0.4999320000000  0.4983580000000  0.5117920000000 1.0
C      1  0.5100710000000  0.5034720000000  0.5645820000000 1.0
C      1  0.5012430000000  0.4998380000000  0.5902930000000 1.0
C      1  0.4990510000000  0.4958320000000  0.4585760000000 1.0
C      1  0.5055380000000  0.4977040000000  0.4864960000000 1.0
C      1  0.4931560000000  0.4988160000000  0.5379470000000 1.0
END
