TITL C-2441155-8282-119 0.0219884411673159 125000 -9158.5652258665 0 0 69 (C1) n - 1
REM
REM in /home/bkarasulu/work/CARBON/AIRSS/Generating-Clusters/ReaxFF-fromJPCA2015/Units_Real/with-SteepDescent/Higher-Symm
REM
REM
REM
REM
REM
REM ./C.cell (1df0a924f5614ab8850e4351716899ee)
REM
REM compiler GCC version 9.2.1 20190827 (Red Hat 9.2.1-1)
REM options -cpp -mtune=generic -march=x86-64 -g -O0 -fpre-include=/usr/include/finclude/math-vector-fortran.h
REM seed 1279500027 1200530035 -2136208451 863646898 1766760818 1352196093 -1468355603 232694707 -478513001 -1931528080 -538826659 -335988890 298655333 -1977369614 -165006469 1061370417 1580169123 593955106 106083707 -277606821 -2088092401 587086366 877423764 -382359392 -18728153 1658683426 1200814501 -179541988 1339436232 -357804782 1158022742 -1123626339 1077686724
REM
CELL 1.54180   50.00000   50.00000   50.00000   90.00000   90.00000   90.00000
LATT -1
SFAC C  
C      1  0.4953720000000  0.4585000000000  0.4183490000000 1.0
C      1  0.5204270000000  0.4657760000000  0.4328130000000 1.0
C      1  0.5319600000000  0.4931840000000  0.4322680000000 1.0
C      1  0.5196930000000  0.5176660000000  0.4202380000000 1.0
C      1  0.4993970000000  0.5356270000000  0.4321440000000 1.0
C      1  0.4710600000000  0.5278160000000  0.4324220000000 1.0
C      1  0.4633090000000  0.4991470000000  0.4290660000000 1.0
C      1  0.5185700000000  0.5321150000000  0.5672330000000 1.0
C      1  0.4896290000000  0.5253030000000  0.5784260000000 1.0
C      1  0.4659810000000  0.5079320000000  0.5689740000000 1.0
C      1  0.4681160000000  0.4789760000000  0.5660750000000 1.0
C      1  0.4940660000000  0.4667500000000  0.5691120000000 1.0
C      1  0.5231120000000  0.4791590000000  0.5623650000000 1.0
C      1  0.5348190000000  0.5079720000000  0.5709770000000 1.0
C      1  0.4315770000000  0.4731600000000  0.4765700000000 1.0
C      1  0.4759990000000  0.4301310000000  0.4782370000000 1.0
C      1  0.5394530000000  0.4373450000000  0.4779730000000 1.0
C      1  0.5718940000000  0.4904370000000  0.4813770000000 1.0
C      1  0.5528490000000  0.5516350000000  0.4769750000000 1.0
C      1  0.4914630000000  0.5669070000000  0.4752720000000 1.0
C      1  0.4349160000000  0.5374580000000  0.4813880000000 1.0
C      1  0.4946990000000  0.4452760000000  0.5497450000000 1.0
C      1  0.5399600000000  0.4599930000000  0.5435880000000 1.0
C      1  0.5566700000000  0.5142040000000  0.5527030000000 1.0
C      1  0.5273920000000  0.5509710000000  0.5475130000000 1.0
C      1  0.4766150000000  0.5621070000000  0.5332680000000 1.0
C      1  0.4490290000000  0.5177600000000  0.5473270000000 1.0
C      1  0.4474890000000  0.4668300000000  0.5464320000000 1.0
C      1  0.4575100000000  0.4918620000000  0.5152220000000 1.0
C      1  0.4847200000000  0.4587090000000  0.5244140000000 1.0
C      1  0.5088400000000  0.4504540000000  0.5114740000000 1.0
C      1  0.5532760000000  0.5003050000000  0.5280070000000 1.0
C      1  0.5468110000000  0.5231780000000  0.5140360000000 1.0
C      1  0.4898810000000  0.5378170000000  0.5312820000000 1.0
C      1  0.4655300000000  0.5237260000000  0.5234980000000 1.0
C      1  0.5323610000000  0.5674910000000  0.4809740000000 1.0
C      1  0.4652250000000  0.5628560000000  0.4807960000000 1.0
C      1  0.4300360000000  0.5125600000000  0.4799690000000 1.0
C      1  0.4434930000000  0.4511060000000  0.4754210000000 1.0
C      1  0.5012810000000  0.4269780000000  0.4774160000000 1.0
C      1  0.5595290000000  0.4528820000000  0.4811890000000 1.0
C      1  0.5677900000000  0.5154030000000  0.4773780000000 1.0
C      1  0.4380330000000  0.4921260000000  0.4914930000000 1.0
C      1  0.4643180000000  0.4502680000000  0.4881270000000 1.0
C      1  0.5169600000000  0.4445250000000  0.4835970000000 1.0
C      1  0.5670290000000  0.4702900000000  0.4967110000000 1.0
C      1  0.5472290000000  0.5286840000000  0.4849600000000 1.0
C      1  0.5104290000000  0.5725270000000  0.4960300000000 1.0
C      1  0.4455950000000  0.5563270000000  0.4945460000000 1.0
C      1  0.5125130000000  0.4703820000000  0.4618240000000 1.0
C      1  0.5297300000000  0.4950110000000  0.4608300000000 1.0
C      1  0.5234640000000  0.5209290000000  0.4707980000000 1.0
C      1  0.4999510000000  0.5370360000000  0.4627000000000 1.0
C      1  0.4722950000000  0.5237270000000  0.4612400000000 1.0
C      1  0.4662650000000  0.4953330000000  0.4580050000000 1.0
C      1  0.4833280000000  0.4759570000000  0.4724150000000 1.0
C      1  0.5206170000000  0.4404010000000  0.5360480000000 1.0
C      1  0.5546800000000  0.4732510000000  0.5233080000000 1.0
C      1  0.5520090000000  0.5393580000000  0.5375820000000 1.0
C      1  0.5066960000000  0.5622440000000  0.5273060000000 1.0
C      1  0.4519130000000  0.5502850000000  0.5223730000000 1.0
C      1  0.4382610000000  0.4928410000000  0.5362950000000 1.0
C      1  0.4570940000000  0.4526530000000  0.5227360000000 1.0
C      1  0.4999240000000  0.5069580000000  0.5951740000000 1.0
C      1  0.5033510000000  0.4975810000000  0.5185080000000 1.0
C      1  0.5100080000000  0.4943350000000  0.5408360000000 1.0
C      1  0.5024600000000  0.5053890000000  0.3994300000000 1.0
C      1  0.4828880000000  0.4853130000000  0.4113200000000 1.0
C      1  0.4945110000000  0.4977260000000  0.4921570000000 1.0
END
