TITL C-2441168-9922-858 0.0925552524050702 125000 -27963.3156269454 0 0 196 (C1) n - 1
REM
REM in /home/bkarasulu/work/CARBON/AIRSS/Generating-Clusters/ReaxFF-fromJPCA2015/Units_Real/with-SteepDescent/Higher-Symm
REM
REM
REM
REM
REM
REM ./C.cell (1df0a924f5614ab8850e4351716899ee)
REM
REM compiler GCC version 9.2.1 20190827 (Red Hat 9.2.1-1)
REM options -cpp -mtune=generic -march=x86-64 -g -O0 -fpre-include=/usr/include/finclude/math-vector-fortran.h
REM seed -1162665038 1828700518 781894303 -287634018 994059161 963495578 -1137478223 -218634440 -303457213 -530546619 186711215 1183456505 -1663531672 -895011528 -1028119793 754877350 -7021623 124673366 -2053738410 -541395836 -654724890 1840232965 -1524475129 -1579556805 -2115273777 1987271040 -1948093604 133370515 -2082393065 827361966 1283778273 797911944 880445135
REM
CELL 1.54180   50.00000   50.00000   50.00000   90.00000   90.00000   90.00000
LATT -1
SFAC C  
C      1  0.5518270000000  0.4684970000000  0.4729800000000 1.0
C      1  0.5346680000000  0.4734480000000  0.5426230000000 1.0
C      1  0.4672300000000  0.4695620000000  0.5408830000000 1.0
C      1  0.4471470000000  0.4676380000000  0.4862670000000 1.0
C      1  0.5000790000000  0.4706020000000  0.4391330000000 1.0
C      1  0.5578550000000  0.5904300000000  0.5321860000000 1.0
C      1  0.4907080000000  0.5965590000000  0.5671950000000 1.0
C      1  0.4338400000000  0.5899290000000  0.5100710000000 1.0
C      1  0.4739950000000  0.5872790000000  0.4394010000000 1.0
C      1  0.5473280000000  0.5883450000000  0.4554340000000 1.0
C      1  0.4411360000000  0.5554270000000  0.4677280000000 1.0
C      1  0.5163370000000  0.5486790000000  0.4386540000000 1.0
C      1  0.5658480000000  0.5490650000000  0.4920250000000 1.0
C      1  0.5288110000000  0.5521630000000  0.5607650000000 1.0
C      1  0.4484410000000  0.5493480000000  0.5446760000000 1.0
C      1  0.4590460000000  0.5898700000000  0.5272570000000 1.0
C      1  0.4624800000000  0.5925270000000  0.4707970000000 1.0
C      1  0.5161670000000  0.5934830000000  0.4575940000000 1.0
C      1  0.5474230000000  0.5910820000000  0.5030900000000 1.0
C      1  0.5111780000000  0.5958660000000  0.5450760000000 1.0
C      1  0.5012240000000  0.5082340000000  0.5224190000000 1.0
C      1  0.4803610000000  0.5117600000000  0.5075690000000 1.0
C      1  0.4821890000000  0.4973810000000  0.4840830000000 1.0
C      1  0.5107340000000  0.4948680000000  0.4790130000000 1.0
C      1  0.5213180000000  0.4958550000000  0.5056080000000 1.0
C      1  0.4575540000000  0.5526170000000  0.4074730000000 1.0
C      1  0.5751800000000  0.5563820000000  0.4288150000000 1.0
C      1  0.5911220000000  0.5555060000000  0.5499150000000 1.0
C      1  0.4801400000000  0.5564920000000  0.5985360000000 1.0
C      1  0.3965140000000  0.5557990000000  0.5137210000000 1.0
C      1  0.4096780000000  0.5350130000000  0.5506330000000 1.0
C      1  0.4243120000000  0.5355740000000  0.4313110000000 1.0
C      1  0.5432460000000  0.5370980000000  0.4063660000000 1.0
C      1  0.6004850000000  0.5365280000000  0.5125590000000 1.0
C      1  0.5209820000000  0.5387440000000  0.6010970000000 1.0
C      1  0.4758220000000  0.5131560000000  0.4396200000000 1.0
C      1  0.5501710000000  0.5154700000000  0.4585030000000 1.0
C      1  0.5523250000000  0.5175530000000  0.5336020000000 1.0
C      1  0.4819490000000  0.5133570000000  0.5634150000000 1.0
C      1  0.4353140000000  0.5184330000000  0.5028030000000 1.0
C      1  0.4740390000000  0.4096260000000  0.4377540000000 1.0
C      1  0.5469000000000  0.4132950000000  0.4618860000000 1.0
C      1  0.5488960000000  0.4003270000000  0.5371330000000 1.0
C      1  0.4768180000000  0.3955390000000  0.5608330000000 1.0
C      1  0.4350850000000  0.4054960000000  0.5037780000000 1.0
C      1  0.4203410000000  0.5182550000000  0.5706570000000 1.0
C      1  0.4094720000000  0.5177530000000  0.4481490000000 1.0
C      1  0.5260150000000  0.5188510000000  0.3942490000000 1.0
C      1  0.6046590000000  0.5202850000000  0.4903700000000 1.0
C      1  0.5430860000000  0.5217370000000  0.5991280000000 1.0
C      1  0.4303510000000  0.4306790000000  0.4872500000000 1.0
C      1  0.4700960000000  0.4334970000000  0.4210780000000 1.0
C      1  0.5612700000000  0.4382250000000  0.4667640000000 1.0
C      1  0.5571160000000  0.4266430000000  0.5423720000000 1.0
C      1  0.4748190000000  0.4181580000000  0.5785230000000 1.0
C      1  0.5624160000000  0.5164680000000  0.4865430000000 1.0
C      1  0.5312790000000  0.5229820000000  0.5545110000000 1.0
C      1  0.4569880000000  0.5185430000000  0.5451040000000 1.0
C      1  0.4442570000000  0.5280110000000  0.4761300000000 1.0
C      1  0.5069380000000  0.5206820000000  0.4413700000000 1.0
C      1  0.5199120000000  0.4894100000000  0.5618520000000 1.0
C      1  0.4447960000000  0.4897660000000  0.5361640000000 1.0
C      1  0.4485800000000  0.4786420000000  0.4582900000000 1.0
C      1  0.5214280000000  0.4912150000000  0.4345320000000 1.0
C      1  0.5651370000000  0.4882540000000  0.4990880000000 1.0
C      1  0.4272170000000  0.4706960000000  0.5797750000000 1.0
C      1  0.4007970000000  0.4795050000000  0.4638980000000 1.0
C      1  0.5182550000000  0.4753330000000  0.3893870000000 1.0
C      1  0.6053030000000  0.4750120000000  0.4765770000000 1.0
C      1  0.5541660000000  0.4768640000000  0.5884830000000 1.0
C      1  0.4475530000000  0.5030800000000  0.3972730000000 1.0
C      1  0.5810260000000  0.5050930000000  0.4229480000000 1.0
C      1  0.5937790000000  0.5026230000000  0.5525950000000 1.0
C      1  0.4842570000000  0.5083330000000  0.6085620000000 1.0
C      1  0.3889920000000  0.5029880000000  0.5144710000000 1.0
C      1  0.4623060000000  0.3976630000000  0.5355620000000 1.0
C      1  0.4559730000000  0.3955090000000  0.4851210000000 1.0
C      1  0.4984830000000  0.4039390000000  0.4521420000000 1.0
C      1  0.5424720000000  0.4012160000000  0.4882690000000 1.0
C      1  0.5204450000000  0.4004100000000  0.5388310000000 1.0
C      1  0.3761350000000  0.5139380000000  0.4885980000000 1.0
C      1  0.4639230000000  0.5136750000000  0.3765970000000 1.0
C      1  0.6077380000000  0.5122020000000  0.4386810000000 1.0
C      1  0.5931160000000  0.5161450000000  0.5847340000000 1.0
C      1  0.4559400000000  0.5053830000000  0.6029660000000 1.0
C      1  0.4670960000000  0.4589710000000  0.5992800000000 1.0
C      1  0.3939740000000  0.4551750000000  0.5041580000000 1.0
C      1  0.4748410000000  0.4689880000000  0.3926960000000 1.0
C      1  0.5879200000000  0.4547240000000  0.4372700000000 1.0
C      1  0.5845050000000  0.4572420000000  0.5601420000000 1.0
C      1  0.4788960000000  0.5736560000000  0.5149000000000 1.0
C      1  0.4796750000000  0.5755810000000  0.4868540000000 1.0
C      1  0.5056670000000  0.5749590000000  0.4779900000000 1.0
C      1  0.5222830000000  0.5694910000000  0.5009470000000 1.0
C      1  0.5054490000000  0.5756910000000  0.5243210000000 1.0
C      1  0.4025680000000  0.4381690000000  0.4820490000000 1.0
C      1  0.4878580000000  0.4441250000000  0.4008440000000 1.0
C      1  0.5895680000000  0.4362930000000  0.4613690000000 1.0
C      1  0.5635780000000  0.4391780000000  0.5660810000000 1.0
C      1  0.4558440000000  0.4368140000000  0.5860290000000 1.0
C      1  0.4038870000000  0.4823840000000  0.4948950000000 1.0
C      1  0.4942760000000  0.4905610000000  0.3899160000000 1.0
C      1  0.5966400000000  0.4791900000000  0.4497830000000 1.0
C      1  0.5773280000000  0.4820380000000  0.5720750000000 1.0
C      1  0.4470920000000  0.4789390000000  0.5982590000000 1.0
C      1  0.4271020000000  0.4423500000000  0.4413190000000 1.0
C      1  0.5371930000000  0.4452490000000  0.4190050000000 1.0
C      1  0.5936740000000  0.4436180000000  0.5129400000000 1.0
C      1  0.5163980000000  0.4447230000000  0.5879440000000 1.0
C      1  0.4299080000000  0.4364390000000  0.5436320000000 1.0
C      1  0.4643820000000  0.5938510000000  0.5555750000000 1.0
C      1  0.4408400000000  0.6062150000000  0.4808100000000 1.0
C      1  0.4990990000000  0.6058900000000  0.4375870000000 1.0
C      1  0.5598830000000  0.6039460000000  0.4820880000000 1.0
C      1  0.5373770000000  0.6060200000000  0.5513370000000 1.0
C      1  0.4406520000000  0.5263680000000  0.5897550000000 1.0
C      1  0.3929100000000  0.5301300000000  0.4712450000000 1.0
C      1  0.4969850000000  0.5211070000000  0.3921640000000 1.0
C      1  0.6024210000000  0.5307930000000  0.4634280000000 1.0
C      1  0.5687020000000  0.5315880000000  0.5877050000000 1.0
C      1  0.4862830000000  0.4664620000000  0.5198130000000 1.0
C      1  0.4747250000000  0.4680470000000  0.4935720000000 1.0
C      1  0.5219390000000  0.4647920000000  0.4761700000000 1.0
C      1  0.5255280000000  0.4657820000000  0.5043120000000 1.0
C      1  0.5126480000000  0.4535310000000  0.5274550000000 1.0
C      1  0.4595840000000  0.5243150000000  0.5167180000000 1.0
C      1  0.4675340000000  0.5162250000000  0.4669980000000 1.0
C      1  0.5196880000000  0.5216860000000  0.4686420000000 1.0
C      1  0.5394330000000  0.5209030000000  0.5059500000000 1.0
C      1  0.5031120000000  0.5240690000000  0.5460120000000 1.0
C      1  0.5977970000000  0.4931230000000  0.5011640000000 1.0
C      1  0.5326890000000  0.4951060000000  0.5964380000000 1.0
C      1  0.4197500000000  0.4899210000000  0.5581220000000 1.0
C      1  0.4226670000000  0.4913420000000  0.4494350000000 1.0
C      1  0.5358460000000  0.4928080000000  0.4028190000000 1.0
C      1  0.4765590000000  0.4214640000000  0.5222410000000 1.0
C      1  0.4754060000000  0.4143120000000  0.4935170000000 1.0
C      1  0.4978400000000  0.4135830000000  0.4785100000000 1.0
C      1  0.5182260000000  0.4141040000000  0.4962180000000 1.0
C      1  0.5092220000000  0.4213600000000  0.5224600000000 1.0
C      1  0.4907100000000  0.4849440000000  0.5636300000000 1.0
C      1  0.4342390000000  0.4876380000000  0.5067140000000 1.0
C      1  0.4740830000000  0.4828740000000  0.4437220000000 1.0
C      1  0.5462700000000  0.4878660000000  0.4507000000000 1.0
C      1  0.5540920000000  0.4888890000000  0.5265950000000 1.0
C      1  0.5986260000000  0.4602150000000  0.5353380000000 1.0
C      1  0.4956830000000  0.4661760000000  0.5932270000000 1.0
C      1  0.4044790000000  0.4545960000000  0.5311770000000 1.0
C      1  0.4465010000000  0.4509360000000  0.4216770000000 1.0
C      1  0.5644980000000  0.4577150000000  0.4185060000000 1.0
C      1  0.4317750000000  0.4436800000000  0.5725910000000 1.0
C      1  0.4035790000000  0.4516770000000  0.4562380000000 1.0
C      1  0.5169250000000  0.4479160000000  0.3979310000000 1.0
C      1  0.6025800000000  0.4477690000000  0.4854150000000 1.0
C      1  0.5445520000000  0.4502710000000  0.5848810000000 1.0
C      1  0.4501860000000  0.5257700000000  0.4193860000000 1.0
C      1  0.5627440000000  0.5293180000000  0.4278940000000 1.0
C      1  0.5853080000000  0.5282850000000  0.5375720000000 1.0
C      1  0.4936510000000  0.5316920000000  0.5967540000000 1.0
C      1  0.4067520000000  0.5284730000000  0.5213600000000 1.0
C      1  0.3986700000000  0.4808330000000  0.5371550000000 1.0
C      1  0.4484780000000  0.4731870000000  0.4027200000000 1.0
C      1  0.5652040000000  0.4847190000000  0.4097980000000 1.0
C      1  0.6032640000000  0.4867970000000  0.5302000000000 1.0
C      1  0.5053410000000  0.4892970000000  0.6068200000000 1.0
C      1  0.4584870000000  0.5663830000000  0.5646320000000 1.0
C      1  0.4268400000000  0.5679360000000  0.4885560000000 1.0
C      1  0.4925630000000  0.5614410000000  0.4296410000000 1.0
C      1  0.5592060000000  0.5616130000000  0.4674740000000 1.0
C      1  0.5511870000000  0.5658830000000  0.5507310000000 1.0
C      1  0.4511980000000  0.5759600000000  0.4235490000000 1.0
C      1  0.5556260000000  0.5775800000000  0.4283620000000 1.0
C      1  0.5854900000000  0.5766350000000  0.5311500000000 1.0
C      1  0.4970620000000  0.5783070000000  0.5889970000000 1.0
C      1  0.4111900000000  0.5774280000000  0.5257460000000 1.0
C      1  0.5328610000000  0.5618410000000  0.4177230000000 1.0
C      1  0.5883830000000  0.5620790000000  0.5058810000000 1.0
C      1  0.5218860000000  0.5634380000000  0.5867650000000 1.0
C      1  0.4220560000000  0.5607920000000  0.5468020000000 1.0
C      1  0.4318850000000  0.5621890000000  0.4402730000000 1.0
C      1  0.5183010000000  0.4468330000000  0.4430040000000 1.0
C      1  0.5693580000000  0.4297480000000  0.5174830000000 1.0
C      1  0.5030250000000  0.4214850000000  0.5793530000000 1.0
C      1  0.4571220000000  0.4429860000000  0.5358060000000 1.0
C      1  0.4380500000000  0.4256140000000  0.4606230000000 1.0
C      1  0.4855510000000  0.5466630000000  0.4059250000000 1.0
C      1  0.5858790000000  0.5546300000000  0.4556930000000 1.0
C      1  0.5701710000000  0.5558110000000  0.5690330000000 1.0
C      1  0.4536910000000  0.5525220000000  0.5894430000000 1.0
C      1  0.4018080000000  0.5553200000000  0.4856130000000 1.0
C      1  0.4532280000000  0.4028700000000  0.4566870000000 1.0
C      1  0.5231590000000  0.4168870000000  0.4448860000000 1.0
C      1  0.5613770000000  0.4023810000000  0.5105740000000 1.0
C      1  0.5060990000000  0.3969740000000  0.5632740000000 1.0
C      1  0.4352820000000  0.4074140000000  0.5327100000000 1.0
C      1  0.5217050000000  0.5403500000000  0.4924130000000 1.0
END
