TITL C-2441161-5029-62 0.00260420169598464 125000 -3033.37292633078 0 0 23 (C1) n - 1
REM
REM in /home/bkarasulu/work/CARBON/AIRSS/Generating-Clusters/ReaxFF-fromJPCA2015/Units_Real/with-SteepDescent/Higher-Symm
REM
REM
REM
REM
REM
REM ./C.cell (1df0a924f5614ab8850e4351716899ee)
REM
REM compiler GCC version 9.2.1 20190827 (Red Hat 9.2.1-1)
REM options -cpp -mtune=generic -march=x86-64 -g -O0 -fpre-include=/usr/include/finclude/math-vector-fortran.h
REM seed -323865357 1120808296 -351711949 1641867293 -1305246283 2117000775 -263969921 -898746085 -1131850140 508929743 -186473164 335505426 1906342093 1339947113 -1993047050 188763674 1811607345 -695368242 -142467240 2135482086 300394104 -1310171237 -599644333 -2146451701 535761018 -264330014 1660485080 -1966441574 -177600104 1193828349 -334932742 -1404318782 -1408240994
REM
CELL 1.54180   50.00000   50.00000   50.00000   90.00000   90.00000   90.00000
LATT -1
SFAC C  
C      1  0.5412940000000  0.4772280000000  0.4834420000000 1.0
C      1  0.4944460000000  0.4576080000000  0.4835830000000 1.0
C      1  0.4603660000000  0.4950220000000  0.4824850000000 1.0
C      1  0.4871340000000  0.5402800000000  0.4836900000000 1.0
C      1  0.5365940000000  0.5285720000000  0.4834140000000 1.0
C      1  0.4687010000000  0.4697590000000  0.4706180000000 1.0
C      1  0.4648440000000  0.5222150000000  0.4724890000000 1.0
C      1  0.5134950000000  0.5443640000000  0.4711400000000 1.0
C      1  0.5485470000000  0.5041910000000  0.4716100000000 1.0
C      1  0.5212620000000  0.4579880000000  0.4709770000000 1.0
C      1  0.5133830000000  0.5360100000000  0.5231770000000 1.0
C      1  0.5375930000000  0.5024640000000  0.5251240000000 1.0
C      1  0.5150450000000  0.4680240000000  0.5249920000000 1.0
C      1  0.4703050000000  0.4756440000000  0.5166950000000 1.0
C      1  0.4698960000000  0.5217110000000  0.5205600000000 1.0
C      1  0.4909100000000  0.4565400000000  0.5135910000000 1.0
C      1  0.4577190000000  0.4991880000000  0.5214910000000 1.0
C      1  0.4869700000000  0.5431270000000  0.5144970000000 1.0
C      1  0.5391920000000  0.5296730000000  0.5137630000000 1.0
C      1  0.5405560000000  0.4755850000000  0.5130790000000 1.0
C      1  0.5079140000000  0.4962940000000  0.5241550000000 1.0
C      1  0.5049130000000  0.4982660000000  0.4980720000000 1.0
C      1  0.5022260000000  0.4993930000000  0.4737050000000 1.0
END
