TITL C-2441162-9305-1228 0.0548808049211177 125000 -16502.7107048931 0 0 124 (C1) n - 1
REM
REM in /home/bkarasulu/work/CARBON/AIRSS/Generating-Clusters/ReaxFF-fromJPCA2015/Units_Real/with-SteepDescent/Higher-Symm
REM
REM
REM
REM
REM
REM ./C.cell (1df0a924f5614ab8850e4351716899ee)
REM
REM compiler GCC version 9.2.1 20190827 (Red Hat 9.2.1-1)
REM options -cpp -mtune=generic -march=x86-64 -g -O0 -fpre-include=/usr/include/finclude/math-vector-fortran.h
REM seed 1576405829 -379335648 -2071185635 974516685 2095749453 306282002 -1979366728 -1413870443 -500136270 1452843726 -579628879 -1104074708 -1539283934 2019088659 675202683 -466100580 -1690769384 -308960472 1949608512 -1833897148 637406498 -1090412262 -881178614 744910003 -1641965091 1604089684 925348125 1624016067 354429591 -258141109 105639671 -1193237356 -2097947068
REM
CELL 1.54180   50.00000   50.00000   50.00000   90.00000   90.00000   90.00000
LATT -1
SFAC C  
C      1  0.4799390000000  0.4252440000000  0.5299360000000 1.0
C      1  0.4804200000000  0.5092850000000  0.4164640000000 1.0
C      1  0.4826730000000  0.5689780000000  0.5505320000000 1.0
C      1  0.5156920000000  0.4273170000000  0.5288450000000 1.0
C      1  0.5162230000000  0.5105920000000  0.4155320000000 1.0
C      1  0.5178430000000  0.5694830000000  0.5536720000000 1.0
C      1  0.4068240000000  0.4825190000000  0.4759150000000 1.0
C      1  0.4173010000000  0.5259820000000  0.5188310000000 1.0
C      1  0.4151040000000  0.4641510000000  0.5245950000000 1.0
C      1  0.5912780000000  0.4944280000000  0.4742740000000 1.0
C      1  0.5909320000000  0.5240750000000  0.5095040000000 1.0
C      1  0.5838540000000  0.4716390000000  0.5192220000000 1.0
C      1  0.5367230000000  0.4663240000000  0.4573670000000 1.0
C      1  0.5414420000000  0.5523630000000  0.4949520000000 1.0
C      1  0.5374580000000  0.4787640000000  0.5512040000000 1.0
C      1  0.4706330000000  0.4679280000000  0.4704600000000 1.0
C      1  0.4689680000000  0.5406370000000  0.4867510000000 1.0
C      1  0.4671900000000  0.4907500000000  0.5443660000000 1.0
C      1  0.5631650000000  0.4988030000000  0.4769060000000 1.0
C      1  0.5611100000000  0.5099820000000  0.5033220000000 1.0
C      1  0.5583500000000  0.4852350000000  0.5165360000000 1.0
C      1  0.4370580000000  0.4958580000000  0.4889250000000 1.0
C      1  0.4401100000000  0.5176780000000  0.5043930000000 1.0
C      1  0.4384620000000  0.4738750000000  0.5084190000000 1.0
C      1  0.5544970000000  0.4809080000000  0.4227230000000 1.0
C      1  0.5538590000000  0.5758870000000  0.5284930000000 1.0
C      1  0.5562020000000  0.4403440000000  0.5564860000000 1.0
C      1  0.4435520000000  0.4811470000000  0.4290000000000 1.0
C      1  0.4462980000000  0.5722210000000  0.5184950000000 1.0
C      1  0.4419640000000  0.4424630000000  0.5476560000000 1.0
C      1  0.4653950000000  0.4330110000000  0.4518410000000 1.0
C      1  0.4614910000000  0.5713240000000  0.4622940000000 1.0
C      1  0.4659040000000  0.4988430000000  0.5847470000000 1.0
C      1  0.5355970000000  0.4271490000000  0.4523710000000 1.0
C      1  0.5338670000000  0.5737840000000  0.4600610000000 1.0
C      1  0.5360920000000  0.4982070000000  0.5856760000000 1.0
C      1  0.5238310000000  0.4258500000000  0.4789880000000 1.0
C      1  0.5257700000000  0.5510080000000  0.4438130000000 1.0
C      1  0.5276040000000  0.5235160000000  0.5740630000000 1.0
C      1  0.4721480000000  0.4244150000000  0.4799950000000 1.0
C      1  0.4699710000000  0.5525130000000  0.4408860000000 1.0
C      1  0.4721870000000  0.5263230000000  0.5741060000000 1.0
C      1  0.5176340000000  0.5033530000000  0.4435610000000 1.0
C      1  0.5192440000000  0.5480880000000  0.5336540000000 1.0
C      1  0.5200340000000  0.4537320000000  0.5177940000000 1.0
C      1  0.4765460000000  0.5046890000000  0.4460310000000 1.0
C      1  0.4794230000000  0.5475970000000  0.5301470000000 1.0
C      1  0.4789280000000  0.4559810000000  0.5215560000000 1.0
C      1  0.4029830000000  0.5129760000000  0.4812540000000 1.0
C      1  0.3955670000000  0.5083980000000  0.5084460000000 1.0
C      1  0.3988540000000  0.4792050000000  0.5048370000000 1.0
C      1  0.5967570000000  0.5238130000000  0.4810470000000 1.0
C      1  0.5949140000000  0.5024330000000  0.5282950000000 1.0
C      1  0.5915880000000  0.4692450000000  0.4894250000000 1.0
C      1  0.5318870000000  0.5901000000000  0.5309260000000 1.0
C      1  0.5293710000000  0.4277720000000  0.5564610000000 1.0
C      1  0.5330660000000  0.4855150000000  0.4055980000000 1.0
C      1  0.4660250000000  0.5886740000000  0.5322260000000 1.0
C      1  0.4644990000000  0.4313600000000  0.5581960000000 1.0
C      1  0.4651710000000  0.4814820000000  0.4107860000000 1.0
C      1  0.5352540000000  0.4189680000000  0.5040520000000 1.0
C      1  0.5361290000000  0.5330280000000  0.4232830000000 1.0
C      1  0.5360270000000  0.5510230000000  0.5696770000000 1.0
C      1  0.4619450000000  0.4209740000000  0.5068780000000 1.0
C      1  0.4608160000000  0.5315580000000  0.4218260000000 1.0
C      1  0.4623120000000  0.5532910000000  0.5667730000000 1.0
C      1  0.5291750000000  0.5932920000000  0.5027230000000 1.0
C      1  0.5348200000000  0.4470610000000  0.5767400000000 1.0
C      1  0.5364500000000  0.4577380000000  0.4153220000000 1.0
C      1  0.4654030000000  0.5918300000000  0.5035590000000 1.0
C      1  0.4685300000000  0.4519730000000  0.5781280000000 1.0
C      1  0.4737930000000  0.4552230000000  0.4172210000000 1.0
C      1  0.4858040000000  0.4791450000000  0.4500110000000 1.0
C      1  0.4884960000000  0.5565590000000  0.5041750000000 1.0
C      1  0.4884770000000  0.4697210000000  0.5473180000000 1.0
C      1  0.5120230000000  0.4746210000000  0.4436320000000 1.0
C      1  0.5162690000000  0.5567550000000  0.5080960000000 1.0
C      1  0.5130880000000  0.4753790000000  0.5603420000000 1.0
C      1  0.4209040000000  0.5378770000000  0.4724080000000 1.0
C      1  0.4272470000000  0.5076460000000  0.5531220000000 1.0
C      1  0.4249860000000  0.4574380000000  0.4718200000000 1.0
C      1  0.5798160000000  0.5445030000000  0.4664630000000 1.0
C      1  0.5801630000000  0.5056380000000  0.5531860000000 1.0
C      1  0.5741270000000  0.4481270000000  0.4813300000000 1.0
C      1  0.5190510000000  0.4379320000000  0.4302810000000 1.0
C      1  0.5146400000000  0.5879230000000  0.4786370000000 1.0
C      1  0.5166520000000  0.4738090000000  0.5888770000000 1.0
C      1  0.4869770000000  0.4354880000000  0.4318880000000 1.0
C      1  0.4821750000000  0.5856110000000  0.4798610000000 1.0
C      1  0.4827940000000  0.4750160000000  0.5886240000000 1.0
C      1  0.4437050000000  0.4907210000000  0.5666950000000 1.0
C      1  0.4438590000000  0.4558030000000  0.4500630000000 1.0
C      1  0.4429050000000  0.5577240000000  0.4810720000000 1.0
C      1  0.5572610000000  0.4897080000000  0.5673480000000 1.0
C      1  0.5577910000000  0.4470850000000  0.4566870000000 1.0
C      1  0.5578590000000  0.5640270000000  0.4743050000000 1.0
C      1  0.5704900000000  0.5304860000000  0.5448600000000 1.0
C      1  0.5607280000000  0.4349420000000  0.5052030000000 1.0
C      1  0.5699400000000  0.5272780000000  0.4478970000000 1.0
C      1  0.4265940000000  0.5332360000000  0.5438120000000 1.0
C      1  0.4382590000000  0.4457050000000  0.4952260000000 1.0
C      1  0.4316680000000  0.5279090000000  0.4506260000000 1.0
C      1  0.5331050000000  0.4787260000000  0.5256940000000 1.0
C      1  0.5381240000000  0.4891400000000  0.4721730000000 1.0
C      1  0.5383950000000  0.5259540000000  0.4993220000000 1.0
C      1  0.4601570000000  0.4769840000000  0.5204740000000 1.0
C      1  0.4600780000000  0.4924380000000  0.4764580000000 1.0
C      1  0.4663880000000  0.5202120000000  0.5051170000000 1.0
C      1  0.5690510000000  0.4453540000000  0.5302250000000 1.0
C      1  0.5571370000000  0.5121000000000  0.4288030000000 1.0
C      1  0.5590270000000  0.5557070000000  0.5485060000000 1.0
C      1  0.4280250000000  0.4377740000000  0.5229820000000 1.0
C      1  0.4399260000000  0.5112900000000  0.4303030000000 1.0
C      1  0.4434400000000  0.5569320000000  0.5447440000000 1.0
C      1  0.4829240000000  0.4504670000000  0.4909400000000 1.0
C      1  0.4808340000000  0.5311920000000  0.4586220000000 1.0
C      1  0.4807390000000  0.5219780000000  0.5459960000000 1.0
C      1  0.5109120000000  0.4535120000000  0.4910140000000 1.0
C      1  0.5114380000000  0.5280800000000  0.4599180000000 1.0
C      1  0.5134990000000  0.5209270000000  0.5451060000000 1.0
C      1  0.5126440000000  0.4826320000000  0.4861950000000 1.0
C      1  0.5138620000000  0.5001170000000  0.5259540000000 1.0
C      1  0.5142750000000  0.5222450000000  0.4883930000000 1.0
C      1  0.4958600000000  0.5026060000000  0.5030300000000 1.0
END
