TITL C-2441165-58-351 3.04235923395269e-05 125000 -3905.44239609276 0 0 29 (C1) n - 1
REM
REM in /home/bkarasulu/work/CARBON/AIRSS/Generating-Clusters/ReaxFF-fromJPCA2015/Units_Real/with-SteepDescent/Higher-Symm
REM
REM
REM
REM
REM
REM ./C.cell (1df0a924f5614ab8850e4351716899ee)
REM
REM compiler GCC version 9.2.1 20190827 (Red Hat 9.2.1-1)
REM options -cpp -mtune=generic -march=x86-64 -g -O0 -fpre-include=/usr/include/finclude/math-vector-fortran.h
REM seed 519499025 -977633402 -1026558212 -1570782934 -1055494479 -119327005 -1674613588 1704171718 -1355705825 -400448207 1854617878 -411378833 -1377205986 1223230110 -281881220 1504884015 589237605 -1437785153 2023568944 1570538943 525673490 1330148603 -166067572 368204700 -1208835875 -963631979 533743130 -6699946 -1751507888 369760061 -489080524 -1995280782 -795030271
REM
CELL 1.54180   50.00000   50.00000   50.00000   90.00000   90.00000   90.00000
LATT -1
SFAC C  
C      1  0.4599930000000  0.4696110000000  0.5122410000000 1.0
C      1  0.5376010000000  0.5277790000000  0.5151160000000 1.0
C      1  0.4616650000000  0.5279270000000  0.4853040000000 1.0
C      1  0.5374200000000  0.4704720000000  0.4875380000000 1.0
C      1  0.5321420000000  0.5131360000000  0.5653260000000 1.0
C      1  0.4740670000000  0.4977420000000  0.5559140000000 1.0
C      1  0.5241910000000  0.4982060000000  0.4454330000000 1.0
C      1  0.4665020000000  0.5129490000000  0.4353970000000 1.0
C      1  0.5432990000000  0.4893690000000  0.4640180000000 1.0
C      1  0.4566750000000  0.5073640000000  0.4615200000000 1.0
C      1  0.5416020000000  0.5072870000000  0.5391960000000 1.0
C      1  0.4541170000000  0.4894640000000  0.5366160000000 1.0
C      1  0.5181830000000  0.5231420000000  0.4907010000000 1.0
C      1  0.4817290000000  0.4742200000000  0.4907810000000 1.0
C      1  0.5153480000000  0.4758160000000  0.5101460000000 1.0
C      1  0.4810290000000  0.5233790000000  0.5098860000000 1.0
C      1  0.5014410000000  0.4866960000000  0.5588240000000 1.0
C      1  0.5100240000000  0.5066000000000  0.5762570000000 1.0
C      1  0.4893760000000  0.5069450000000  0.4261630000000 1.0
C      1  0.4977070000000  0.4873440000000  0.4433740000000 1.0
C      1  0.5325360000000  0.5153480000000  0.4673810000000 1.0
C      1  0.4750370000000  0.4841500000000  0.4646360000000 1.0
C      1  0.5234090000000  0.4841670000000  0.5364970000000 1.0
C      1  0.4658080000000  0.5162260000000  0.5331470000000 1.0
C      1  0.4523840000000  0.4496020000000  0.5274990000000 1.0
C      1  0.5487480000000  0.5465480000000  0.5278630000000 1.0
C      1  0.4493400000000  0.5463180000000  0.4730360000000 1.0
C      1  0.5460550000000  0.4498930000000  0.4740600000000 1.0
C      1  0.4998090000000  0.5017950000000  0.5006590000000 1.0
END
