TITL C-2441159-1093-1138 0.00273881552857283 125000 -5087.88247884951 0 0 40 (C1) n - 1
REM
REM in /home/bkarasulu/work/CARBON/AIRSS/Generating-Clusters/ReaxFF-fromJPCA2015/Units_Real/with-SteepDescent/Higher-Symm
REM
REM
REM
REM
REM
REM ./C.cell (1df0a924f5614ab8850e4351716899ee)
REM
REM compiler GCC version 9.2.1 20190827 (Red Hat 9.2.1-1)
REM options -cpp -mtune=generic -march=x86-64 -g -O0 -fpre-include=/usr/include/finclude/math-vector-fortran.h
REM seed 1271166281 -1067960916 1390168725 -1526965753 -852140461 -893822138 274047985 -1654937704 20505916 -1851113913 201943849 -1689819963 1774668967 -901885528 -422524470 -67706937 369243114 -1553656667 1433399313 1719791860 632993921 761897215 1692991560 -930324749 1304000231 780828988 1391491360 1712539394 -1999804642 145995025 2400678 -490398930 1467006208
REM
CELL 1.54180   50.00000   50.00000   50.00000   90.00000   90.00000   90.00000
LATT -1
SFAC C  
C      1  0.5148670000000  0.4413700000000  0.4502570000000 1.0
C      1  0.4498360000000  0.5145140000000  0.4400500000000 1.0
C      1  0.4421560000000  0.4514970000000  0.5123540000000 1.0
C      1  0.4791320000000  0.4385860000000  0.5466020000000 1.0
C      1  0.5203880000000  0.5570120000000  0.5491380000000 1.0
C      1  0.4825060000000  0.5549590000000  0.4419120000000 1.0
C      1  0.5548430000000  0.5196490000000  0.5569990000000 1.0
C      1  0.4484910000000  0.4781430000000  0.5572090000000 1.0
C      1  0.5410790000000  0.4860750000000  0.4466460000000 1.0
C      1  0.5519370000000  0.4551070000000  0.4851180000000 1.0
C      1  0.4520790000000  0.5453540000000  0.4819450000000 1.0
C      1  0.5615670000000  0.5535850000000  0.5173940000000 1.0
C      1  0.4710050000000  0.4599520000000  0.5640150000000 1.0
C      1  0.5552600000000  0.4805330000000  0.4705400000000 1.0
C      1  0.4736800000000  0.5608690000000  0.4693510000000 1.0
C      1  0.5206100000000  0.4677450000000  0.4356870000000 1.0
C      1  0.4716800000000  0.5312800000000  0.4274490000000 1.0
C      1  0.5299020000000  0.5341630000000  0.5643840000000 1.0
C      1  0.4338210000000  0.4745420000000  0.5306440000000 1.0
C      1  0.5705670000000  0.5284350000000  0.5323510000000 1.0
C      1  0.4389190000000  0.5229690000000  0.4674990000000 1.0
C      1  0.5364190000000  0.5682530000000  0.5267090000000 1.0
C      1  0.4647130000000  0.4328720000000  0.5213630000000 1.0
C      1  0.5314320000000  0.4345700000000  0.4748910000000 1.0
C      1  0.5408580000000  0.5599640000000  0.5002000000000 1.0
C      1  0.5045840000000  0.5325500000000  0.5501170000000 1.0
C      1  0.5606450000000  0.5027500000000  0.5352310000000 1.0
C      1  0.4785250000000  0.5453480000000  0.4934970000000 1.0
C      1  0.5313590000000  0.4439980000000  0.5008770000000 1.0
C      1  0.4644890000000  0.4465780000000  0.4967700000000 1.0
C      1  0.5013490000000  0.5333730000000  0.4314220000000 1.0
C      1  0.4952500000000  0.4603340000000  0.4454350000000 1.0
C      1  0.4979820000000  0.4608270000000  0.5519810000000 1.0
C      1  0.4483510000000  0.4971750000000  0.4616810000000 1.0
C      1  0.5391530000000  0.5065620000000  0.4689900000000 1.0
C      1  0.4456090000000  0.4984910000000  0.5379220000000 1.0
C      1  0.5029730000000  0.4849090000000  0.5355330000000 1.0
C      1  0.4967710000000  0.5220080000000  0.4989280000000 1.0
C      1  0.5178700000000  0.5143190000000  0.4840240000000 1.0
C      1  0.4997780000000  0.5127830000000  0.5284550000000 1.0
END
