TITL C-2441163-1170-1236 0.0857501746926954 125000 -10350.8877506786 0 0 87 (C1) n - 1
REM
REM in /home/bkarasulu/work/CARBON/AIRSS/Generating-Clusters/ReaxFF-fromJPCA2015/Units_Real/with-SteepDescent/Higher-Symm
REM
REM
REM
REM
REM
REM ./C.cell (1df0a924f5614ab8850e4351716899ee)
REM
REM compiler GCC version 9.2.1 20190827 (Red Hat 9.2.1-1)
REM options -cpp -mtune=generic -march=x86-64 -g -O0 -fpre-include=/usr/include/finclude/math-vector-fortran.h
REM seed 520285623 -2145517794 784108599 339449405 1930018709 -1578138485 2107698767 1207063787 469786438 -1468264122 2051876862 1865579060 714145146 1623075163 -743862978 -594132558 -1287643418 140975317 -1458409105 -1345929743 986769006 1978226104 -477484459 966399403 -1714840611 -2344543 -24714295 -1739804762 -715014826 1806824826 14359857 462524701 -620324669
REM
CELL 1.54180   50.00000   50.00000   50.00000   90.00000   90.00000   90.00000
LATT -1
SFAC C  
C      1  0.4793250000000  0.5738870000000  0.5042060000000 1.0
C      1  0.5192790000000  0.5747500000000  0.4956560000000 1.0
C      1  0.5594740000000  0.5558920000000  0.5151780000000 1.0
C      1  0.4404420000000  0.5553600000000  0.4865530000000 1.0
C      1  0.4725520000000  0.5467200000000  0.4395910000000 1.0
C      1  0.5261150000000  0.5466870000000  0.5604050000000 1.0
C      1  0.4589530000000  0.4808850000000  0.5690430000000 1.0
C      1  0.5403680000000  0.4801320000000  0.4324880000000 1.0
C      1  0.4768900000000  0.4261030000000  0.5302750000000 1.0
C      1  0.5161970000000  0.4288080000000  0.4724740000000 1.0
C      1  0.5028830000000  0.4326020000000  0.5417120000000 1.0
C      1  0.4931880000000  0.4327870000000  0.4572610000000 1.0
C      1  0.4425480000000  0.5301510000000  0.5504020000000 1.0
C      1  0.5557650000000  0.5323400000000  0.4521480000000 1.0
C      1  0.5566300000000  0.5250930000000  0.5469610000000 1.0
C      1  0.4428540000000  0.5252640000000  0.4537210000000 1.0
C      1  0.4762860000000  0.4886440000000  0.5022870000000 1.0
C      1  0.5208020000000  0.4933260000000  0.4997380000000 1.0
C      1  0.5736170000000  0.4831040000000  0.5006740000000 1.0
C      1  0.4232230000000  0.4832000000000  0.4994540000000 1.0
C      1  0.5034130000000  0.5730830000000  0.5200710000000 1.0
C      1  0.4946330000000  0.5732530000000  0.4795100000000 1.0
C      1  0.4600060000000  0.4631850000000  0.5493590000000 1.0
C      1  0.5413640000000  0.4614290000000  0.4510280000000 1.0
C      1  0.4686910000000  0.5272160000000  0.5637330000000 1.0
C      1  0.5300370000000  0.5279090000000  0.4380870000000 1.0
C      1  0.5667100000000  0.4955920000000  0.4425460000000 1.0
C      1  0.4379260000000  0.4979580000000  0.5533840000000 1.0
C      1  0.5014990000000  0.5199470000000  0.4668920000000 1.0
C      1  0.4986230000000  0.5210790000000  0.5319940000000 1.0
C      1  0.5333740000000  0.4611470000000  0.5640780000000 1.0
C      1  0.4655380000000  0.4618330000000  0.4350720000000 1.0
C      1  0.5437700000000  0.5605370000000  0.4909630000000 1.0
C      1  0.4555790000000  0.5617510000000  0.5098910000000 1.0
C      1  0.4899800000000  0.5228970000000  0.4397700000000 1.0
C      1  0.5081870000000  0.5234230000000  0.5593330000000 1.0
C      1  0.5204410000000  0.5543830000000  0.4457620000000 1.0
C      1  0.4797590000000  0.5520670000000  0.5518950000000 1.0
C      1  0.5459700000000  0.4917670000000  0.4748740000000 1.0
C      1  0.4501970000000  0.4948020000000  0.5298210000000 1.0
C      1  0.5064840000000  0.5635340000000  0.5473180000000 1.0
C      1  0.4932920000000  0.5628760000000  0.4518270000000 1.0
C      1  0.5574460000000  0.4957520000000  0.5450390000000 1.0
C      1  0.4420970000000  0.4960420000000  0.4556300000000 1.0
C      1  0.4207750000000  0.5125110000000  0.4956270000000 1.0
C      1  0.5762780000000  0.5112640000000  0.5100510000000 1.0
C      1  0.5203440000000  0.5234580000000  0.5104050000000 1.0
C      1  0.4819410000000  0.5301090000000  0.4843330000000 1.0
C      1  0.4426950000000  0.4646510000000  0.4840320000000 1.0
C      1  0.5531210000000  0.4662960000000  0.5150990000000 1.0
C      1  0.5139940000000  0.4783610000000  0.5234560000000 1.0
C      1  0.4843130000000  0.4774290000000  0.4777440000000 1.0
C      1  0.4659710000000  0.5128870000000  0.4987070000000 1.0
C      1  0.5495050000000  0.5194820000000  0.5016920000000 1.0
C      1  0.4713640000000  0.4931630000000  0.4577230000000 1.0
C      1  0.5283260000000  0.4939350000000  0.5431870000000 1.0
C      1  0.5725240000000  0.4820170000000  0.4707510000000 1.0
C      1  0.4245740000000  0.4816680000000  0.5280570000000 1.0
C      1  0.4912860000000  0.4500690000000  0.4348950000000 1.0
C      1  0.5071670000000  0.4498700000000  0.5644840000000 1.0
C      1  0.5558780000000  0.4664200000000  0.5444010000000 1.0
C      1  0.4432880000000  0.4663980000000  0.4548250000000 1.0
C      1  0.5516870000000  0.5172320000000  0.4761390000000 1.0
C      1  0.4431530000000  0.5185360000000  0.5145550000000 1.0
C      1  0.5371550000000  0.5433340000000  0.5309390000000 1.0
C      1  0.4622280000000  0.5459880000000  0.4698340000000 1.0
C      1  0.4516280000000  0.4352790000000  0.5214580000000 1.0
C      1  0.5535290000000  0.4385450000000  0.4806840000000 1.0
C      1  0.4251220000000  0.5331680000000  0.4752710000000 1.0
C      1  0.5759790000000  0.5349340000000  0.5277720000000 1.0
C      1  0.5119650000000  0.5092360000000  0.4238750000000 1.0
C      1  0.4880060000000  0.5090820000000  0.5753180000000 1.0
C      1  0.5303120000000  0.4533290000000  0.4738610000000 1.0
C      1  0.4700190000000  0.4541340000000  0.5263540000000 1.0
C      1  0.5203860000000  0.4293070000000  0.5183650000000 1.0
C      1  0.4777870000000  0.4296130000000  0.4819960000000 1.0
C      1  0.5080840000000  0.4803270000000  0.4261860000000 1.0
C      1  0.4927080000000  0.4797110000000  0.5749020000000 1.0
C      1  0.4881220000000  0.4930160000000  0.5274800000000 1.0
C      1  0.5084190000000  0.4923190000000  0.4739130000000 1.0
C      1  0.4780880000000  0.4878440000000  0.4306850000000 1.0
C      1  0.5210660000000  0.4869720000000  0.5691440000000 1.0
C      1  0.4535990000000  0.5550420000000  0.5379700000000 1.0
C      1  0.5446770000000  0.5576470000000  0.4618280000000 1.0
C      1  0.5473720000000  0.4376920000000  0.5086450000000 1.0
C      1  0.4521280000000  0.4385330000000  0.4920990000000 1.0
C      1  0.5032340000000  0.4278620000000  0.4958940000000 1.0
END
