TITL C-2441157-2117-381 0.201031173950482 125000 -24472.6137595706 0 0 191 (C1) n - 1
REM
REM in /home/bkarasulu/work/CARBON/AIRSS/Generating-Clusters/ReaxFF-fromJPCA2015/Units_Real/with-SteepDescent/Higher-Symm
REM
REM
REM
REM
REM
REM ./C.cell (1df0a924f5614ab8850e4351716899ee)
REM
REM compiler GCC version 9.2.1 20190827 (Red Hat 9.2.1-1)
REM options -cpp -mtune=generic -march=x86-64 -g -O0 -fpre-include=/usr/include/finclude/math-vector-fortran.h
REM seed -807422739 -302572435 -1172721936 1298160321 335242089 -432744727 -1500735609 -366443153 1306080276 -633345317 107723080 -605088496 1783971639 -1978300017 735483519 918108518 -120025223 1753945515 -50575720 -1671232800 125217853 -1658210493 -192653245 1030689518 873363533 691246738 211741371 -437138658 -1039884482 -1672878385 -1052396991 1576323330 1902144521
REM
CELL 1.54180   50.00000   50.00000   50.00000   90.00000   90.00000   90.00000
LATT -1
SFAC C  
C      1  0.5631150000000  0.4633920000000  0.5560500000000 1.0
C      1  0.5619220000000  0.5307610000000  0.4359440000000 1.0
C      1  0.4376140000000  0.4612460000000  0.4415010000000 1.0
C      1  0.4367510000000  0.5379910000000  0.5586990000000 1.0
C      1  0.5662750000000  0.5700350000000  0.4646240000000 1.0
C      1  0.5617550000000  0.4454240000000  0.5307880000000 1.0
C      1  0.4384730000000  0.4412880000000  0.4624150000000 1.0
C      1  0.4366080000000  0.5578780000000  0.5375110000000 1.0
C      1  0.4281860000000  0.5688100000000  0.4698900000000 1.0
C      1  0.4255650000000  0.4346260000000  0.5310080000000 1.0
C      1  0.5765970000000  0.5613760000000  0.5293060000000 1.0
C      1  0.5789010000000  0.4336560000000  0.4724410000000 1.0
C      1  0.4238190000000  0.4712160000000  0.5661310000000 1.0
C      1  0.4154470000000  0.5344840000000  0.4316050000000 1.0
C      1  0.5752680000000  0.5289940000000  0.5656480000000 1.0
C      1  0.5741010000000  0.4699060000000  0.4344070000000 1.0
C      1  0.6021000000000  0.4496160000000  0.5014270000000 1.0
C      1  0.5985630000000  0.5482680000000  0.4968280000000 1.0
C      1  0.3982970000000  0.4532590000000  0.4932590000000 1.0
C      1  0.3996140000000  0.5497280000000  0.5038480000000 1.0
C      1  0.6036480000000  0.5077960000000  0.4552630000000 1.0
C      1  0.5980200000000  0.4990680000000  0.5511950000000 1.0
C      1  0.3979270000000  0.4928850000000  0.4542930000000 1.0
C      1  0.4012190000000  0.5013680000000  0.5516510000000 1.0
C      1  0.5190000000000  0.5869230000000  0.4490010000000 1.0
C      1  0.5179260000000  0.4192780000000  0.5451110000000 1.0
C      1  0.4810870000000  0.5873670000000  0.5467220000000 1.0
C      1  0.4804200000000  0.4106790000000  0.4503060000000 1.0
C      1  0.5184580000000  0.4512970000000  0.5865510000000 1.0
C      1  0.5196550000000  0.5482590000000  0.4118460000000 1.0
C      1  0.4815310000000  0.5508380000000  0.5863610000000 1.0
C      1  0.4808040000000  0.4499620000000  0.4119390000000 1.0
C      1  0.5350150000000  0.4987220000000  0.4726270000000 1.0
C      1  0.5379430000000  0.4976370000000  0.5290170000000 1.0
C      1  0.4604490000000  0.4983260000000  0.5344790000000 1.0
C      1  0.4593050000000  0.5011590000000  0.4582560000000 1.0
C      1  0.5510470000000  0.4574140000000  0.5035420000000 1.0
C      1  0.5437250000000  0.5411440000000  0.4985800000000 1.0
C      1  0.4595520000000  0.5321300000000  0.5023220000000 1.0
C      1  0.4581580000000  0.4623090000000  0.4977070000000 1.0
C      1  0.4656600000000  0.4101600000000  0.4985710000000 1.0
C      1  0.4639880000000  0.5907080000000  0.4976580000000 1.0
C      1  0.5311210000000  0.4135060000000  0.4992380000000 1.0
C      1  0.5349280000000  0.5845180000000  0.5022500000000 1.0
C      1  0.4674490000000  0.4994510000000  0.4143230000000 1.0
C      1  0.4689800000000  0.5019000000000  0.5858560000000 1.0
C      1  0.5364140000000  0.4967210000000  0.4133160000000 1.0
C      1  0.5342510000000  0.4996160000000  0.5879300000000 1.0
C      1  0.4544140000000  0.4233140000000  0.4443160000000 1.0
C      1  0.4555910000000  0.5752910000000  0.5537910000000 1.0
C      1  0.5451990000000  0.4267250000000  0.5529790000000 1.0
C      1  0.5452600000000  0.5741710000000  0.4448550000000 1.0
C      1  0.4546740000000  0.4438640000000  0.4243600000000 1.0
C      1  0.4551470000000  0.5559050000000  0.5752030000000 1.0
C      1  0.5445250000000  0.5534860000000  0.4257380000000 1.0
C      1  0.5443220000000  0.4458710000000  0.5736360000000 1.0
C      1  0.5012620000000  0.4544510000000  0.4849340000000 1.0
C      1  0.5035320000000  0.5536590000000  0.5213460000000 1.0
C      1  0.5085540000000  0.4620590000000  0.5110460000000 1.0
C      1  0.4979290000000  0.5354850000000  0.4755740000000 1.0
C      1  0.5045280000000  0.4753360000000  0.4473790000000 1.0
C      1  0.5052210000000  0.5237360000000  0.5534980000000 1.0
C      1  0.5021350000000  0.5200290000000  0.4549890000000 1.0
C      1  0.4964920000000  0.4760570000000  0.5531200000000 1.0
C      1  0.4716780000000  0.5450550000000  0.4778990000000 1.0
C      1  0.4687670000000  0.4510260000000  0.5214710000000 1.0
C      1  0.5303030000000  0.5440690000000  0.5242400000000 1.0
C      1  0.5408750000000  0.4517660000000  0.4782800000000 1.0
C      1  0.4718120000000  0.4716380000000  0.5405120000000 1.0
C      1  0.4624470000000  0.5295700000000  0.4532560000000 1.0
C      1  0.5303590000000  0.5232010000000  0.5415460000000 1.0
C      1  0.5286450000000  0.4724710000000  0.4627810000000 1.0
C      1  0.4825870000000  0.5714610000000  0.4885110000000 1.0
C      1  0.4831910000000  0.4290090000000  0.5108000000000 1.0
C      1  0.5079450000000  0.5733220000000  0.5022700000000 1.0
C      1  0.5048950000000  0.4262220000000  0.4926500000000 1.0
C      1  0.4907250000000  0.4924750000000  0.5721160000000 1.0
C      1  0.4903590000000  0.5122110000000  0.4304010000000 1.0
C      1  0.5114850000000  0.5068970000000  0.5726790000000 1.0
C      1  0.5108920000000  0.4923140000000  0.4271390000000 1.0
C      1  0.5637620000000  0.5216690000000  0.4948850000000 1.0
C      1  0.5709110000000  0.4801850000000  0.4963820000000 1.0
C      1  0.4309160000000  0.5185730000000  0.4976350000000 1.0
C      1  0.4370970000000  0.4791290000000  0.4970340000000 1.0
C      1  0.5688810000000  0.5032970000000  0.5165970000000 1.0
C      1  0.5625230000000  0.4995990000000  0.4759270000000 1.0
C      1  0.4305550000000  0.4966850000000  0.5182760000000 1.0
C      1  0.4377470000000  0.4981280000000  0.4766570000000 1.0
C      1  0.4080650000000  0.4669990000000  0.4461510000000 1.0
C      1  0.4091000000000  0.5298630000000  0.5513790000000 1.0
C      1  0.5907920000000  0.4699670000000  0.5498670000000 1.0
C      1  0.5902100000000  0.5328250000000  0.4488150000000 1.0
C      1  0.4083480000000  0.4460930000000  0.4667160000000 1.0
C      1  0.4082570000000  0.5505920000000  0.5311430000000 1.0
C      1  0.5893330000000  0.5530580000000  0.4687580000000 1.0
C      1  0.5917460000000  0.4507330000000  0.5285990000000 1.0
C      1  0.5802420000000  0.4914590000000  0.4484270000000 1.0
C      1  0.5811260000000  0.5061120000000  0.5714400000000 1.0
C      1  0.4184220000000  0.4945440000000  0.5720300000000 1.0
C      1  0.4161630000000  0.5069270000000  0.4348580000000 1.0
C      1  0.5886680000000  0.4259870000000  0.4935010000000 1.0
C      1  0.5811120000000  0.5681060000000  0.5066600000000 1.0
C      1  0.4169280000000  0.5703950000000  0.4939840000000 1.0
C      1  0.4169520000000  0.4341990000000  0.5065630000000 1.0
C      1  0.5203080000000  0.6085190000000  0.4682000000000 1.0
C      1  0.5272950000000  0.3959470000000  0.5237010000000 1.0
C      1  0.4723460000000  0.6043720000000  0.5232670000000 1.0
C      1  0.4779970000000  0.3930340000000  0.4729200000000 1.0
C      1  0.5255300000000  0.4748670000000  0.6039310000000 1.0
C      1  0.5273170000000  0.5257810000000  0.3940200000000 1.0
C      1  0.4784220000000  0.5259960000000  0.6024720000000 1.0
C      1  0.4783690000000  0.4740040000000  0.3959350000000 1.0
C      1  0.4952570000000  0.6171860000000  0.4813840000000 1.0
C      1  0.4840430000000  0.3847870000000  0.5243610000000 1.0
C      1  0.5161850000000  0.6143870000000  0.5245160000000 1.0
C      1  0.5037170000000  0.3820210000000  0.4814410000000 1.0
C      1  0.4851020000000  0.4751010000000  0.6141370000000 1.0
C      1  0.4838810000000  0.5247060000000  0.3844580000000 1.0
C      1  0.5052070000000  0.5194510000000  0.6156880000000 1.0
C      1  0.5044090000000  0.4813580000000  0.3842830000000 1.0
C      1  0.5259340000000  0.5439880000000  0.4752260000000 1.0
C      1  0.5185960000000  0.4506130000000  0.5320750000000 1.0
C      1  0.4767570000000  0.5424560000000  0.5248960000000 1.0
C      1  0.4739700000000  0.4574920000000  0.4745690000000 1.0
C      1  0.5243150000000  0.4750010000000  0.5454690000000 1.0
C      1  0.5316050000000  0.5228590000000  0.4549210000000 1.0
C      1  0.4774790000000  0.5229200000000  0.5444240000000 1.0
C      1  0.4772740000000  0.4782170000000  0.4556080000000 1.0
C      1  0.5943050000000  0.5106490000000  0.5262820000000 1.0
C      1  0.6107990000000  0.5001690000000  0.4827610000000 1.0
C      1  0.3906530000000  0.5010850000000  0.4815370000000 1.0
C      1  0.4045030000000  0.4893770000000  0.5262890000000 1.0
C      1  0.6083580000000  0.5209960000000  0.5032430000000 1.0
C      1  0.5983270000000  0.4745960000000  0.4891010000000 1.0
C      1  0.3907020000000  0.4801800000000  0.5021720000000 1.0
C      1  0.4041960000000  0.5254950000000  0.4902160000000 1.0
C      1  0.5070420000000  0.4414500000000  0.4218030000000 1.0
C      1  0.5078340000000  0.5605440000000  0.5780980000000 1.0
C      1  0.4914130000000  0.4418660000000  0.5793300000000 1.0
C      1  0.4930580000000  0.5579400000000  0.4195690000000 1.0
C      1  0.5071260000000  0.4206270000000  0.4416300000000 1.0
C      1  0.5073780000000  0.5802550000000  0.5570220000000 1.0
C      1  0.4926180000000  0.5780820000000  0.4401330000000 1.0
C      1  0.4908670000000  0.4213070000000  0.5596540000000 1.0
C      1  0.5333590000000  0.4510980000000  0.4130940000000 1.0
C      1  0.5334740000000  0.5488580000000  0.5863410000000 1.0
C      1  0.4646700000000  0.4518570000000  0.5874630000000 1.0
C      1  0.4664140000000  0.5499990000000  0.4112400000000 1.0
C      1  0.5325960000000  0.4122690000000  0.4521400000000 1.0
C      1  0.5348030000000  0.5867850000000  0.5482750000000 1.0
C      1  0.4675590000000  0.5876450000000  0.4504780000000 1.0
C      1  0.4651380000000  0.4113430000000  0.5507890000000 1.0
C      1  0.4429510000000  0.5724350000000  0.4484290000000 1.0
C      1  0.4395670000000  0.4282750000000  0.5534000000000 1.0
C      1  0.5587050000000  0.5681170000000  0.5489090000000 1.0
C      1  0.5557480000000  0.4332550000000  0.4551430000000 1.0
C      1  0.4395130000000  0.4500860000000  0.5732200000000 1.0
C      1  0.4466980000000  0.5462030000000  0.4336890000000 1.0
C      1  0.5596150000000  0.5505930000000  0.5720890000000 1.0
C      1  0.5592450000000  0.4482720000000  0.4270570000000 1.0
C      1  0.4258300000000  0.5930900000000  0.5109650000000 1.0
C      1  0.4360340000000  0.4107740000000  0.4915570000000 1.0
C      1  0.5594140000000  0.5827040000000  0.4884440000000 1.0
C      1  0.5716420000000  0.4056280000000  0.5110510000000 1.0
C      1  0.4304560000000  0.5115580000000  0.5942620000000 1.0
C      1  0.4378170000000  0.4928420000000  0.4135220000000 1.0
C      1  0.5725560000000  0.4882530000000  0.5938650000000 1.0
C      1  0.5637410000000  0.5118290000000  0.4128260000000 1.0
C      1  0.4412720000000  0.4769030000000  0.3925280000000 1.0
C      1  0.4446930000000  0.5244210000000  0.6121350000000 1.0
C      1  0.5589150000000  0.4743450000000  0.6119060000000 1.0
C      1  0.5584310000000  0.5240000000000  0.3872560000000 1.0
C      1  0.4393460000000  0.3910940000000  0.4744970000000 1.0
C      1  0.4392450000000  0.6121240000000  0.5246360000000 1.0
C      1  0.5480980000000  0.6129780000000  0.4776920000000 1.0
C      1  0.5584300000000  0.3920630000000  0.5229480000000 1.0
C      1  0.5304190000000  0.5249950000000  0.6023400000000 1.0
C      1  0.5298550000000  0.4737340000000  0.3957050000000 1.0
C      1  0.4607290000000  0.5255080000000  0.3973460000000 1.0
C      1  0.4612210000000  0.4774900000000  0.6001570000000 1.0
C      1  0.5390890000000  0.6006140000000  0.5251370000000 1.0
C      1  0.5291180000000  0.3958580000000  0.4750730000000 1.0
C      1  0.4602840000000  0.3952120000000  0.5270150000000 1.0
C      1  0.4693970000000  0.6059690000000  0.4730480000000 1.0
C      1  0.5059140000000  0.3769140000000  0.5106020000000 1.0
C      1  0.4944930000000  0.6221000000000  0.5100930000000 1.0
C      1  0.5060640000000  0.5103250000000  0.3773180000000 1.0
C      1  0.5053490000000  0.4913790000000  0.6231030000000 1.0
C      1  0.4724520000000  0.5054940000000  0.5067840000000 1.0
C      1  0.5223710000000  0.5009720000000  0.5023360000000 1.0
C      1  0.4978630000000  0.5032040000000  0.5043370000000 1.0
END
