TITL C-2441164-471-651 0.141616322027523 125000 -23421.4811748777 0 0 185 (C1) n - 1
REM
REM in /home/bkarasulu/work/CARBON/AIRSS/Generating-Clusters/ReaxFF-fromJPCA2015/Units_Real/with-SteepDescent/Higher-Symm
REM
REM
REM
REM
REM
REM ./C.cell (1df0a924f5614ab8850e4351716899ee)
REM
REM compiler GCC version 9.2.1 20190827 (Red Hat 9.2.1-1)
REM options -cpp -mtune=generic -march=x86-64 -g -O0 -fpre-include=/usr/include/finclude/math-vector-fortran.h
REM seed -1368892313 43708629 -2090070949 266749163 -1607090264 2162841 -1033452737 987304361 2063533364 -1441887777 -135008689 1373745231 2093532268 875950372 -1107978634 -534864337 327170010 -1324578894 -439745783 -1094993089 -1243843667 -641940036 -570113331 1966187096 406738159 -2057261709 -22207001 -1164396490 -305691484 798504111 -211680320 1367201626 -1816033176
REM
CELL 1.54180   50.00000   50.00000   50.00000   90.00000   90.00000   90.00000
LATT -1
SFAC C  
C      1  0.4086020000000  0.5637640000000  0.5247180000000 1.0
C      1  0.5640950000000  0.5252790000000  0.4098430000000 1.0
C      1  0.5239800000000  0.4103640000000  0.5640900000000 1.0
C      1  0.5894660000000  0.5635430000000  0.4753790000000 1.0
C      1  0.5896700000000  0.4361700000000  0.5241250000000 1.0
C      1  0.4082550000000  0.4360010000000  0.4756430000000 1.0
C      1  0.4365100000000  0.5239480000000  0.5900120000000 1.0
C      1  0.4359610000000  0.4751710000000  0.4111220000000 1.0
C      1  0.5639310000000  0.4745320000000  0.5899030000000 1.0
C      1  0.4739940000000  0.4106280000000  0.4422260000000 1.0
C      1  0.4738480000000  0.5895250000000  0.5649000000000 1.0
C      1  0.5236450000000  0.5903690000000  0.4367900000000 1.0
C      1  0.4593730000000  0.3982740000000  0.4899380000000 1.0
C      1  0.3976810000000  0.4885100000000  0.4608550000000 1.0
C      1  0.4876450000000  0.4599900000000  0.3993000000000 1.0
C      1  0.5392790000000  0.4005090000000  0.5116540000000 1.0
C      1  0.5398060000000  0.5993990000000  0.4881180000000 1.0
C      1  0.4602910000000  0.6005400000000  0.5125360000000 1.0
C      1  0.5999370000000  0.4875900000000  0.5403960000000 1.0
C      1  0.6015280000000  0.5125230000000  0.4603130000000 1.0
C      1  0.3990380000000  0.5111420000000  0.5398950000000 1.0
C      1  0.5117730000000  0.4600470000000  0.6014970000000 1.0
C      1  0.5122310000000  0.5391780000000  0.3990480000000 1.0
C      1  0.4884380000000  0.5388730000000  0.6013230000000 1.0
C      1  0.5833830000000  0.4927130000000  0.4456730000000 1.0
C      1  0.4926530000000  0.4466740000000  0.5833570000000 1.0
C      1  0.4463020000000  0.5840150000000  0.4921210000000 1.0
C      1  0.4170310000000  0.4923930000000  0.5538230000000 1.0
C      1  0.4160960000000  0.5075550000000  0.4468070000000 1.0
C      1  0.5824580000000  0.5064160000000  0.5550670000000 1.0
C      1  0.5085920000000  0.4461430000000  0.4149420000000 1.0
C      1  0.5068100000000  0.5533520000000  0.5837170000000 1.0
C      1  0.4926560000000  0.5531520000000  0.4172880000000 1.0
C      1  0.5556070000000  0.5823950000000  0.5068630000000 1.0
C      1  0.5562290000000  0.4165520000000  0.4931850000000 1.0
C      1  0.4450310000000  0.4168770000000  0.5077550000000 1.0
C      1  0.4257910000000  0.5346420000000  0.5028690000000 1.0
C      1  0.5362020000000  0.5028260000000  0.4277030000000 1.0
C      1  0.5007690000000  0.4283960000000  0.5361160000000 1.0
C      1  0.5717630000000  0.5358450000000  0.4995410000000 1.0
C      1  0.5740280000000  0.4655220000000  0.5011000000000 1.0
C      1  0.4267080000000  0.4628570000000  0.4994320000000 1.0
C      1  0.4645030000000  0.5007580000000  0.5728950000000 1.0
C      1  0.4646440000000  0.4987330000000  0.4268290000000 1.0
C      1  0.5351270000000  0.4986310000000  0.5745350000000 1.0
C      1  0.4967850000000  0.4220670000000  0.4567320000000 1.0
C      1  0.4976430000000  0.5726410000000  0.5373000000000 1.0
C      1  0.5003790000000  0.5718000000000  0.4636180000000 1.0
C      1  0.4596340000000  0.5685630000000  0.5806850000000 1.0
C      1  0.5673810000000  0.5774860000000  0.4613960000000 1.0
C      1  0.5791860000000  0.4611870000000  0.5678990000000 1.0
C      1  0.5382200000000  0.5693890000000  0.4198940000000 1.0
C      1  0.5380090000000  0.4310540000000  0.5815790000000 1.0
C      1  0.4633030000000  0.4308240000000  0.4215740000000 1.0
C      1  0.4307330000000  0.5787740000000  0.5382140000000 1.0
C      1  0.4302500000000  0.4229040000000  0.4611440000000 1.0
C      1  0.5678750000000  0.4199930000000  0.5380430000000 1.0
C      1  0.4194130000000  0.4622610000000  0.4333200000000 1.0
C      1  0.4203990000000  0.5367790000000  0.5678740000000 1.0
C      1  0.5798220000000  0.5377890000000  0.4333770000000 1.0
C      1  0.4970760000000  0.5143380000000  0.4531630000000 1.0
C      1  0.5136280000000  0.4599850000000  0.5033910000000 1.0
C      1  0.4643410000000  0.5064500000000  0.5118990000000 1.0
C      1  0.4984410000000  0.5248120000000  0.5431580000000 1.0
C      1  0.4930000000000  0.4878410000000  0.4611260000000 1.0
C      1  0.5033110000000  0.4776790000000  0.5444010000000 1.0
C      1  0.4880920000000  0.4535180000000  0.5002480000000 1.0
C      1  0.4911520000000  0.5460520000000  0.5006450000000 1.0
C      1  0.5146270000000  0.5394230000000  0.4930150000000 1.0
C      1  0.5454950000000  0.4967550000000  0.4861780000000 1.0
C      1  0.5416960000000  0.4942890000000  0.5127380000000 1.0
C      1  0.4591820000000  0.4953600000000  0.4889630000000 1.0
C      1  0.5961400000000  0.4582890000000  0.5440930000000 1.0
C      1  0.4591020000000  0.5435130000000  0.5961110000000 1.0
C      1  0.5439690000000  0.5950630000000  0.4589720000000 1.0
C      1  0.4006150000000  0.4588390000000  0.4561300000000 1.0
C      1  0.4031900000000  0.5405140000000  0.5440290000000 1.0
C      1  0.5993330000000  0.5418920000000  0.4556720000000 1.0
C      1  0.5408750000000  0.5444850000000  0.4036560000000 1.0
C      1  0.5416260000000  0.4555510000000  0.5977970000000 1.0
C      1  0.4587180000000  0.4555900000000  0.4052780000000 1.0
C      1  0.4549520000000  0.5957050000000  0.5414490000000 1.0
C      1  0.4530280000000  0.4043210000000  0.4618680000000 1.0
C      1  0.5430840000000  0.4042400000000  0.5411030000000 1.0
C      1  0.4484220000000  0.4443200000000  0.4958530000000 1.0
C      1  0.4449920000000  0.4964080000000  0.4494820000000 1.0
C      1  0.4973980000000  0.4484210000000  0.4431980000000 1.0
C      1  0.5517350000000  0.4452650000000  0.5039610000000 1.0
C      1  0.5502810000000  0.5545670000000  0.4963490000000 1.0
C      1  0.4489950000000  0.5539950000000  0.5023880000000 1.0
C      1  0.5528180000000  0.4948930000000  0.5527340000000 1.0
C      1  0.5554060000000  0.5033920000000  0.4490730000000 1.0
C      1  0.4466280000000  0.5033110000000  0.5504710000000 1.0
C      1  0.5069830000000  0.4511540000000  0.5552390000000 1.0
C      1  0.5057060000000  0.5526690000000  0.4430300000000 1.0
C      1  0.4923060000000  0.5496610000000  0.5555510000000 1.0
C      1  0.5149210000000  0.6001020000000  0.5040670000000 1.0
C      1  0.6001080000000  0.5036880000000  0.5153110000000 1.0
C      1  0.5033970000000  0.5137260000000  0.6044240000000 1.0
C      1  0.4856450000000  0.5992270000000  0.4976740000000 1.0
C      1  0.4853200000000  0.3988080000000  0.5036430000000 1.0
C      1  0.5140460000000  0.4003210000000  0.4964470000000 1.0
C      1  0.3939230000000  0.5037910000000  0.4860450000000 1.0
C      1  0.3937810000000  0.4959460000000  0.5145480000000 1.0
C      1  0.6000880000000  0.4983280000000  0.4858780000000 1.0
C      1  0.4976750000000  0.5137020000000  0.3987580000000 1.0
C      1  0.4973850000000  0.4854820000000  0.6035980000000 1.0
C      1  0.5043580000000  0.4845690000000  0.3995600000000 1.0
C      1  0.5333590000000  0.4504880000000  0.5598420000000 1.0
C      1  0.4504830000000  0.5571230000000  0.5325300000000 1.0
C      1  0.5615300000000  0.5293830000000  0.4545840000000 1.0
C      1  0.4700860000000  0.4498840000000  0.4426280000000 1.0
C      1  0.4642650000000  0.5496950000000  0.5576260000000 1.0
C      1  0.5308640000000  0.5514320000000  0.4417060000000 1.0
C      1  0.5481900000000  0.5531100000000  0.4641070000000 1.0
C      1  0.5495580000000  0.4421170000000  0.5314510000000 1.0
C      1  0.4505920000000  0.4458350000000  0.4636370000000 1.0
C      1  0.4422400000000  0.5319130000000  0.5479990000000 1.0
C      1  0.4387850000000  0.4699010000000  0.4538130000000 1.0
C      1  0.5556860000000  0.4650790000000  0.5487570000000 1.0
C      1  0.5383510000000  0.4249210000000  0.4413560000000 1.0
C      1  0.4224740000000  0.4411100000000  0.5335670000000 1.0
C      1  0.4416750000000  0.5325320000000  0.4233270000000 1.0
C      1  0.4668210000000  0.4235150000000  0.5588490000000 1.0
C      1  0.4664890000000  0.5772280000000  0.4414810000000 1.0
C      1  0.5321980000000  0.5761200000000  0.5591580000000 1.0
C      1  0.5782700000000  0.4417360000000  0.4671830000000 1.0
C      1  0.5767260000000  0.5583860000000  0.5328460000000 1.0
C      1  0.4235060000000  0.5586260000000  0.4667750000000 1.0
C      1  0.5583050000000  0.5321310000000  0.5769300000000 1.0
C      1  0.5588790000000  0.4680460000000  0.4225180000000 1.0
C      1  0.4415490000000  0.4670610000000  0.5769210000000 1.0
C      1  0.4867050000000  0.4259950000000  0.5132370000000 1.0
C      1  0.4230450000000  0.5090120000000  0.4916320000000 1.0
C      1  0.5173350000000  0.4846440000000  0.4252730000000 1.0
C      1  0.5139560000000  0.4240190000000  0.4800020000000 1.0
C      1  0.5165470000000  0.5757290000000  0.5189290000000 1.0
C      1  0.4862390000000  0.5713240000000  0.4876250000000 1.0
C      1  0.5735470000000  0.5150110000000  0.5161770000000 1.0
C      1  0.5730460000000  0.4878420000000  0.4857610000000 1.0
C      1  0.4217450000000  0.4881550000000  0.5100010000000 1.0
C      1  0.4905880000000  0.4906680000000  0.5745520000000 1.0
C      1  0.4871690000000  0.5133990000000  0.4256960000000 1.0
C      1  0.5108870000000  0.5112070000000  0.5756620000000 1.0
C      1  0.5124100000000  0.4733600000000  0.4502080000000 1.0
C      1  0.4669210000000  0.4604430000000  0.5197000000000 1.0
C      1  0.4550270000000  0.5125400000000  0.4706030000000 1.0
C      1  0.4770320000000  0.4736310000000  0.5389620000000 1.0
C      1  0.4770660000000  0.5325450000000  0.4633720000000 1.0
C      1  0.5245520000000  0.5314590000000  0.5346130000000 1.0
C      1  0.5301310000000  0.4507330000000  0.4846800000000 1.0
C      1  0.5281030000000  0.5501340000000  0.5125860000000 1.0
C      1  0.4578880000000  0.5385760000000  0.4804500000000 1.0
C      1  0.5429730000000  0.5102450000000  0.5327080000000 1.0
C      1  0.5356120000000  0.4752360000000  0.4678370000000 1.0
C      1  0.4576140000000  0.4895330000000  0.5294710000000 1.0
C      1  0.4643470000000  0.4454130000000  0.5776060000000 1.0
C      1  0.4453110000000  0.5780020000000  0.4634270000000 1.0
C      1  0.5770640000000  0.4642050000000  0.4448970000000 1.0
C      1  0.5373620000000  0.4465350000000  0.4216650000000 1.0
C      1  0.5350870000000  0.5538920000000  0.5771310000000 1.0
C      1  0.4638250000000  0.5547900000000  0.4234680000000 1.0
C      1  0.5553080000000  0.5767600000000  0.5359080000000 1.0
C      1  0.5584080000000  0.4215940000000  0.4643860000000 1.0
C      1  0.4445950000000  0.4229110000000  0.5370300000000 1.0
C      1  0.4226490000000  0.4640810000000  0.5551810000000 1.0
C      1  0.4227420000000  0.5356480000000  0.4448010000000 1.0
C      1  0.5767430000000  0.5350050000000  0.5552410000000 1.0
C      1  0.5141430000000  0.4098160000000  0.4430670000000 1.0
C      1  0.4082790000000  0.4417340000000  0.5059400000000 1.0
C      1  0.4424970000000  0.5049510000000  0.4097100000000 1.0
C      1  0.4944300000000  0.4098390000000  0.5571450000000 1.0
C      1  0.4939720000000  0.5912700000000  0.4430880000000 1.0
C      1  0.5045870000000  0.5895850000000  0.5594220000000 1.0
C      1  0.5911780000000  0.4432160000000  0.4946540000000 1.0
C      1  0.5903830000000  0.5572590000000  0.5046400000000 1.0
C      1  0.4098360000000  0.5567310000000  0.4935330000000 1.0
C      1  0.5577980000000  0.5040560000000  0.5903150000000 1.0
C      1  0.5574490000000  0.4962350000000  0.4090450000000 1.0
C      1  0.4433600000000  0.4943090000000  0.5907850000000 1.0
C      1  0.4806110000000  0.5268930000000  0.5196210000000 1.0
C      1  0.5201160000000  0.4801450000000  0.5182640000000 1.0
C      1  0.5218040000000  0.5174560000000  0.4776900000000 1.0
C      1  0.4773800000000  0.4757240000000  0.4795740000000 1.0
C      1  0.5073090000000  0.5010880000000  0.4974550000000 1.0
END
