TITL C-2441160-1326-658 0.0564275412057988 125000 -14800.3061872699 0 0 112 (C1) n - 1
REM
REM in /home/bkarasulu/work/CARBON/AIRSS/Generating-Clusters/ReaxFF-fromJPCA2015/Units_Real/with-SteepDescent/Higher-Symm
REM
REM
REM
REM
REM
REM ./C.cell (1df0a924f5614ab8850e4351716899ee)
REM
REM compiler GCC version 9.2.1 20190827 (Red Hat 9.2.1-1)
REM options -cpp -mtune=generic -march=x86-64 -g -O0 -fpre-include=/usr/include/finclude/math-vector-fortran.h
REM seed -810069789 -124532015 673118595 1473030784 -1165168349 -387751697 49733036 679483370 1677391976 1135134800 -1779852955 1995051188 -216445938 140052930 1017304910 1228527521 -1654645701 -1180409835 685987280 676876347 -1956149773 234152129 -1308451256 -1109771930 -624180668 -345491751 -362500587 281533420 -1109628598 1537183326 774770295 -1629062480 1650825685
REM
CELL 1.54180   50.00000   50.00000   50.00000   90.00000   90.00000   90.00000
LATT -1
SFAC C  
C      1  0.5306690000000  0.4785780000000  0.5753570000000 1.0
C      1  0.4696970000000  0.4762350000000  0.4261020000000 1.0
C      1  0.5293820000000  0.4763740000000  0.4265240000000 1.0
C      1  0.4683540000000  0.4776650000000  0.5745730000000 1.0
C      1  0.4649530000000  0.5198550000000  0.4769800000000 1.0
C      1  0.5401750000000  0.5144200000000  0.5193310000000 1.0
C      1  0.4634150000000  0.5162410000000  0.5179930000000 1.0
C      1  0.5380790000000  0.5192330000000  0.4756410000000 1.0
C      1  0.5810520000000  0.5245230000000  0.4913810000000 1.0
C      1  0.4189540000000  0.5239760000000  0.5140410000000 1.0
C      1  0.5837890000000  0.5258630000000  0.5187320000000 1.0
C      1  0.4187060000000  0.5234680000000  0.4845530000000 1.0
C      1  0.4465720000000  0.5209750000000  0.4355190000000 1.0
C      1  0.5586820000000  0.5209300000000  0.5633210000000 1.0
C      1  0.4409140000000  0.5207870000000  0.5626670000000 1.0
C      1  0.5527360000000  0.5215920000000  0.4328770000000 1.0
C      1  0.4536200000000  0.4520940000000  0.4850770000000 1.0
C      1  0.5484880000000  0.4511490000000  0.5165360000000 1.0
C      1  0.4538410000000  0.4520350000000  0.5152330000000 1.0
C      1  0.5486360000000  0.4518210000000  0.4882920000000 1.0
C      1  0.5386820000000  0.5440600000000  0.5658540000000 1.0
C      1  0.4684600000000  0.5392410000000  0.4306220000000 1.0
C      1  0.5289480000000  0.5398790000000  0.4284410000000 1.0
C      1  0.4603840000000  0.5435130000000  0.5660430000000 1.0
C      1  0.4710910000000  0.4760160000000  0.4808040000000 1.0
C      1  0.5242620000000  0.4656520000000  0.5236670000000 1.0
C      1  0.4766030000000  0.4681700000000  0.5208420000000 1.0
C      1  0.5268770000000  0.4768100000000  0.4833930000000 1.0
C      1  0.5378890000000  0.4241570000000  0.5368500000000 1.0
C      1  0.4620370000000  0.4305070000000  0.4672160000000 1.0
C      1  0.5348700000000  0.4313580000000  0.4764300000000 1.0
C      1  0.4628960000000  0.4281410000000  0.5342530000000 1.0
C      1  0.5748590000000  0.4696850000000  0.4853720000000 1.0
C      1  0.4265140000000  0.4683600000000  0.5143140000000 1.0
C      1  0.5733230000000  0.4684230000000  0.5145230000000 1.0
C      1  0.4256230000000  0.4686770000000  0.4857630000000 1.0
C      1  0.4790120000000  0.5110680000000  0.5404480000000 1.0
C      1  0.5158200000000  0.5127360000000  0.4583070000000 1.0
C      1  0.4861610000000  0.5134660000000  0.4589390000000 1.0
C      1  0.5217800000000  0.5094140000000  0.5390060000000 1.0
C      1  0.4232490000000  0.5099910000000  0.5404660000000 1.0
C      1  0.5709050000000  0.5121350000000  0.4537580000000 1.0
C      1  0.4229000000000  0.5109370000000  0.4578560000000 1.0
C      1  0.5763310000000  0.5089820000000  0.5427040000000 1.0
C      1  0.5426290000000  0.5053460000000  0.5825490000000 1.0
C      1  0.4576620000000  0.5019780000000  0.4153400000000 1.0
C      1  0.5410570000000  0.5017620000000  0.4144390000000 1.0
C      1  0.4565850000000  0.5045890000000  0.5819590000000 1.0
C      1  0.5375470000000  0.4390500000000  0.4490770000000 1.0
C      1  0.4546700000000  0.4423910000000  0.5565590000000 1.0
C      1  0.5441290000000  0.4415760000000  0.5554280000000 1.0
C      1  0.4536140000000  0.4443010000000  0.4456380000000 1.0
C      1  0.5267810000000  0.5296220000000  0.5890050000000 1.0
C      1  0.4780650000000  0.5223460000000  0.4079400000000 1.0
C      1  0.5205770000000  0.5215330000000  0.4061430000000 1.0
C      1  0.4733680000000  0.5282280000000  0.5881580000000 1.0
C      1  0.5566110000000  0.5386150000000  0.5205820000000 1.0
C      1  0.4432220000000  0.5387070000000  0.4785160000000 1.0
C      1  0.5636680000000  0.5324070000000  0.4726330000000 1.0
C      1  0.4442500000000  0.5377940000000  0.5191890000000 1.0
C      1  0.5684360000000  0.4819030000000  0.4599400000000 1.0
C      1  0.4276220000000  0.4817720000000  0.5398510000000 1.0
C      1  0.5708280000000  0.4810410000000  0.5403530000000 1.0
C      1  0.4270360000000  0.4829940000000  0.4606920000000 1.0
C      1  0.4717380000000  0.5633530000000  0.5469800000000 1.0
C      1  0.5246600000000  0.5646510000000  0.4731840000000 1.0
C      1  0.4736420000000  0.5664630000000  0.4677570000000 1.0
C      1  0.5260460000000  0.5626820000000  0.5466130000000 1.0
C      1  0.4430250000000  0.4669050000000  0.5627130000000 1.0
C      1  0.5512970000000  0.4643780000000  0.4426350000000 1.0
C      1  0.4428010000000  0.4674620000000  0.4376370000000 1.0
C      1  0.5545960000000  0.4659060000000  0.5622860000000 1.0
C      1  0.5156900000000  0.4823540000000  0.4558720000000 1.0
C      1  0.4831940000000  0.4822960000000  0.5447900000000 1.0
C      1  0.5160910000000  0.4818310000000  0.5458650000000 1.0
C      1  0.4835770000000  0.4832210000000  0.4550170000000 1.0
C      1  0.5487310000000  0.5669300000000  0.5271100000000 1.0
C      1  0.4446530000000  0.5665660000000  0.4719290000000 1.0
C      1  0.5535930000000  0.5633280000000  0.4739750000000 1.0
C      1  0.4502150000000  0.5651680000000  0.5268890000000 1.0
C      1  0.5004320000000  0.5201440000000  0.5809380000000 1.0
C      1  0.4993530000000  0.5032960000000  0.4125900000000 1.0
C      1  0.4906320000000  0.4343160000000  0.5390090000000 1.0
C      1  0.4915630000000  0.4266770000000  0.4659580000000 1.0
C      1  0.4599070000000  0.4986280000000  0.4949730000000 1.0
C      1  0.5419470000000  0.4990880000000  0.4949920000000 1.0
C      1  0.5007580000000  0.5679720000000  0.4559760000000 1.0
C      1  0.4991900000000  0.5742180000000  0.5438260000000 1.0
C      1  0.5094890000000  0.4350900000000  0.4396550000000 1.0
C      1  0.5123460000000  0.4165830000000  0.5505960000000 1.0
C      1  0.5002220000000  0.4644030000000  0.5834420000000 1.0
C      1  0.5003580000000  0.4544540000000  0.4209730000000 1.0
C      1  0.5543600000000  0.5742230000000  0.5000150000000 1.0
C      1  0.4500290000000  0.5761550000000  0.4997920000000 1.0
C      1  0.4986190000000  0.3961940000000  0.4622600000000 1.0
C      1  0.5073690000000  0.3981200000000  0.5295930000000 1.0
C      1  0.5154600000000  0.5487270000000  0.4973900000000 1.0
C      1  0.4756350000000  0.5625280000000  0.4955900000000 1.0
C      1  0.5013340000000  0.5454440000000  0.4381640000000 1.0
C      1  0.5014440000000  0.5242300000000  0.5521240000000 1.0
C      1  0.4994980000000  0.6389470000000  0.4993800000000 1.0
C      1  0.5006500000000  0.4955420000000  0.4987990000000 1.0
C      1  0.5053760000000  0.5233600000000  0.4991960000000 1.0
C      1  0.5023480000000  0.5896900000000  0.5181930000000 1.0
C      1  0.4999230000000  0.3764470000000  0.4911860000000 1.0
C      1  0.5088850000000  0.4309400000000  0.4893670000000 1.0
C      1  0.4997500000000  0.3526360000000  0.5004800000000 1.0
C      1  0.4998260000000  0.6636030000000  0.4970110000000 1.0
C      1  0.5002630000000  0.4532150000000  0.5137260000000 1.0
C      1  0.5002110000000  0.6146130000000  0.5065060000000 1.0
C      1  0.5004830000000  0.4036550000000  0.5036950000000 1.0
C      1  0.4978360000000  0.5664690000000  0.5045610000000 1.0
END
