TITL C-2441169-1362-1337 0.00435244317455127 125000 -12061.6659624673 0 0 82 (C1) n - 1
REM
REM in /home/bkarasulu/work/CARBON/AIRSS/Generating-Clusters/ReaxFF-fromJPCA2015/Units_Real/with-SteepDescent/Higher-Symm
REM
REM
REM
REM
REM
REM ./C.cell (1df0a924f5614ab8850e4351716899ee)
REM
REM compiler GCC version 9.2.1 20190827 (Red Hat 9.2.1-1)
REM options -cpp -mtune=generic -march=x86-64 -g -O0 -fpre-include=/usr/include/finclude/math-vector-fortran.h
REM seed 735338794 209175568 1165262214 260942783 1253489098 -790251063 -504071794 -956626255 729807844 -1110904889 -298766477 -1854595552 1580780175 1404634509 1194301495 -289379395 -530597364 -326008595 116298286 -915487367 -44876349 -592644241 -452621380 -879423776 -2103385954 -312396696 -254515742 -1409783999 -1168873406 -268360648 -549079260 -1245033809 478479042
REM
CELL 1.54180   50.00000   50.00000   50.00000   90.00000   90.00000   90.00000
LATT -1
SFAC C  
C      1  0.4776710000000  0.5344210000000  0.4860560000000 1.0
C      1  0.4612540000000  0.4967730000000  0.4473430000000 1.0
C      1  0.4217480000000  0.4987720000000  0.4739150000000 1.0
C      1  0.5496900000000  0.5615050000000  0.5348060000000 1.0
C      1  0.5656330000000  0.5288850000000  0.5070050000000 1.0
C      1  0.4695990000000  0.4573240000000  0.4327220000000 1.0
C      1  0.5480960000000  0.5371070000000  0.5535040000000 1.0
C      1  0.4372480000000  0.4761220000000  0.5235260000000 1.0
C      1  0.4728840000000  0.5273350000000  0.5731550000000 1.0
C      1  0.5266970000000  0.4792840000000  0.5046000000000 1.0
C      1  0.4432510000000  0.4568070000000  0.4471250000000 1.0
C      1  0.4219950000000  0.4590760000000  0.4875800000000 1.0
C      1  0.5070070000000  0.5251320000000  0.4241840000000 1.0
C      1  0.4516360000000  0.5295320000000  0.5269520000000 1.0
C      1  0.4740590000000  0.4924090000000  0.4975440000000 1.0
C      1  0.4750800000000  0.5530530000000  0.5581150000000 1.0
C      1  0.5111510000000  0.4709330000000  0.5282170000000 1.0
C      1  0.5010740000000  0.5219630000000  0.5795990000000 1.0
C      1  0.5317900000000  0.5734250000000  0.5146210000000 1.0
C      1  0.4226370000000  0.5320800000000  0.5315400000000 1.0
C      1  0.5782330000000  0.4988110000000  0.5322670000000 1.0
C      1  0.5197510000000  0.5418310000000  0.5677630000000 1.0
C      1  0.5064000000000  0.5276310000000  0.5031280000000 1.0
C      1  0.4192560000000  0.4841860000000  0.5001000000000 1.0
C      1  0.4571520000000  0.4366430000000  0.4960850000000 1.0
C      1  0.4854340000000  0.4298610000000  0.4955830000000 1.0
C      1  0.5053170000000  0.5592950000000  0.5205350000000 1.0
C      1  0.4787310000000  0.5703800000000  0.5114580000000 1.0
C      1  0.4344650000000  0.4843350000000  0.4508560000000 1.0
C      1  0.4612260000000  0.5175840000000  0.5017190000000 1.0
C      1  0.4828520000000  0.4785380000000  0.4190890000000 1.0
C      1  0.5007330000000  0.5709800000000  0.4528800000000 1.0
C      1  0.5028490000000  0.5579120000000  0.5511950000000 1.0
C      1  0.4860740000000  0.4354140000000  0.5469500000000 1.0
C      1  0.5133440000000  0.4739430000000  0.5586030000000 1.0
C      1  0.5811320000000  0.4810370000000  0.5084130000000 1.0
C      1  0.4618020000000  0.5617870000000  0.4880500000000 1.0
C      1  0.4789340000000  0.4861730000000  0.4693750000000 1.0
C      1  0.4279980000000  0.5271020000000  0.4685190000000 1.0
C      1  0.5799240000000  0.4843810000000  0.4793480000000 1.0
C      1  0.5669300000000  0.4715220000000  0.4559050000000 1.0
C      1  0.4468660000000  0.4483650000000  0.5214120000000 1.0
C      1  0.5255490000000  0.4208510000000  0.5271120000000 1.0
C      1  0.4905810000000  0.4908300000000  0.5222610000000 1.0
C      1  0.5395230000000  0.4511860000000  0.4898210000000 1.0
C      1  0.4998130000000  0.4387350000000  0.4711800000000 1.0
C      1  0.4175990000000  0.5429710000000  0.5098590000000 1.0
C      1  0.5727060000000  0.4555580000000  0.5195910000000 1.0
C      1  0.4498500000000  0.5241330000000  0.4481770000000 1.0
C      1  0.5412850000000  0.5405170000000  0.4432640000000 1.0
C      1  0.5052090000000  0.4973230000000  0.4181620000000 1.0
C      1  0.4963790000000  0.4928290000000  0.5736460000000 1.0
C      1  0.4685730000000  0.4985750000000  0.5649630000000 1.0
C      1  0.5412130000000  0.4233920000000  0.5034100000000 1.0
C      1  0.4877130000000  0.4615330000000  0.4569570000000 1.0
C      1  0.5344940000000  0.5722960000000  0.4846940000000 1.0
C      1  0.5304350000000  0.4906110000000  0.4343800000000 1.0
C      1  0.5393360000000  0.4654250000000  0.4468640000000 1.0
C      1  0.5072280000000  0.5146870000000  0.5296650000000 1.0
C      1  0.5533530000000  0.4888640000000  0.5455070000000 1.0
C      1  0.4967610000000  0.4239890000000  0.5223310000000 1.0
C      1  0.4317220000000  0.5494900000000  0.4865230000000 1.0
C      1  0.5741950000000  0.5278710000000  0.5329640000000 1.0
C      1  0.4389440000000  0.4419090000000  0.4725130000000 1.0
C      1  0.5094620000000  0.4454260000000  0.5625360000000 1.0
C      1  0.4523350000000  0.4793410000000  0.5493780000000 1.0
C      1  0.4631660000000  0.5572510000000  0.5320580000000 1.0
C      1  0.4738270000000  0.5376250000000  0.4567820000000 1.0
C      1  0.4608710000000  0.4503750000000  0.5470890000000 1.0
C      1  0.5072290000000  0.5746520000000  0.4796090000000 1.0
C      1  0.5629560000000  0.4386950000000  0.5002380000000 1.0
C      1  0.5252350000000  0.5061240000000  0.4929100000000 1.0
C      1  0.5336510000000  0.5108560000000  0.5439430000000 1.0
C      1  0.5544610000000  0.4597400000000  0.5422570000000 1.0
C      1  0.5475910000000  0.5494870000000  0.4702600000000 1.0
C      1  0.5725230000000  0.4999560000000  0.4547310000000 1.0
C      1  0.5266980000000  0.4460790000000  0.4642420000000 1.0
C      1  0.5499190000000  0.5243410000000  0.4854620000000 1.0
C      1  0.4728940000000  0.5667290000000  0.4596010000000 1.0
C      1  0.5348830000000  0.4387350000000  0.5489180000000 1.0
C      1  0.5492480000000  0.5115870000000  0.4409950000000 1.0
C      1  0.5149840000000  0.5497760000000  0.4338050000000 1.0
END
