TITL C-2441159-1093-1257 0.0672112788486487 125000 -18931.7719814562 0 0 140 (C1) n - 1
REM
REM in /home/bkarasulu/work/CARBON/AIRSS/Generating-Clusters/ReaxFF-fromJPCA2015/Units_Real/with-SteepDescent/Higher-Symm
REM
REM
REM
REM
REM
REM ./C.cell (1df0a924f5614ab8850e4351716899ee)
REM
REM compiler GCC version 9.2.1 20190827 (Red Hat 9.2.1-1)
REM options -cpp -mtune=generic -march=x86-64 -g -O0 -fpre-include=/usr/include/finclude/math-vector-fortran.h
REM seed -1998712852 1884133532 -1747414033 1970737076 -704837656 -564073252 1069571068 -366539379 -996046527 1325839296 514209610 -1074143164 -711983113 -592250042 -1982828856 -2018530570 -2025363348 -1905386405 2130267936 845830663 191750217 1046960019 1756915591 1928074887 1382712159 207314076 -1720417236 -1786458822 285599893 1589040766 1224807266 264634490 -1896810813
REM
CELL 1.54180   50.00000   50.00000   50.00000   90.00000   90.00000   90.00000
LATT -1
SFAC C  
C      1  0.4751290000000  0.5771120000000  0.5523620000000 1.0
C      1  0.4683240000000  0.5791780000000  0.4506660000000 1.0
C      1  0.5587510000000  0.5778720000000  0.4959090000000 1.0
C      1  0.4825750000000  0.4421980000000  0.5137470000000 1.0
C      1  0.4947460000000  0.4450010000000  0.4686410000000 1.0
C      1  0.5191550000000  0.4405670000000  0.5082210000000 1.0
C      1  0.5918190000000  0.5394480000000  0.4877480000000 1.0
C      1  0.4658070000000  0.5398060000000  0.5882780000000 1.0
C      1  0.4408160000000  0.5397250000000  0.4273670000000 1.0
C      1  0.4249520000000  0.4751060000000  0.5455470000000 1.0
C      1  0.4980550000000  0.4758860000000  0.4119990000000 1.0
C      1  0.5792800000000  0.4727080000000  0.5444620000000 1.0
C      1  0.5362530000000  0.5440260000000  0.5496660000000 1.0
C      1  0.4284010000000  0.5468230000000  0.5123090000000 1.0
C      1  0.5252410000000  0.5483580000000  0.4298820000000 1.0
C      1  0.4224760000000  0.5280920000000  0.5513310000000 1.0
C      1  0.4935020000000  0.5285110000000  0.4042450000000 1.0
C      1  0.5755400000000  0.5268770000000  0.5509110000000 1.0
C      1  0.5220580000000  0.4953490000000  0.5240700000000 1.0
C      1  0.4661790000000  0.4983090000000  0.5046020000000 1.0
C      1  0.5117230000000  0.4953560000000  0.4695770000000 1.0
C      1  0.4301650000000  0.5076940000000  0.5709930000000 1.0
C      1  0.4730300000000  0.5079930000000  0.4017410000000 1.0
C      1  0.5929790000000  0.5091510000000  0.5330930000000 1.0
C      1  0.4904850000000  0.5262690000000  0.5977560000000 1.0
C      1  0.4235040000000  0.5237600000000  0.4456950000000 1.0
C      1  0.5832400000000  0.5253990000000  0.4626100000000 1.0
C      1  0.4848990000000  0.4719100000000  0.5943190000000 1.0
C      1  0.4244720000000  0.4726550000000  0.4379100000000 1.0
C      1  0.5893390000000  0.4728560000000  0.4679150000000 1.0
C      1  0.5285610000000  0.4512730000000  0.5332030000000 1.0
C      1  0.4564680000000  0.4506620000000  0.5016510000000 1.0
C      1  0.5224560000000  0.4493620000000  0.4635280000000 1.0
C      1  0.5342330000000  0.4303840000000  0.4439180000000 1.0
C      1  0.5350470000000  0.4317810000000  0.5543340000000 1.0
C      1  0.4342900000000  0.4292350000000  0.4997240000000 1.0
C      1  0.4938020000000  0.4976810000000  0.5630700000000 1.0
C      1  0.4563410000000  0.4906060000000  0.4668640000000 1.0
C      1  0.5514760000000  0.4909850000000  0.4801120000000 1.0
C      1  0.5623850000000  0.5204040000000  0.4235090000000 1.0
C      1  0.5506760000000  0.5175600000000  0.5822310000000 1.0
C      1  0.4018360000000  0.5208790000000  0.4852300000000 1.0
C      1  0.4768160000000  0.4161510000000  0.5289410000000 1.0
C      1  0.4890810000000  0.4159730000000  0.4660550000000 1.0
C      1  0.5375100000000  0.4159920000000  0.5062670000000 1.0
C      1  0.4156060000000  0.4576540000000  0.4956170000000 1.0
C      1  0.5454430000000  0.4582050000000  0.4307550000000 1.0
C      1  0.5388780000000  0.4553200000000  0.5764590000000 1.0
C      1  0.5191420000000  0.4719480000000  0.5884350000000 1.0
C      1  0.4105010000000  0.4697770000000  0.4702060000000 1.0
C      1  0.5702950000000  0.4699630000000  0.4396040000000 1.0
C      1  0.5353330000000  0.4952600000000  0.5889750000000 1.0
C      1  0.4006680000000  0.4943620000000  0.4797770000000 1.0
C      1  0.5676810000000  0.4941600000000  0.4256040000000 1.0
C      1  0.5458940000000  0.5810400000000  0.4705420000000 1.0
C      1  0.5034430000000  0.5834030000000  0.5520830000000 1.0
C      1  0.4544090000000  0.5812940000000  0.4763620000000 1.0
C      1  0.4496290000000  0.4401440000000  0.4588800000000 1.0
C      1  0.5697820000000  0.4326020000000  0.4761540000000 1.0
C      1  0.4858480000000  0.4269560000000  0.5660170000000 1.0
C      1  0.4602300000000  0.5180470000000  0.4264730000000 1.0
C      1  0.5852840000000  0.5173970000000  0.5059880000000 1.0
C      1  0.4578400000000  0.5182690000000  0.5703220000000 1.0
C      1  0.5304920000000  0.4717830000000  0.4791030000000 1.0
C      1  0.4908610000000  0.4812140000000  0.5406660000000 1.0
C      1  0.4534580000000  0.4638940000000  0.4768940000000 1.0
C      1  0.5041120000000  0.5202680000000  0.5720990000000 1.0
C      1  0.4390020000000  0.5141050000000  0.4696940000000 1.0
C      1  0.5536720000000  0.5145240000000  0.4634600000000 1.0
C      1  0.4605880000000  0.5613940000000  0.4282440000000 1.0
C      1  0.5804750000000  0.5595750000000  0.5056690000000 1.0
C      1  0.4581000000000  0.5618180000000  0.5704230000000 1.0
C      1  0.5450620000000  0.5398990000000  0.4761060000000 1.0
C      1  0.5076800000000  0.5428930000000  0.5555000000000 1.0
C      1  0.4498230000000  0.5402020000000  0.4731480000000 1.0
C      1  0.5132110000000  0.5867600000000  0.5233200000000 1.0
C      1  0.4710820000000  0.5846130000000  0.5003210000000 1.0
C      1  0.5140260000000  0.5780050000000  0.4747050000000 1.0
C      1  0.4379620000000  0.5668460000000  0.5295850000000 1.0
C      1  0.5062250000000  0.5678680000000  0.4276080000000 1.0
C      1  0.5515080000000  0.5637110000000  0.5370470000000 1.0
C      1  0.5558600000000  0.4736680000000  0.5594540000000 1.0
C      1  0.4204800000000  0.4766860000000  0.5177310000000 1.0
C      1  0.5242170000000  0.4775680000000  0.4233480000000 1.0
C      1  0.4656460000000  0.5713190000000  0.5257230000000 1.0
C      1  0.4969320000000  0.5811270000000  0.4501410000000 1.0
C      1  0.5384260000000  0.5753000000000  0.5165270000000 1.0
C      1  0.4899930000000  0.5394710000000  0.5326250000000 1.0
C      1  0.4786800000000  0.5388740000000  0.4700520000000 1.0
C      1  0.5173520000000  0.5471520000000  0.4803400000000 1.0
C      1  0.5563760000000  0.5226600000000  0.5101520000000 1.0
C      1  0.4663760000000  0.5226900000000  0.5413510000000 1.0
C      1  0.4829120000000  0.5212590000000  0.4455560000000 1.0
C      1  0.5487450000000  0.5440450000000  0.5764120000000 1.0
C      1  0.4105110000000  0.5480240000000  0.4899520000000 1.0
C      1  0.5539080000000  0.5472470000000  0.4292300000000 1.0
C      1  0.5885040000000  0.4644260000000  0.4956250000000 1.0
C      1  0.4599960000000  0.4643190000000  0.5810210000000 1.0
C      1  0.4468760000000  0.4657110000000  0.4209340000000 1.0
C      1  0.5432040000000  0.4992670000000  0.5046640000000 1.0
C      1  0.4709340000000  0.4971370000000  0.5312490000000 1.0
C      1  0.4842670000000  0.4904890000000  0.4567720000000 1.0
C      1  0.4283850000000  0.4232320000000  0.4691800000000 1.0
C      1  0.5648590000000  0.4216950000000  0.4508130000000 1.0
C      1  0.5113300000000  0.4245580000000  0.5775380000000 1.0
C      1  0.4321730000000  0.5623540000000  0.4747770000000 1.0
C      1  0.5586150000000  0.5592300000000  0.4567720000000 1.0
C      1  0.5192570000000  0.5698950000000  0.5732390000000 1.0
C      1  0.4905600000000  0.4982510000000  0.6032380000000 1.0
C      1  0.4138130000000  0.4976630000000  0.4408630000000 1.0
C      1  0.5925250000000  0.4988200000000  0.4583980000000 1.0
C      1  0.4848980000000  0.5550310000000  0.4131820000000 1.0
C      1  0.5772020000000  0.5525080000000  0.5341530000000 1.0
C      1  0.4337390000000  0.5550630000000  0.5554810000000 1.0
C      1  0.5245140000000  0.3996310000000  0.4848420000000 1.0
C      1  0.5022810000000  0.4001330000000  0.5278770000000 1.0
C      1  0.4753810000000  0.4005590000000  0.4879290000000 1.0
C      1  0.4641380000000  0.4440560000000  0.5607190000000 1.0
C      1  0.4651260000000  0.4475950000000  0.4335780000000 1.0
C      1  0.5690210000000  0.4433490000000  0.5015580000000 1.0
C      1  0.5083890000000  0.5214200000000  0.4912710000000 1.0
C      1  0.5090270000000  0.5212230000000  0.5197980000000 1.0
C      1  0.4805690000000  0.5198490000000  0.4915420000000 1.0
C      1  0.5292640000000  0.4095670000000  0.5334670000000 1.0
C      1  0.4569400000000  0.4095880000000  0.5083590000000 1.0
C      1  0.5159210000000  0.4089560000000  0.4587770000000 1.0
C      1  0.4340470000000  0.4779870000000  0.5715190000000 1.0
C      1  0.4708720000000  0.4780340000000  0.4050360000000 1.0
C      1  0.5945020000000  0.4806090000000  0.5231690000000 1.0
C      1  0.5424730000000  0.4586590000000  0.5090330000000 1.0
C      1  0.4746510000000  0.4575640000000  0.5367010000000 1.0
C      1  0.4853370000000  0.4622850000000  0.4483610000000 1.0
C      1  0.4348710000000  0.5232410000000  0.5252200000000 1.0
C      1  0.5111350000000  0.5236120000000  0.4294030000000 1.0
C      1  0.5504360000000  0.5196750000000  0.5394570000000 1.0
C      1  0.4365090000000  0.5002550000000  0.5062450000000 1.0
C      1  0.5255820000000  0.5008080000000  0.4434290000000 1.0
C      1  0.5387910000000  0.4943340000000  0.5470440000000 1.0
C      1  0.4989890000000  0.5899360000000  0.4992040000000 1.0
C      1  0.5005000000000  0.3917510000000  0.5000390000000 1.0
END
