TITL C-2441167-4473-1386 0.0856341063892734 125000 -12215.0763951931 0 0 103 (C1) n - 1
REM
REM in /home/bkarasulu/work/CARBON/AIRSS/Generating-Clusters/ReaxFF-fromJPCA2015/Units_Real/with-SteepDescent/Higher-Symm
REM
REM
REM
REM
REM
REM ./C.cell (1df0a924f5614ab8850e4351716899ee)
REM
REM compiler GCC version 9.2.1 20190827 (Red Hat 9.2.1-1)
REM options -cpp -mtune=generic -march=x86-64 -g -O0 -fpre-include=/usr/include/finclude/math-vector-fortran.h
REM seed 686631813 -1834539045 -1010262311 -2109474812 2064096603 -5582234 1321608986 2040032916 -1516738649 1246180955 -595646917 1319784307 -1073513681 -1174139727 -827171965 -1293667454 883729954 -379357306 -551329152 1192852884 -468613163 1712654644 -2139348486 -493263107 -1664602454 1532386763 998849136 797203508 -649799016 1659089228 1768428917 473605461 147436039
REM
CELL 1.54180   50.00000   50.00000   50.00000   90.00000   90.00000   90.00000
LATT -1
SFAC C  
C      1  0.4700790000000  0.5418360000000  0.4529640000000 1.0
C      1  0.5340670000000  0.5079640000000  0.4360330000000 1.0
C      1  0.4617180000000  0.4615960000000  0.4300250000000 1.0
C      1  0.5340570000000  0.4413260000000  0.4731150000000 1.0
C      1  0.4550720000000  0.4223060000000  0.5114990000000 1.0
C      1  0.5317610000000  0.4569210000000  0.5514320000000 1.0
C      1  0.4705120000000  0.4935750000000  0.5641210000000 1.0
C      1  0.5322820000000  0.5293320000000  0.5578080000000 1.0
C      1  0.4719420000000  0.5612070000000  0.5296680000000 1.0
C      1  0.5288620000000  0.5630120000000  0.4865020000000 1.0
C      1  0.5064460000000  0.5223760000000  0.5379210000000 1.0
C      1  0.4953370000000  0.5401230000000  0.5181640000000 1.0
C      1  0.5093760000000  0.5393350000000  0.4906390000000 1.0
C      1  0.4952770000000  0.5305780000000  0.4646550000000 1.0
C      1  0.5097100000000  0.5074830000000  0.4539970000000 1.0
C      1  0.5010800000000  0.4839980000000  0.4703240000000 1.0
C      1  0.5112130000000  0.4585110000000  0.4818560000000 1.0
C      1  0.5014920000000  0.4670260000000  0.5085740000000 1.0
C      1  0.5139970000000  0.4758140000000  0.5360240000000 1.0
C      1  0.4946850000000  0.4971500000000  0.5473480000000 1.0
C      1  0.4625680000000  0.5264910000000  0.5455180000000 1.0
C      1  0.5351470000000  0.5628310000000  0.5334360000000 1.0
C      1  0.4671200000000  0.5605020000000  0.4896390000000 1.0
C      1  0.5420820000000  0.5459460000000  0.4481460000000 1.0
C      1  0.4634080000000  0.5020200000000  0.4485720000000 1.0
C      1  0.5308600000000  0.4704260000000  0.4457210000000 1.0
C      1  0.4651450000000  0.4485970000000  0.4732100000000 1.0
C      1  0.5394910000000  0.4438030000000  0.5132470000000 1.0
C      1  0.4691520000000  0.4592500000000  0.5386860000000 1.0
C      1  0.5401570000000  0.4905990000000  0.5797930000000 1.0
C      1  0.4968830000000  0.5256560000000  0.4145480000000 1.0
C      1  0.5096440000000  0.4728540000000  0.4245310000000 1.0
C      1  0.4978310000000  0.4292690000000  0.4494390000000 1.0
C      1  0.5047600000000  0.4139540000000  0.5002800000000 1.0
C      1  0.4974170000000  0.4319690000000  0.5494540000000 1.0
C      1  0.4998460000000  0.4719250000000  0.5846260000000 1.0
C      1  0.4931080000000  0.5312160000000  0.5835730000000 1.0
C      1  0.5109480000000  0.5686880000000  0.5468710000000 1.0
C      1  0.4943510000000  0.5855180000000  0.4998430000000 1.0
C      1  0.5040880000000  0.5705210000000  0.4488300000000 1.0
C      1  0.4766150000000  0.4075450000000  0.4957640000000 1.0
C      1  0.5223450000000  0.4161880000000  0.5483450000000 1.0
C      1  0.4763450000000  0.4586150000000  0.5863010000000 1.0
C      1  0.5188240000000  0.5256360000000  0.5871650000000 1.0
C      1  0.4715490000000  0.5696830000000  0.5592930000000 1.0
C      1  0.5212500000000  0.5962420000000  0.5093490000000 1.0
C      1  0.4787140000000  0.5846120000000  0.4531250000000 1.0
C      1  0.5212510000000  0.5404940000000  0.4093580000000 1.0
C      1  0.4713210000000  0.4803600000000  0.4099230000000 1.0
C      1  0.5228080000000  0.4289580000000  0.4341550000000 1.0
C      1  0.5140280000000  0.4963630000000  0.5922000000000 1.0
C      1  0.4947910000000  0.5562760000000  0.5713190000000 1.0
C      1  0.5019650000000  0.5889230000000  0.5289540000000 1.0
C      1  0.5000060000000  0.5893220000000  0.4714050000000 1.0
C      1  0.5010690000000  0.5545320000000  0.4246740000000 1.0
C      1  0.4958990000000  0.4958930000000  0.4134140000000 1.0
C      1  0.5012030000000  0.4450860000000  0.4240230000000 1.0
C      1  0.4944080000000  0.4113000000000  0.4724440000000 1.0
C      1  0.5024070000000  0.4111700000000  0.5290900000000 1.0
C      1  0.4973530000000  0.4435800000000  0.5765520000000 1.0
C      1  0.5661620000000  0.5312010000000  0.4783720000000 1.0
C      1  0.4254850000000  0.5180920000000  0.4619080000000 1.0
C      1  0.5687690000000  0.4880980000000  0.4612130000000 1.0
C      1  0.4296900000000  0.4691010000000  0.4750820000000 1.0
C      1  0.5746300000000  0.4556920000000  0.4968610000000 1.0
C      1  0.4297350000000  0.4619200000000  0.5258230000000 1.0
C      1  0.5640650000000  0.4889090000000  0.5469120000000 1.0
C      1  0.4279950000000  0.5086180000000  0.5434840000000 1.0
C      1  0.5715080000000  0.5364570000000  0.5283990000000 1.0
C      1  0.4322000000000  0.5426690000000  0.5015550000000 1.0
C      1  0.5415910000000  0.5758980000000  0.5084100000000 1.0
C      1  0.4589780000000  0.5663730000000  0.4628840000000 1.0
C      1  0.5462380000000  0.5322100000000  0.4242320000000 1.0
C      1  0.4495130000000  0.4878130000000  0.4274260000000 1.0
C      1  0.5436860000000  0.4461750000000  0.4460290000000 1.0
C      1  0.4456680000000  0.4341840000000  0.4882030000000 1.0
C      1  0.5433530000000  0.4337280000000  0.5399470000000 1.0
C      1  0.4586370000000  0.4663990000000  0.5657010000000 1.0
C      1  0.5536060000000  0.5097210000000  0.5637100000000 1.0
C      1  0.4523470000000  0.5502130000000  0.5499030000000 1.0
C      1  0.5536750000000  0.5472430000000  0.5482160000000 1.0
C      1  0.4481290000000  0.5664340000000  0.5103440000000 1.0
C      1  0.5531030000000  0.5578370000000  0.4708390000000 1.0
C      1  0.4474430000000  0.5253570000000  0.4434520000000 1.0
C      1  0.5518340000000  0.4847940000000  0.4359190000000 1.0
C      1  0.4451710000000  0.4548870000000  0.4526500000000 1.0
C      1  0.5554710000000  0.4331850000000  0.4912210000000 1.0
C      1  0.4473350000000  0.4398900000000  0.5356690000000 1.0
C      1  0.5532950000000  0.4692280000000  0.5653580000000 1.0
C      1  0.4485860000000  0.5129280000000  0.5644700000000 1.0
C      1  0.4576860000000  0.5252120000000  0.4954970000000 1.0
C      1  0.5390400000000  0.5190400000000  0.4857800000000 1.0
C      1  0.4618610000000  0.5028360000000  0.4767350000000 1.0
C      1  0.5431750000000  0.4892870000000  0.4769550000000 1.0
C      1  0.4583100000000  0.4763420000000  0.4878120000000 1.0
C      1  0.5474360000000  0.4717390000000  0.5042660000000 1.0
C      1  0.4558960000000  0.4791060000000  0.5194800000000 1.0
C      1  0.5442990000000  0.4899970000000  0.5249810000000 1.0
C      1  0.4538180000000  0.5101640000000  0.5237780000000 1.0
C      1  0.5503370000000  0.5154480000000  0.5127760000000 1.0
C      1  0.4192930000000  0.4965960000000  0.4814150000000 1.0
C      1  0.5788830000000  0.5114420000000  0.4967270000000 1.0
C      1  0.4951890000000  0.4943110000000  0.4986840000000 1.0
END
