TITL C-2441158-471-962 0.0413631079690736 125000 -14541.8924689278 0 0 102 (C1) n - 1
REM
REM in /home/bkarasulu/work/CARBON/AIRSS/Generating-Clusters/ReaxFF-fromJPCA2015/Units_Real/with-SteepDescent/Higher-Symm
REM
REM
REM
REM
REM
REM ./C.cell (1df0a924f5614ab8850e4351716899ee)
REM
REM compiler GCC version 9.2.1 20190827 (Red Hat 9.2.1-1)
REM options -cpp -mtune=generic -march=x86-64 -g -O0 -fpre-include=/usr/include/finclude/math-vector-fortran.h
REM seed -924399741 -979553255 1539151497 -821020270 -2056047898 787712545 -1775624035 -2050001393 -1010189689 793452057 -1824452387 -873828305 -300355870 1499519167 1590375430 689389086 -243304402 953930827 1634901627 71889282 1703771615 244318859 -2056779839 -1450895730 1441661811 708762664 -690641555 533593297 1448938119 -1430463327 -1503021349 -1347670303 978891555
REM
CELL 1.54180   50.00000   50.00000   50.00000   90.00000   90.00000   90.00000
LATT -1
SFAC C  
C      1  0.4667810000000  0.5235880000000  0.5869680000000 1.0
C      1  0.4679160000000  0.4725460000000  0.5865990000000 1.0
C      1  0.4664380000000  0.4299780000000  0.5581720000000 1.0
C      1  0.4679670000000  0.4111850000000  0.5103370000000 1.0
C      1  0.4687110000000  0.4232860000000  0.4640410000000 1.0
C      1  0.4672820000000  0.4537880000000  0.4243590000000 1.0
C      1  0.4679730000000  0.5004220000000  0.4107930000000 1.0
C      1  0.4662680000000  0.5490630000000  0.4258010000000 1.0
C      1  0.4677340000000  0.5850850000000  0.4632860000000 1.0
C      1  0.4680940000000  0.5873890000000  0.5143710000000 1.0
C      1  0.4685770000000  0.5662050000000  0.5587450000000 1.0
C      1  0.5089880000000  0.5736570000000  0.4385400000000 1.0
C      1  0.5097150000000  0.5948290000000  0.4885970000000 1.0
C      1  0.5116750000000  0.5856410000000  0.5409940000000 1.0
C      1  0.5099050000000  0.5487980000000  0.5797770000000 1.0
C      1  0.5099220000000  0.4972840000000  0.5940660000000 1.0
C      1  0.5094560000000  0.4460570000000  0.5790520000000 1.0
C      1  0.5088620000000  0.4113630000000  0.5372500000000 1.0
C      1  0.5106640000000  0.4048760000000  0.4845370000000 1.0
C      1  0.5085590000000  0.4296880000000  0.4363550000000 1.0
C      1  0.5103100000000  0.4746410000000  0.4070330000000 1.0
C      1  0.5092270000000  0.5283810000000  0.4095330000000 1.0
C      1  0.4799260000000  0.5731210000000  0.4390350000000 1.0
C      1  0.4804000000000  0.5940660000000  0.4887310000000 1.0
C      1  0.4824680000000  0.5839390000000  0.5398900000000 1.0
C      1  0.4806850000000  0.5490530000000  0.5789000000000 1.0
C      1  0.4809740000000  0.4981790000000  0.5940590000000 1.0
C      1  0.4805500000000  0.4467020000000  0.5784910000000 1.0
C      1  0.4798240000000  0.4132970000000  0.5366400000000 1.0
C      1  0.4821050000000  0.4069900000000  0.4855790000000 1.0
C      1  0.4799030000000  0.4318060000000  0.4375080000000 1.0
C      1  0.4814100000000  0.4746850000000  0.4096370000000 1.0
C      1  0.4802200000000  0.5269750000000  0.4114090000000 1.0
C      1  0.4414180000000  0.4219690000000  0.5019470000000 1.0
C      1  0.4416560000000  0.4273200000000  0.4735180000000 1.0
C      1  0.4422060000000  0.4657960000000  0.4312500000000 1.0
C      1  0.4428000000000  0.4928030000000  0.4233970000000 1.0
C      1  0.4418880000000  0.5383050000000  0.4357180000000 1.0
C      1  0.4504160000000  0.5625010000000  0.4680120000000 1.0
C      1  0.4414370000000  0.5753140000000  0.5189560000000 1.0
C      1  0.4422800000000  0.5625170000000  0.5454000000000 1.0
C      1  0.4431970000000  0.5217460000000  0.5713230000000 1.0
C      1  0.4449680000000  0.4797040000000  0.5716330000000 1.0
C      1  0.4437230000000  0.4440150000000  0.5491980000000 1.0
C      1  0.4258360000000  0.5520830000000  0.5079740000000 1.0
C      1  0.4283840000000  0.5383280000000  0.5347120000000 1.0
C      1  0.4241660000000  0.5145770000000  0.5523860000000 1.0
C      1  0.4273000000000  0.4833660000000  0.5512370000000 1.0
C      1  0.4248270000000  0.4574240000000  0.5340980000000 1.0
C      1  0.4268820000000  0.4475220000000  0.5063480000000 1.0
C      1  0.4276350000000  0.4528940000000  0.4771540000000 1.0
C      1  0.4268310000000  0.4717510000000  0.4552450000000 1.0
C      1  0.4285180000000  0.5006330000000  0.4481750000000 1.0
C      1  0.4237960000000  0.5292260000000  0.4553700000000 1.0
C      1  0.4277360000000  0.5485220000000  0.4790190000000 1.0
C      1  0.5178480000000  0.5774480000000  0.4664100000000 1.0
C      1  0.5212370000000  0.5843850000000  0.5133790000000 1.0
C      1  0.5210350000000  0.5627710000000  0.5566340000000 1.0
C      1  0.5182220000000  0.5207010000000  0.5781660000000 1.0
C      1  0.5203190000000  0.4732380000000  0.5810680000000 1.0
C      1  0.5182180000000  0.4341720000000  0.5535450000000 1.0
C      1  0.5208690000000  0.4124740000000  0.5107930000000 1.0
C      1  0.5201830000000  0.4219360000000  0.4623410000000 1.0
C      1  0.5202350000000  0.4543150000000  0.4256210000000 1.0
C      1  0.5206060000000  0.5016120000000  0.4120610000000 1.0
C      1  0.5199510000000  0.5481620000000  0.4287900000000 1.0
C      1  0.4818110000000  0.4633090000000  0.5304410000000 1.0
C      1  0.4753910000000  0.4631830000000  0.5033800000000 1.0
C      1  0.4742260000000  0.4546070000000  0.4778890000000 1.0
C      1  0.4748470000000  0.4773490000000  0.4632710000000 1.0
C      1  0.4757050000000  0.5005400000000  0.4562310000000 1.0
C      1  0.4754790000000  0.5186620000000  0.4709440000000 1.0
C      1  0.4775040000000  0.5445530000000  0.4791870000000 1.0
C      1  0.4734270000000  0.5395930000000  0.5062300000000 1.0
C      1  0.4737480000000  0.5295610000000  0.5267680000000 1.0
C      1  0.4815740000000  0.5098560000000  0.5439490000000 1.0
C      1  0.4742440000000  0.4899220000000  0.5342200000000 1.0
C      1  0.5116620000000  0.5505640000000  0.4772150000000 1.0
C      1  0.5243530000000  0.5554710000000  0.5073890000000 1.0
C      1  0.5238290000000  0.5407340000000  0.5368630000000 1.0
C      1  0.5118900000000  0.5126940000000  0.5505340000000 1.0
C      1  0.5246000000000  0.4821250000000  0.5528750000000 1.0
C      1  0.5125080000000  0.4570840000000  0.5361450000000 1.0
C      1  0.5251870000000  0.4422310000000  0.5086720000000 1.0
C      1  0.5249260000000  0.4456500000000  0.4784830000000 1.0
C      1  0.5240220000000  0.4715270000000  0.4493260000000 1.0
C      1  0.5249960000000  0.4994650000000  0.4412740000000 1.0
C      1  0.5251370000000  0.5354630000000  0.4546710000000 1.0
C      1  0.5572920000000  0.5134510000000  0.5447030000000 1.0
C      1  0.5549400000000  0.4866870000000  0.5496210000000 1.0
C      1  0.5650610000000  0.4738420000000  0.5246460000000 1.0
C      1  0.5541750000000  0.4522120000000  0.5091080000000 1.0
C      1  0.5528750000000  0.4541280000000  0.4804200000000 1.0
C      1  0.5512140000000  0.4736960000000  0.4595880000000 1.0
C      1  0.5529640000000  0.5002290000000  0.4505620000000 1.0
C      1  0.5552130000000  0.5282830000000  0.4593020000000 1.0
C      1  0.5582500000000  0.5387580000000  0.4840750000000 1.0
C      1  0.5549590000000  0.5501350000000  0.5075760000000 1.0
C      1  0.5544800000000  0.5387490000000  0.5361850000000 1.0
C      1  0.5679870000000  0.4959350000000  0.5031130000000 1.0
C      1  0.5385980000000  0.4983400000000  0.5007040000000 1.0
C      1  0.5144250000000  0.5001570000000  0.4986450000000 1.0
END
