TITL C-2441161-5029-97 0.0520154654068622 125000 -13092.6475608803 0 0 99 (C1) n - 1
REM
REM in /home/bkarasulu/work/CARBON/AIRSS/Generating-Clusters/ReaxFF-fromJPCA2015/Units_Real/with-SteepDescent/Higher-Symm
REM
REM
REM
REM
REM
REM ./C.cell (1df0a924f5614ab8850e4351716899ee)
REM
REM compiler GCC version 9.2.1 20190827 (Red Hat 9.2.1-1)
REM options -cpp -mtune=generic -march=x86-64 -g -O0 -fpre-include=/usr/include/finclude/math-vector-fortran.h
REM seed 1886315343 2014286624 -1078874135 302211871 -1995670024 211614402 1353967007 -895689733 -576206026 127094357 1905281239 -1652601323 1089595836 -535029107 1218783662 460507957 111537526 1287261251 -1324494170 -2041526543 -1927076010 1473971184 1084154060 1188651830 -1265165605 -943130927 745868097 610850602 682260812 -1657317680 -149309863 1655562454 1072035245
REM
CELL 1.54180   50.00000   50.00000   50.00000   90.00000   90.00000   90.00000
LATT -1
SFAC C  
C      1  0.5378830000000  0.4615630000000  0.4731940000000 1.0
C      1  0.5285310000000  0.5264650000000  0.4777200000000 1.0
C      1  0.5087450000000  0.5434830000000  0.5567660000000 1.0
C      1  0.5110420000000  0.4509480000000  0.5551400000000 1.0
C      1  0.4438960000000  0.4745320000000  0.4521760000000 1.0
C      1  0.4436480000000  0.5280050000000  0.4547700000000 1.0
C      1  0.5506680000000  0.4475480000000  0.4955810000000 1.0
C      1  0.5559800000000  0.5638460000000  0.4908500000000 1.0
C      1  0.4448660000000  0.4529480000000  0.4931230000000 1.0
C      1  0.4382600000000  0.5541720000000  0.4951220000000 1.0
C      1  0.4670900000000  0.5193930000000  0.5747570000000 1.0
C      1  0.4715030000000  0.4775750000000  0.5780060000000 1.0
C      1  0.5005100000000  0.5231140000000  0.5376910000000 1.0
C      1  0.5003580000000  0.4728130000000  0.5332230000000 1.0
C      1  0.4547420000000  0.5282610000000  0.4287500000000 1.0
C      1  0.4579510000000  0.4739550000000  0.4276990000000 1.0
C      1  0.4721090000000  0.4817110000000  0.5301870000000 1.0
C      1  0.4731010000000  0.5221640000000  0.5268950000000 1.0
C      1  0.4743960000000  0.5502880000000  0.4344500000000 1.0
C      1  0.4780350000000  0.4516010000000  0.4288350000000 1.0
C      1  0.5744130000000  0.4611020000000  0.5342020000000 1.0
C      1  0.5703550000000  0.5419970000000  0.5324670000000 1.0
C      1  0.5138070000000  0.5390260000000  0.4376080000000 1.0
C      1  0.5050720000000  0.4585460000000  0.4369380000000 1.0
C      1  0.5469370000000  0.4557810000000  0.5372840000000 1.0
C      1  0.5432020000000  0.5471640000000  0.5332900000000 1.0
C      1  0.5261460000000  0.4383770000000  0.5080460000000 1.0
C      1  0.5323760000000  0.5734250000000  0.5005810000000 1.0
C      1  0.5576770000000  0.5505730000000  0.4657470000000 1.0
C      1  0.5631790000000  0.4644290000000  0.4571750000000 1.0
C      1  0.4393860000000  0.5473700000000  0.5442840000000 1.0
C      1  0.4401960000000  0.4545990000000  0.5437420000000 1.0
C      1  0.5041060000000  0.4580130000000  0.5074160000000 1.0
C      1  0.5103060000000  0.5277080000000  0.4987790000000 1.0
C      1  0.5988080000000  0.5148510000000  0.5109240000000 1.0
C      1  0.5966630000000  0.4871420000000  0.5152400000000 1.0
C      1  0.5049870000000  0.5863460000000  0.5271780000000 1.0
C      1  0.5093360000000  0.4048480000000  0.5193100000000 1.0
C      1  0.5312330000000  0.4764670000000  0.5677140000000 1.0
C      1  0.5303830000000  0.5284870000000  0.5701800000000 1.0
C      1  0.4499330000000  0.4412330000000  0.5199840000000 1.0
C      1  0.4478790000000  0.5602980000000  0.5205720000000 1.0
C      1  0.4624350000000  0.5458880000000  0.5624480000000 1.0
C      1  0.4623390000000  0.4544870000000  0.5639190000000 1.0
C      1  0.4744080000000  0.4341710000000  0.4521270000000 1.0
C      1  0.4755270000000  0.5684150000000  0.4595450000000 1.0
C      1  0.5795460000000  0.4727070000000  0.4797100000000 1.0
C      1  0.5757640000000  0.5301080000000  0.4774490000000 1.0
C      1  0.4533560000000  0.5510190000000  0.4708950000000 1.0
C      1  0.4518120000000  0.4488500000000  0.4645220000000 1.0
C      1  0.4917740000000  0.5789940000000  0.5025380000000 1.0
C      1  0.4917440000000  0.4178700000000  0.5011970000000 1.0
C      1  0.4226680000000  0.4762710000000  0.5370240000000 1.0
C      1  0.4218420000000  0.5254990000000  0.5369500000000 1.0
C      1  0.5115550000000  0.5197310000000  0.4158920000000 1.0
C      1  0.5062510000000  0.4779950000000  0.4154890000000 1.0
C      1  0.4908070000000  0.4711890000000  0.4614460000000 1.0
C      1  0.4897850000000  0.5320160000000  0.4517270000000 1.0
C      1  0.4750700000000  0.5601090000000  0.5223330000000 1.0
C      1  0.4763580000000  0.4305760000000  0.5245190000000 1.0
C      1  0.5833240000000  0.5393100000000  0.5054320000000 1.0
C      1  0.5768970000000  0.4561850000000  0.5048470000000 1.0
C      1  0.4094000000000  0.5467680000000  0.4908170000000 1.0
C      1  0.4142860000000  0.4551400000000  0.4905910000000 1.0
C      1  0.5258760000000  0.5498370000000  0.4624040000000 1.0
C      1  0.5190270000000  0.4431010000000  0.4605850000000 1.0
C      1  0.4124720000000  0.5224630000000  0.5086640000000 1.0
C      1  0.4117700000000  0.4784400000000  0.5089870000000 1.0
C      1  0.4972960000000  0.4268300000000  0.4701090000000 1.0
C      1  0.5004150000000  0.5708380000000  0.4749910000000 1.0
C      1  0.4865250000000  0.5304670000000  0.4804510000000 1.0
C      1  0.4843030000000  0.4613590000000  0.4876490000000 1.0
C      1  0.5309150000000  0.5748200000000  0.5295170000000 1.0
C      1  0.5274710000000  0.4341890000000  0.5372660000000 1.0
C      1  0.5532910000000  0.5286560000000  0.5528900000000 1.0
C      1  0.5563120000000  0.4760810000000  0.5543840000000 1.0
C      1  0.4849320000000  0.5605160000000  0.5513890000000 1.0
C      1  0.4840640000000  0.4395390000000  0.5516940000000 1.0
C      1  0.4890250000000  0.5008330000000  0.4150290000000 1.0
C      1  0.4587620000000  0.5030070000000  0.5467200000000 1.0
C      1  0.4738360000000  0.5045040000000  0.4808460000000 1.0
C      1  0.5260660000000  0.5007750000000  0.4651470000000 1.0
C      1  0.5673880000000  0.4910190000000  0.4447260000000 1.0
C      1  0.4307610000000  0.5010240000000  0.5463250000000 1.0
C      1  0.4620110000000  0.5015210000000  0.4183000000000 1.0
C      1  0.5778130000000  0.5013040000000  0.4704340000000 1.0
C      1  0.5759570000000  0.5016200000000  0.5290350000000 1.0
C      1  0.5244620000000  0.5034030000000  0.5109590000000 1.0
C      1  0.5506510000000  0.5021180000000  0.5186850000000 1.0
C      1  0.5293540000000  0.4964780000000  0.4129700000000 1.0
C      1  0.4712270000000  0.5003060000000  0.5093390000000 1.0
C      1  0.4406730000000  0.5006120000000  0.4680720000000 1.0
C      1  0.5148470000000  0.4977080000000  0.5375490000000 1.0
C      1  0.4976440000000  0.4946950000000  0.4662430000000 1.0
C      1  0.4210720000000  0.5002590000000  0.4917040000000 1.0
C      1  0.4991600000000  0.5012580000000  0.5940970000000 1.0
C      1  0.4838770000000  0.4985520000000  0.5761430000000 1.0
C      1  0.5410730000000  0.5022560000000  0.4390000000000 1.0
C      1  0.5252810000000  0.5012720000000  0.5825260000000 1.0
END
