TITL C-2441165-58-896 0.00423457796936962 125000 -10014.7309673919 0 0 66 (C1) n - 1
REM
REM in /home/bkarasulu/work/CARBON/AIRSS/Generating-Clusters/ReaxFF-fromJPCA2015/Units_Real/with-SteepDescent/Higher-Symm
REM
REM
REM
REM
REM
REM ./C.cell (1df0a924f5614ab8850e4351716899ee)
REM
REM compiler GCC version 9.2.1 20190827 (Red Hat 9.2.1-1)
REM options -cpp -mtune=generic -march=x86-64 -g -O0 -fpre-include=/usr/include/finclude/math-vector-fortran.h
REM seed 376316610 -702593994 -1760607789 1491368943 -123480266 1955746686 -1482238788 -948540227 1023445643 853957784 1222228656 675995760 -2076276462 1686942750 -1254488223 1227453746 -2143925772 -1693728778 1215811212 -2015901482 1671468317 -1195890293 680444992 -899032022 1313829566 -2119847597 2066267262 1334367501 -186553156 1800636603 28776917 1891656709 1922831853
REM
CELL 1.54180   50.00000   50.00000   50.00000   90.00000   90.00000   90.00000
LATT -1
SFAC C  
C      1  0.5528410000000  0.4676520000000  0.4928650000000 1.0
C      1  0.5435580000000  0.5384790000000  0.4926640000000 1.0
C      1  0.4571800000000  0.5592450000000  0.4848520000000 1.0
C      1  0.4426740000000  0.4955280000000  0.4913050000000 1.0
C      1  0.4870470000000  0.4435970000000  0.4939870000000 1.0
C      1  0.5479090000000  0.5371450000000  0.4627870000000 1.0
C      1  0.4758770000000  0.5563110000000  0.4625890000000 1.0
C      1  0.4391000000000  0.4975340000000  0.4617890000000 1.0
C      1  0.4821890000000  0.4416060000000  0.4641310000000 1.0
C      1  0.5499980000000  0.4645530000000  0.4632900000000 1.0
C      1  0.4760160000000  0.4951110000000  0.4959940000000 1.0
C      1  0.4958950000000  0.4770170000000  0.4982780000000 1.0
C      1  0.5242620000000  0.4865980000000  0.5030330000000 1.0
C      1  0.5206750000000  0.5135260000000  0.4950700000000 1.0
C      1  0.4925720000000  0.5192030000000  0.4997140000000 1.0
C      1  0.5131900000000  0.4283520000000  0.5301720000000 1.0
C      1  0.5690410000000  0.4900870000000  0.5291000000000 1.0
C      1  0.5321480000000  0.5633010000000  0.5311110000000 1.0
C      1  0.4529920000000  0.5519770000000  0.5351070000000 1.0
C      1  0.4377580000000  0.4677740000000  0.5306720000000 1.0
C      1  0.5052640000000  0.4493300000000  0.4488740000000 1.0
C      1  0.5492330000000  0.4896940000000  0.4492830000000 1.0
C      1  0.5226810000000  0.5436340000000  0.4508490000000 1.0
C      1  0.4659880000000  0.5357420000000  0.4453250000000 1.0
C      1  0.4539620000000  0.4777790000000  0.4473530000000 1.0
C      1  0.4412990000000  0.5255170000000  0.4555860000000 1.0
C      1  0.4558910000000  0.4523280000000  0.4615780000000 1.0
C      1  0.5309220000000  0.4433050000000  0.4613720000000 1.0
C      1  0.5627610000000  0.5126040000000  0.4613820000000 1.0
C      1  0.5040630000000  0.5609670000000  0.4654830000000 1.0
C      1  0.5490900000000  0.4416160000000  0.5058710000000 1.0
C      1  0.5685440000000  0.5284150000000  0.5060470000000 1.0
C      1  0.4919000000000  0.5774970000000  0.5134960000000 1.0
C      1  0.4274060000000  0.5219180000000  0.5007880000000 1.0
C      1  0.4611090000000  0.4375400000000  0.5069550000000 1.0
C      1  0.4820700000000  0.5135810000000  0.5679080000000 1.0
C      1  0.4801060000000  0.4844820000000  0.5631230000000 1.0
C      1  0.5072210000000  0.4742260000000  0.5610860000000 1.0
C      1  0.5251510000000  0.4969020000000  0.5600870000000 1.0
C      1  0.5105160000000  0.5206710000000  0.5668290000000 1.0
C      1  0.5754110000000  0.4840000000000  0.5024110000000 1.0
C      1  0.5341170000000  0.5631800000000  0.5033250000000 1.0
C      1  0.4647700000000  0.5669950000000  0.5118060000000 1.0
C      1  0.4326990000000  0.4714780000000  0.5032780000000 1.0
C      1  0.5075380000000  0.4251700000000  0.5030080000000 1.0
C      1  0.5237780000000  0.4950910000000  0.4367770000000 1.0
C      1  0.5115850000000  0.5210260000000  0.4366410000000 1.0
C      1  0.4836280000000  0.5169360000000  0.4347430000000 1.0
C      1  0.4779600000000  0.4888910000000  0.4352030000000 1.0
C      1  0.5030450000000  0.4753340000000  0.4362300000000 1.0
C      1  0.5767500000000  0.5086100000000  0.4869940000000 1.0
C      1  0.5109730000000  0.5723260000000  0.4911550000000 1.0
C      1  0.4353190000000  0.5405170000000  0.4797100000000 1.0
C      1  0.4431110000000  0.4492860000000  0.4880200000000 1.0
C      1  0.5312880000000  0.4291030000000  0.4871360000000 1.0
C      1  0.5634110000000  0.5165980000000  0.5316150000000 1.0
C      1  0.5062680000000  0.5718120000000  0.5376940000000 1.0
C      1  0.4345120000000  0.5346530000000  0.5241390000000 1.0
C      1  0.4551650000000  0.4463190000000  0.5337290000000 1.0
C      1  0.5383510000000  0.4399590000000  0.5325650000000 1.0
C      1  0.4680290000000  0.5273170000000  0.5452560000000 1.0
C      1  0.4595880000000  0.4708240000000  0.5480950000000 1.0
C      1  0.5149630000000  0.4524950000000  0.5434660000000 1.0
C      1  0.5416010000000  0.4955410000000  0.5342140000000 1.0
C      1  0.5149400000000  0.5413620000000  0.5437680000000 1.0
C      1  0.4919230000000  0.5271400000000  0.5285280000000 1.0
END
