TITL C-2441154-10-1154 0.00122768815072348 125000 -3343.75619536557 0 0 25 (C1) n - 1
REM
REM in /home/bkarasulu/work/CARBON/AIRSS/Generating-Clusters/ReaxFF-fromJPCA2015/Units_Real/with-SteepDescent/Higher-Symm
REM
REM
REM
REM
REM
REM ./C.cell (1df0a924f5614ab8850e4351716899ee)
REM
REM compiler GCC version 9.2.1 20190827 (Red Hat 9.2.1-1)
REM options -cpp -mtune=generic -march=x86-64 -g -O0 -fpre-include=/usr/include/finclude/math-vector-fortran.h
REM seed 2010770101 -1807428383 -388117107 -1907883942 -40064303 -2100925877 2038036666 1446898056 -1504442351 592828552 1748840240 -1456455067 -501870243 -472088791 -1023114480 1342959985 844236798 -2109497608 325885973 -1628602303 1679423451 183945717 285052738 -1679554292 -1028306532 1207114513 40782456 -199251086 -837768371 1420382325 -2077768956 328772580 866613308
REM
CELL 1.54180   50.00000   50.00000   50.00000   90.00000   90.00000   90.00000
LATT -1
SFAC C  
C      1  0.4945700000000  0.5443920000000  0.4757900000000 1.0
C      1  0.5293540000000  0.4921960000000  0.4432330000000 1.0
C      1  0.4655810000000  0.4600730000000  0.5466060000000 1.0
C      1  0.5003090000000  0.4921180000000  0.5323030000000 1.0
C      1  0.4864910000000  0.4648300000000  0.5333300000000 1.0
C      1  0.4630950000000  0.5453730000000  0.5020220000000 1.0
C      1  0.4475210000000  0.5002890000000  0.4996740000000 1.0
C      1  0.5012090000000  0.4420180000000  0.5131510000000 1.0
C      1  0.5231540000000  0.5504360000000  0.5419180000000 1.0
C      1  0.5013400000000  0.5432040000000  0.5286390000000 1.0
C      1  0.4655450000000  0.5374010000000  0.4750030000000 1.0
C      1  0.5521040000000  0.5074760000000  0.5141430000000 1.0
C      1  0.5498540000000  0.4783420000000  0.5140310000000 1.0
C      1  0.5502380000000  0.4564300000000  0.4891730000000 1.0
C      1  0.4853840000000  0.5160430000000  0.5317000000000 1.0
C      1  0.4733590000000  0.4907020000000  0.4550010000000 1.0
C      1  0.4894240000000  0.5550090000000  0.5027300000000 1.0
C      1  0.4564310000000  0.5089420000000  0.4721990000000 1.0
C      1  0.5023210000000  0.4966520000000  0.4588320000000 1.0
C      1  0.5393390000000  0.5182340000000  0.4538830000000 1.0
C      1  0.5295850000000  0.4922010000000  0.5300450000000 1.0
C      1  0.4601680000000  0.5204950000000  0.5180380000000 1.0
C      1  0.5265650000000  0.4450440000000  0.4981400000000 1.0
C      1  0.5121080000000  0.5219300000000  0.4687490000000 1.0
C      1  0.4949520000000  0.4201720000000  0.5016660000000 1.0
END
