TITL C-2441163-1170-599 0.0490948695901207 125000 -14698.3410683388 0 0 107 (C1) n - 1
REM
REM in /home/bkarasulu/work/CARBON/AIRSS/Generating-Clusters/ReaxFF-fromJPCA2015/Units_Real/with-SteepDescent/Higher-Symm
REM
REM
REM
REM
REM
REM ./C.cell (1df0a924f5614ab8850e4351716899ee)
REM
REM compiler GCC version 9.2.1 20190827 (Red Hat 9.2.1-1)
REM options -cpp -mtune=generic -march=x86-64 -g -O0 -fpre-include=/usr/include/finclude/math-vector-fortran.h
REM seed 1535273374 551998652 419535580 1580178807 1976128170 -1365927061 -1461721035 -207447649 -443946306 -13964330 1183981703 -1290874169 -509954549 654963835 762224984 -1432004961 -233935063 1995001436 159750676 990499012 549225044 -1804949777 595818778 -640418604 -1668844122 1131282 1385755088 -319846970 92421081 -2106851759 -2067321491 -1999952400 -1574319352
REM
CELL 1.54180   50.00000   50.00000   50.00000   90.00000   90.00000   90.00000
LATT -1
SFAC C  
C      1  0.4120690000000  0.5337750000000  0.5217050000000 1.0
C      1  0.4478220000000  0.4985860000000  0.5678910000000 1.0
C      1  0.5734310000000  0.4554150000000  0.4713740000000 1.0
C      1  0.5269290000000  0.4938250000000  0.5092700000000 1.0
C      1  0.5730500000000  0.5276580000000  0.4728650000000 1.0
C      1  0.5370550000000  0.5042190000000  0.5988530000000 1.0
C      1  0.5249780000000  0.5036320000000  0.4655730000000 1.0
C      1  0.5090720000000  0.4920040000000  0.4128340000000 1.0
C      1  0.5178830000000  0.4534730000000  0.4785270000000 1.0
C      1  0.4740610000000  0.5016120000000  0.4493260000000 1.0
C      1  0.4343840000000  0.4714530000000  0.5072240000000 1.0
C      1  0.5350970000000  0.4304990000000  0.4612800000000 1.0
C      1  0.4712350000000  0.5471320000000  0.4379780000000 1.0
C      1  0.4500170000000  0.4300590000000  0.5066100000000 1.0
C      1  0.5338650000000  0.4611990000000  0.4262230000000 1.0
C      1  0.5264060000000  0.4651900000000  0.5041550000000 1.0
C      1  0.4862500000000  0.4853940000000  0.5348160000000 1.0
C      1  0.4317920000000  0.4818430000000  0.5520480000000 1.0
C      1  0.5166710000000  0.5011990000000  0.5350930000000 1.0
C      1  0.5526870000000  0.5064750000000  0.4743590000000 1.0
C      1  0.5473840000000  0.5117270000000  0.5005910000000 1.0
C      1  0.4868410000000  0.5631440000000  0.5215590000000 1.0
C      1  0.4913840000000  0.4204770000000  0.5375870000000 1.0
C      1  0.4712300000000  0.5061810000000  0.4209600000000 1.0
C      1  0.5068590000000  0.5075680000000  0.5969460000000 1.0
C      1  0.4391570000000  0.4361740000000  0.5305480000000 1.0
C      1  0.5467760000000  0.4217430000000  0.4867690000000 1.0
C      1  0.5216070000000  0.4130250000000  0.4986200000000 1.0
C      1  0.4760340000000  0.5375270000000  0.5681580000000 1.0
C      1  0.4762820000000  0.5271880000000  0.4579620000000 1.0
C      1  0.4343870000000  0.5504730000000  0.4757320000000 1.0
C      1  0.5850880000000  0.5037540000000  0.5169310000000 1.0
C      1  0.4734450000000  0.4815380000000  0.5672520000000 1.0
C      1  0.5078790000000  0.4435490000000  0.5730890000000 1.0
C      1  0.4849400000000  0.4288490000000  0.4577590000000 1.0
C      1  0.4670880000000  0.5015770000000  0.5199120000000 1.0
C      1  0.4316530000000  0.5402740000000  0.5424960000000 1.0
C      1  0.5456410000000  0.4910320000000  0.5511030000000 1.0
C      1  0.4630040000000  0.5727720000000  0.5276820000000 1.0
C      1  0.5686250000000  0.4557500000000  0.5237450000000 1.0
C      1  0.5423170000000  0.5328350000000  0.4322740000000 1.0
C      1  0.5420030000000  0.5447940000000  0.5412560000000 1.0
C      1  0.5445230000000  0.5881330000000  0.4895010000000 1.0
C      1  0.5369230000000  0.5524520000000  0.4727870000000 1.0
C      1  0.4962320000000  0.5476900000000  0.5440590000000 1.0
C      1  0.4808630000000  0.4631360000000  0.5158720000000 1.0
C      1  0.5697820000000  0.4835290000000  0.5321590000000 1.0
C      1  0.4355020000000  0.4932510000000  0.5241160000000 1.0
C      1  0.5718700000000  0.5280830000000  0.5028470000000 1.0
C      1  0.4282350000000  0.5246870000000  0.4420520000000 1.0
C      1  0.4650780000000  0.4534750000000  0.5649430000000 1.0
C      1  0.5348210000000  0.5730780000000  0.5412700000000 1.0
C      1  0.5285900000000  0.5807280000000  0.4667500000000 1.0
C      1  0.4778080000000  0.4496150000000  0.4394110000000 1.0
C      1  0.5079860000000  0.4768090000000  0.4621010000000 1.0
C      1  0.4382700000000  0.4530400000000  0.5537990000000 1.0
C      1  0.4950700000000  0.4838580000000  0.5871890000000 1.0
C      1  0.5577010000000  0.5432950000000  0.4540600000000 1.0
C      1  0.4989120000000  0.4293390000000  0.4875540000000 1.0
C      1  0.5158460000000  0.5271490000000  0.4772260000000 1.0
C      1  0.4781410000000  0.5875590000000  0.5100850000000 1.0
C      1  0.4812670000000  0.4844370000000  0.4705880000000 1.0
C      1  0.5515590000000  0.5109660000000  0.5741250000000 1.0
C      1  0.5151180000000  0.4634790000000  0.5830090000000 1.0
C      1  0.4755970000000  0.5028870000000  0.4923480000000 1.0
C      1  0.4215300000000  0.5009310000000  0.4583930000000 1.0
C      1  0.4848020000000  0.5825680000000  0.4530980000000 1.0
C      1  0.5104760000000  0.4264360000000  0.4481060000000 1.0
C      1  0.5654160000000  0.4428290000000  0.4963220000000 1.0
C      1  0.5401050000000  0.4658750000000  0.5665770000000 1.0
C      1  0.4260020000000  0.5525430000000  0.5023260000000 1.0
C      1  0.5888860000000  0.4800630000000  0.4679700000000 1.0
C      1  0.4089270000000  0.4947720000000  0.4842040000000 1.0
C      1  0.5453280000000  0.5391740000000  0.5698180000000 1.0
C      1  0.5887690000000  0.4874300000000  0.4949120000000 1.0
C      1  0.4402730000000  0.4512280000000  0.4729590000000 1.0
C      1  0.5509230000000  0.5612450000000  0.4981710000000 1.0
C      1  0.5129430000000  0.5682690000000  0.5591500000000 1.0
C      1  0.4971300000000  0.5342390000000  0.5872670000000 1.0
C      1  0.4881900000000  0.5287170000000  0.4846870000000 1.0
C      1  0.5181210000000  0.4180410000000  0.5268110000000 1.0
C      1  0.4427040000000  0.5064780000000  0.4232400000000 1.0
C      1  0.4494350000000  0.5273540000000  0.5633830000000 1.0
C      1  0.5277010000000  0.4457810000000  0.5258420000000 1.0
C      1  0.5207980000000  0.5510560000000  0.5807180000000 1.0
C      1  0.4117950000000  0.5078530000000  0.5099490000000 1.0
C      1  0.5709210000000  0.4869820000000  0.4427540000000 1.0
C      1  0.4346880000000  0.4829700000000  0.4388090000000 1.0
C      1  0.4565160000000  0.4600170000000  0.4982390000000 1.0
C      1  0.5050080000000  0.4680630000000  0.4318100000000 1.0
C      1  0.5132580000000  0.5404240000000  0.4272530000000 1.0
C      1  0.4181440000000  0.4664330000000  0.4853120000000 1.0
C      1  0.4858930000000  0.4342960000000  0.5617010000000 1.0
C      1  0.4973830000000  0.5186690000000  0.4153910000000 1.0
C      1  0.5565920000000  0.4624640000000  0.4454240000000 1.0
C      1  0.5179600000000  0.5297510000000  0.5356940000000 1.0
C      1  0.5013440000000  0.5759620000000  0.4724290000000 1.0
C      1  0.4948820000000  0.5623250000000  0.4342130000000 1.0
C      1  0.5495570000000  0.4484570000000  0.5447930000000 1.0
C      1  0.4816190000000  0.4337760000000  0.5135870000000 1.0
C      1  0.5376050000000  0.4871790000000  0.4131580000000 1.0
C      1  0.4431870000000  0.5494110000000  0.4500580000000 1.0
C      1  0.4486180000000  0.5508500000000  0.5224200000000 1.0
C      1  0.5549150000000  0.5065500000000  0.4267440000000 1.0
C      1  0.5325700000000  0.5775900000000  0.5134670000000 1.0
C      1  0.4782920000000  0.5889800000000  0.4812790000000 1.0
C      1  0.4507230000000  0.4587020000000  0.4467800000000 1.0
END
