TITL C-2441158-471-219 0.0545327565901997 125000 -11027.3489816496 0 0 89 (C1) n - 1
REM
REM in /home/bkarasulu/work/CARBON/AIRSS/Generating-Clusters/ReaxFF-fromJPCA2015/Units_Real/with-SteepDescent/Higher-Symm
REM
REM
REM
REM
REM
REM ./C.cell (1df0a924f5614ab8850e4351716899ee)
REM
REM compiler GCC version 9.2.1 20190827 (Red Hat 9.2.1-1)
REM options -cpp -mtune=generic -march=x86-64 -g -O0 -fpre-include=/usr/include/finclude/math-vector-fortran.h
REM seed -138183477 -1237755415 282784898 -1645561501 -1127184819 1792391710 -1592700121 1500407815 1893749884 -540366501 -910519781 -1527189409 1695100483 -1952207201 138722393 -2058134732 60371281 1628193236 1648214133 -1695525178 -884351704 -1338854222 -379478142 497090119 -1708632828 794695286 217824079 -937225360 1313392588 975718530 843969405 -1850324091 -592166519
REM
CELL 1.54180   50.00000   50.00000   50.00000   90.00000   90.00000   90.00000
LATT -1
SFAC C  
C      1  0.5319290000000  0.4651450000000  0.5114020000000 1.0
C      1  0.4890830000000  0.4639120000000  0.5281160000000 1.0
C      1  0.4700380000000  0.4634190000000  0.4873240000000 1.0
C      1  0.5131330000000  0.4635010000000  0.4699380000000 1.0
C      1  0.5280810000000  0.4568270000000  0.4889340000000 1.0
C      1  0.4876290000000  0.4645880000000  0.4691810000000 1.0
C      1  0.4708900000000  0.4676000000000  0.5112220000000 1.0
C      1  0.5134160000000  0.4628800000000  0.5291600000000 1.0
C      1  0.5598120000000  0.4501600000000  0.5357930000000 1.0
C      1  0.4638750000000  0.4488730000000  0.5579370000000 1.0
C      1  0.4420770000000  0.4492440000000  0.4633920000000 1.0
C      1  0.5375040000000  0.4502510000000  0.4416820000000 1.0
C      1  0.5585250000000  0.4510540000000  0.4636040000000 1.0
C      1  0.4641080000000  0.4496350000000  0.4408140000000 1.0
C      1  0.4412230000000  0.4491730000000  0.5354400000000 1.0
C      1  0.5371340000000  0.4493140000000  0.5583450000000 1.0
C      1  0.5156320000000  0.5443250000000  0.5654040000000 1.0
C      1  0.4284320000000  0.5410230000000  0.5118160000000 1.0
C      1  0.4827050000000  0.5503660000000  0.4318230000000 1.0
C      1  0.5663490000000  0.5443190000000  0.4870080000000 1.0
C      1  0.5087810000000  0.5395540000000  0.4286770000000 1.0
C      1  0.4323700000000  0.5492530000000  0.4831290000000 1.0
C      1  0.4866810000000  0.5402930000000  0.5717780000000 1.0
C      1  0.5667200000000  0.5436860000000  0.5164660000000 1.0
C      1  0.4764070000000  0.4934400000000  0.4305850000000 1.0
C      1  0.5762600000000  0.4954960000000  0.4746350000000 1.0
C      1  0.5240940000000  0.4923860000000  0.5685150000000 1.0
C      1  0.4327840000000  0.4932820000000  0.5232100000000 1.0
C      1  0.4769500000000  0.4927970000000  0.5671790000000 1.0
C      1  0.5695750000000  0.4932450000000  0.5230400000000 1.0
C      1  0.5264680000000  0.4915350000000  0.4225550000000 1.0
C      1  0.4317800000000  0.4928920000000  0.4755860000000 1.0
C      1  0.5151970000000  0.5724390000000  0.5345590000000 1.0
C      1  0.4639740000000  0.5710970000000  0.5127550000000 1.0
C      1  0.4860050000000  0.5661920000000  0.4572810000000 1.0
C      1  0.5367290000000  0.5725010000000  0.4840370000000 1.0
C      1  0.5155260000000  0.5711390000000  0.4633170000000 1.0
C      1  0.4579560000000  0.5651450000000  0.4841280000000 1.0
C      1  0.4856160000000  0.5728480000000  0.5330030000000 1.0
C      1  0.5340440000000  0.5732320000000  0.5131690000000 1.0
C      1  0.4900410000000  0.5397520000000  0.4696960000000 1.0
C      1  0.5366600000000  0.5411480000000  0.4863580000000 1.0
C      1  0.5138600000000  0.5398950000000  0.5355540000000 1.0
C      1  0.4685870000000  0.5417370000000  0.5145220000000 1.0
C      1  0.4864450000000  0.5436890000000  0.5317630000000 1.0
C      1  0.5368890000000  0.5419350000000  0.5146680000000 1.0
C      1  0.5162900000000  0.5430390000000  0.4686800000000 1.0
C      1  0.4703620000000  0.5374410000000  0.4875320000000 1.0
C      1  0.5719310000000  0.5036880000000  0.4479070000000 1.0
C      1  0.5506380000000  0.5048950000000  0.5711760000000 1.0
C      1  0.4299160000000  0.5067610000000  0.5496260000000 1.0
C      1  0.4507670000000  0.5070090000000  0.4281770000000 1.0
C      1  0.5718820000000  0.5050070000000  0.5495820000000 1.0
C      1  0.5501760000000  0.5059310000000  0.4277460000000 1.0
C      1  0.4294240000000  0.5065390000000  0.4497370000000 1.0
C      1  0.4506420000000  0.5055140000000  0.5710350000000 1.0
C      1  0.5653730000000  0.5329390000000  0.5436010000000 1.0
C      1  0.4598550000000  0.5319180000000  0.5653370000000 1.0
C      1  0.4366510000000  0.5337770000000  0.4574160000000 1.0
C      1  0.5331120000000  0.5291000000000  0.4300850000000 1.0
C      1  0.5684820000000  0.5224090000000  0.4683870000000 1.0
C      1  0.4574530000000  0.5345340000000  0.4358800000000 1.0
C      1  0.4338570000000  0.5327960000000  0.5383880000000 1.0
C      1  0.5434940000000  0.5322890000000  0.5649250000000 1.0
C      1  0.5731330000000  0.4661920000000  0.5141550000000 1.0
C      1  0.4848650000000  0.4648950000000  0.5718640000000 1.0
C      1  0.4274340000000  0.4652950000000  0.4839430000000 1.0
C      1  0.5153670000000  0.4676220000000  0.4278590000000 1.0
C      1  0.5707210000000  0.4686850000000  0.4836460000000 1.0
C      1  0.4840650000000  0.4660570000000  0.4264750000000 1.0
C      1  0.4274180000000  0.4660870000000  0.5146100000000 1.0
C      1  0.5156020000000  0.4648320000000  0.5723460000000 1.0
C      1  0.5322640000000  0.5029650000000  0.4890860000000 1.0
C      1  0.5158250000000  0.4965480000000  0.5402170000000 1.0
C      1  0.4616750000000  0.4960680000000  0.5138280000000 1.0
C      1  0.4829550000000  0.4955900000000  0.4603460000000 1.0
C      1  0.5399550000000  0.4937440000000  0.5163180000000 1.0
C      1  0.5126860000000  0.4979870000000  0.4666410000000 1.0
C      1  0.4602320000000  0.4954800000000  0.4835530000000 1.0
C      1  0.4862960000000  0.4962980000000  0.5388970000000 1.0
C      1  0.5411870000000  0.4325260000000  0.4792430000000 1.0
C      1  0.5200620000000  0.4350110000000  0.5396430000000 1.0
C      1  0.4585980000000  0.4335480000000  0.5186630000000 1.0
C      1  0.4807780000000  0.4344210000000  0.4589170000000 1.0
C      1  0.5426170000000  0.4337270000000  0.5202530000000 1.0
C      1  0.5188700000000  0.4349860000000  0.4577840000000 1.0
C      1  0.4599740000000  0.4355400000000  0.4819870000000 1.0
C      1  0.4803960000000  0.4345550000000  0.5389080000000 1.0
C      1  0.5053760000000  0.5094060000000  0.4960520000000 1.0
END
