TITL C-2441159-1093-364 0.214928504609755 125000 -21287.9355173212 0 0 181 (C1) n - 1
REM
REM in /home/bkarasulu/work/CARBON/AIRSS/Generating-Clusters/ReaxFF-fromJPCA2015/Units_Real/with-SteepDescent/Higher-Symm
REM
REM
REM
REM
REM
REM ./C.cell (1df0a924f5614ab8850e4351716899ee)
REM
REM compiler GCC version 9.2.1 20190827 (Red Hat 9.2.1-1)
REM options -cpp -mtune=generic -march=x86-64 -g -O0 -fpre-include=/usr/include/finclude/math-vector-fortran.h
REM seed 1153338361 1417746759 1587096055 886290664 -401137623 -1479152723 446159752 -1698101002 -429852622 1983097104 -117865702 -1246417799 203941012 1799672642 -145225302 -233303252 196190674 1172008052 -1161996270 647640663 -34218533 1342735909 -1222470388 1144519281 2120729633 -1885907137 -1960205513 1391664699 341653760 424815436 -1789362044 1335611581 1051442549
REM
CELL 1.54180   50.00000   50.00000   50.00000   90.00000   90.00000   90.00000
LATT -1
SFAC C  
C      1  0.4697630000000  0.4360190000000  0.4271950000000 1.0
C      1  0.4382650000000  0.4273900000000  0.4807000000000 1.0
C      1  0.4221070000000  0.4798290000000  0.4403100000000 1.0
C      1  0.5217690000000  0.5546050000000  0.4329910000000 1.0
C      1  0.4733240000000  0.5603750000000  0.5772410000000 1.0
C      1  0.5242050000000  0.4371040000000  0.5767990000000 1.0
C      1  0.5622420000000  0.5737680000000  0.4799080000000 1.0
C      1  0.4383870000000  0.5769960000000  0.5242390000000 1.0
C      1  0.5620330000000  0.4217620000000  0.5220550000000 1.0
C      1  0.5756500000000  0.5271030000000  0.4386750000000 1.0
C      1  0.4243020000000  0.5231540000000  0.5600230000000 1.0
C      1  0.5745670000000  0.4738730000000  0.5618740000000 1.0
C      1  0.4794470000000  0.4385770000000  0.5765180000000 1.0
C      1  0.4376440000000  0.4247610000000  0.5264550000000 1.0
C      1  0.4249500000000  0.4788340000000  0.5599410000000 1.0
C      1  0.5231480000000  0.5628920000000  0.5762960000000 1.0
C      1  0.4725130000000  0.5625220000000  0.4243000000000 1.0
C      1  0.5192110000000  0.4415070000000  0.4324510000000 1.0
C      1  0.5600130000000  0.5751550000000  0.5209950000000 1.0
C      1  0.4374140000000  0.5760350000000  0.4792550000000 1.0
C      1  0.5598290000000  0.4243340000000  0.4765510000000 1.0
C      1  0.5765810000000  0.5279820000000  0.5618640000000 1.0
C      1  0.4227340000000  0.5241370000000  0.4400990000000 1.0
C      1  0.5778350000000  0.4730790000000  0.4382750000000 1.0
C      1  0.5090430000000  0.5481500000000  0.5967830000000 1.0
C      1  0.5457440000000  0.6003860000000  0.5179950000000 1.0
C      1  0.5976660000000  0.5172570000000  0.5464920000000 1.0
C      1  0.4820530000000  0.4535100000000  0.6014820000000 1.0
C      1  0.5102750000000  0.4520200000000  0.4064650000000 1.0
C      1  0.4903250000000  0.5493390000000  0.4062330000000 1.0
C      1  0.4537870000000  0.4052670000000  0.5126480000000 1.0
C      1  0.5457610000000  0.4016580000000  0.4856000000000 1.0
C      1  0.4533480000000  0.5991480000000  0.4891230000000 1.0
C      1  0.3999740000000  0.4878080000000  0.5484350000000 1.0
C      1  0.5960950000000  0.4888770000000  0.4541870000000 1.0
C      1  0.4002280000000  0.5150810000000  0.4554550000000 1.0
C      1  0.5184860000000  0.5543820000000  0.4033340000000 1.0
C      1  0.5464100000000  0.5966390000000  0.4892250000000 1.0
C      1  0.5981550000000  0.5176420000000  0.4539160000000 1.0
C      1  0.4824090000000  0.4514600000000  0.4062470000000 1.0
C      1  0.5108060000000  0.4533250000000  0.5980320000000 1.0
C      1  0.4817870000000  0.5463640000000  0.6005430000000 1.0
C      1  0.4503630000000  0.4007880000000  0.4835530000000 1.0
C      1  0.5478040000000  0.3979940000000  0.5136900000000 1.0
C      1  0.4537070000000  0.6007860000000  0.5180390000000 1.0
C      1  0.3990350000000  0.4865180000000  0.4558480000000 1.0
C      1  0.5945620000000  0.4885280000000  0.5467810000000 1.0
C      1  0.3997750000000  0.5156190000000  0.5450000000000 1.0
C      1  0.5240010000000  0.5150520000000  0.5571150000000 1.0
C      1  0.5116950000000  0.5495930000000  0.5253550000000 1.0
C      1  0.5509050000000  0.5229510000000  0.5138190000000 1.0
C      1  0.4756380000000  0.4828450000000  0.5474300000000 1.0
C      1  0.5277280000000  0.4872320000000  0.4560080000000 1.0
C      1  0.4723200000000  0.5137300000000  0.4478490000000 1.0
C      1  0.4866600000000  0.4522450000000  0.5270870000000 1.0
C      1  0.5132400000000  0.4522880000000  0.4705240000000 1.0
C      1  0.4807320000000  0.5510990000000  0.4763200000000 1.0
C      1  0.4516290000000  0.4721750000000  0.5172240000000 1.0
C      1  0.5530270000000  0.4746140000000  0.4849760000000 1.0
C      1  0.4573640000000  0.5231760000000  0.4720080000000 1.0
C      1  0.5234650000000  0.5151810000000  0.4428220000000 1.0
C      1  0.5103710000000  0.5519940000000  0.4759560000000 1.0
C      1  0.5506230000000  0.5242130000000  0.4849110000000 1.0
C      1  0.4764960000000  0.4837380000000  0.4463290000000 1.0
C      1  0.5256270000000  0.4861570000000  0.5527470000000 1.0
C      1  0.4723590000000  0.5135730000000  0.5482870000000 1.0
C      1  0.4824920000000  0.4526270000000  0.4725430000000 1.0
C      1  0.5168260000000  0.4521950000000  0.5224970000000 1.0
C      1  0.4814690000000  0.5522410000000  0.5238400000000 1.0
C      1  0.4514890000000  0.4729400000000  0.4852620000000 1.0
C      1  0.5506870000000  0.4725210000000  0.5145770000000 1.0
C      1  0.4547450000000  0.5241920000000  0.5252230000000 1.0
C      1  0.4844890000000  0.5218500000000  0.4139480000000 1.0
C      1  0.5135770000000  0.4255640000000  0.4849510000000 1.0
C      1  0.4227680000000  0.4858990000000  0.5153580000000 1.0
C      1  0.5179910000000  0.4791220000000  0.4076700000000 1.0
C      1  0.4860050000000  0.4856340000000  0.5775030000000 1.0
C      1  0.5142340000000  0.5222230000000  0.5845440000000 1.0
C      1  0.4776740000000  0.5829270000000  0.4855410000000 1.0
C      1  0.5136340000000  0.5780830000000  0.5147460000000 1.0
C      1  0.4781180000000  0.4225470000000  0.5155710000000 1.0
C      1  0.5791890000000  0.5130400000000  0.5127930000000 1.0
C      1  0.4278280000000  0.5166900000000  0.4847260000000 1.0
C      1  0.5813530000000  0.4844520000000  0.4790910000000 1.0
C      1  0.4862070000000  0.5124750000000  0.5806290000000 1.0
C      1  0.5194530000000  0.4254990000000  0.5139900000000 1.0
C      1  0.4254580000000  0.4859020000000  0.4853630000000 1.0
C      1  0.5146270000000  0.4779040000000  0.5815970000000 1.0
C      1  0.4797410000000  0.4775030000000  0.4179300000000 1.0
C      1  0.5134630000000  0.5088740000000  0.4148180000000 1.0
C      1  0.4872600000000  0.5817040000000  0.5134460000000 1.0
C      1  0.5205330000000  0.5801230000000  0.4852530000000 1.0
C      1  0.4844190000000  0.4238460000000  0.4842620000000 1.0
C      1  0.5787380000000  0.5142960000000  0.4872880000000 1.0
C      1  0.4264670000000  0.5171270000000  0.5134430000000 1.0
C      1  0.5810620000000  0.4841480000000  0.5217350000000 1.0
C      1  0.5299230000000  0.5853730000000  0.5581790000000 1.0
C      1  0.5855530000000  0.5591740000000  0.5265330000000 1.0
C      1  0.5602020000000  0.5260430000000  0.5868080000000 1.0
C      1  0.4749310000000  0.4142650000000  0.5591350000000 1.0
C      1  0.5286350000000  0.4155920000000  0.4427600000000 1.0
C      1  0.4704400000000  0.5849560000000  0.4423240000000 1.0
C      1  0.4118260000000  0.4408740000000  0.5245730000000 1.0
C      1  0.5851770000000  0.4391620000000  0.4755410000000 1.0
C      1  0.4152760000000  0.5588070000000  0.4722930000000 1.0
C      1  0.4422540000000  0.4705060000000  0.5837380000000 1.0
C      1  0.5593920000000  0.4705500000000  0.4167420000000 1.0
C      1  0.4376870000000  0.5245560000000  0.4147480000000 1.0
C      1  0.5285310000000  0.5812960000000  0.4434370000000 1.0
C      1  0.5867980000000  0.5591640000000  0.4736790000000 1.0
C      1  0.5610240000000  0.5270350000000  0.4130440000000 1.0
C      1  0.4740500000000  0.4123790000000  0.4426450000000 1.0
C      1  0.5302230000000  0.4161500000000  0.5581200000000 1.0
C      1  0.4728090000000  0.5847340000000  0.5592530000000 1.0
C      1  0.4148880000000  0.4418480000000  0.4723180000000 1.0
C      1  0.5860780000000  0.4392110000000  0.5260890000000 1.0
C      1  0.4142410000000  0.5590030000000  0.5262500000000 1.0
C      1  0.4365960000000  0.4735510000000  0.4149230000000 1.0
C      1  0.5596540000000  0.4737060000000  0.5871360000000 1.0
C      1  0.4401770000000  0.5243410000000  0.5860150000000 1.0
C      1  0.4879230000000  0.4029880000000  0.5359030000000 1.0
C      1  0.4032250000000  0.5335890000000  0.4803390000000 1.0
C      1  0.5433580000000  0.4861700000000  0.3983910000000 1.0
C      1  0.5206350000000  0.5992550000000  0.5342120000000 1.0
C      1  0.4853870000000  0.5990510000000  0.4632770000000 1.0
C      1  0.5188070000000  0.4001870000000  0.4654740000000 1.0
C      1  0.5989400000000  0.4631580000000  0.4860850000000 1.0
C      1  0.4004480000000  0.4661920000000  0.5135060000000 1.0
C      1  0.5984420000000  0.5333690000000  0.5212250000000 1.0
C      1  0.4602320000000  0.5120810000000  0.4012880000000 1.0
C      1  0.5377870000000  0.5131840000000  0.5998610000000 1.0
C      1  0.4660020000000  0.4784360000000  0.5986650000000 1.0
C      1  0.4874280000000  0.4010090000000  0.4654990000000 1.0
C      1  0.4035180000000  0.5326490000000  0.5194230000000 1.0
C      1  0.5356760000000  0.4852600000000  0.5997340000000 1.0
C      1  0.5145300000000  0.5976200000000  0.4629610000000 1.0
C      1  0.4792010000000  0.5997710000000  0.5345890000000 1.0
C      1  0.5184530000000  0.4031200000000  0.5343530000000 1.0
C      1  0.5987430000000  0.4630930000000  0.5149970000000 1.0
C      1  0.4004060000000  0.4666690000000  0.4811060000000 1.0
C      1  0.5992500000000  0.5330890000000  0.4796700000000 1.0
C      1  0.4661660000000  0.5200420000000  0.6001320000000 1.0
C      1  0.5393320000000  0.5140700000000  0.3992360000000 1.0
C      1  0.4600730000000  0.4844610000000  0.4012240000000 1.0
C      1  0.5479480000000  0.4496090000000  0.5816840000000 1.0
C      1  0.4478110000000  0.5759600000000  0.5494700000000 1.0
C      1  0.5765200000000  0.5551490000000  0.4468920000000 1.0
C      1  0.4474490000000  0.5507070000000  0.5796300000000 1.0
C      1  0.5451570000000  0.5514930000000  0.4153920000000 1.0
C      1  0.4438440000000  0.4480120000000  0.4263810000000 1.0
C      1  0.5536530000000  0.4276530000000  0.5483540000000 1.0
C      1  0.4492960000000  0.4140160000000  0.4573560000000 1.0
C      1  0.5546050000000  0.5728430000000  0.4531590000000 1.0
C      1  0.4251200000000  0.4521410000000  0.4474930000000 1.0
C      1  0.5755430000000  0.4465110000000  0.5517790000000 1.0
C      1  0.4234930000000  0.5501760000000  0.5515660000000 1.0
C      1  0.5466200000000  0.4469960000000  0.4252850000000 1.0
C      1  0.4461430000000  0.5751090000000  0.4534070000000 1.0
C      1  0.5762030000000  0.5558300000000  0.5535000000000 1.0
C      1  0.4466050000000  0.5512610000000  0.4213600000000 1.0
C      1  0.5460300000000  0.5481880000000  0.5803550000000 1.0
C      1  0.4523600000000  0.4464170000000  0.5717000000000 1.0
C      1  0.5569660000000  0.4261970000000  0.4426130000000 1.0
C      1  0.4487910000000  0.4245220000000  0.5531960000000 1.0
C      1  0.5537770000000  0.5725430000000  0.5485490000000 1.0
C      1  0.4175120000000  0.4532330000000  0.5490240000000 1.0
C      1  0.5791580000000  0.4466500000000  0.4484590000000 1.0
C      1  0.4263520000000  0.5558350000000  0.4430280000000 1.0
C      1  0.4671920000000  0.4983170000000  0.4861550000000 1.0
C      1  0.4995840000000  0.4898020000000  0.4636180000000 1.0
C      1  0.4840440000000  0.5345750000000  0.5003830000000 1.0
C      1  0.5171020000000  0.4661940000000  0.4964950000000 1.0
C      1  0.4631420000000  0.4995200000000  0.5123790000000 1.0
C      1  0.4994590000000  0.5179920000000  0.4590700000000 1.0
C      1  0.5015650000000  0.4906140000000  0.5324680000000 1.0
C      1  0.5403870000000  0.4977730000000  0.5240450000000 1.0
C      1  0.5398310000000  0.4981950000000  0.4787860000000 1.0
C      1  0.5007880000000  0.5190640000000  0.5405380000000 1.0
C      1  0.4859220000000  0.4654250000000  0.5004390000000 1.0
C      1  0.5150390000000  0.5343620000000  0.4994790000000 1.0
C      1  0.5015750000000  0.4901080000000  0.5021960000000 1.0
END
