TITL C-2441160-1326-77 0.045250345098102 125000 -13785.7350292318 0 0 101 (C1) n - 1
REM
REM in /home/bkarasulu/work/CARBON/AIRSS/Generating-Clusters/ReaxFF-fromJPCA2015/Units_Real/with-SteepDescent/Higher-Symm
REM
REM
REM
REM
REM
REM ./C.cell (1df0a924f5614ab8850e4351716899ee)
REM
REM compiler GCC version 9.2.1 20190827 (Red Hat 9.2.1-1)
REM options -cpp -mtune=generic -march=x86-64 -g -O0 -fpre-include=/usr/include/finclude/math-vector-fortran.h
REM seed -1327370660 -1060563648 1258428091 -70302480 -582146424 1317395430 1819487494 -1819371578 -968901701 2117068634 -93254160 -373222009 -781400007 2121894895 -1840498075 -1185971490 -641521942 -670923368 -1830430250 1890270251 -1711705973 1765208184 -785818868 1928470283 1315779771 453770488 -154248699 -257671038 783887391 1783198776 1885761240 485386581 1428339442
REM
CELL 1.54180   50.00000   50.00000   50.00000   90.00000   90.00000   90.00000
LATT -1
SFAC C  
C      1  0.4459020000000  0.4890770000000  0.5721040000000 1.0
C      1  0.5497250000000  0.4872680000000  0.4305450000000 1.0
C      1  0.4494710000000  0.5127550000000  0.4291530000000 1.0
C      1  0.5505920000000  0.5118720000000  0.5690700000000 1.0
C      1  0.5701540000000  0.4884000000000  0.4502730000000 1.0
C      1  0.4286190000000  0.4873410000000  0.5485800000000 1.0
C      1  0.4294150000000  0.5125490000000  0.4509230000000 1.0
C      1  0.5712870000000  0.5125430000000  0.5483430000000 1.0
C      1  0.4679400000000  0.4724040000000  0.4816430000000 1.0
C      1  0.5308070000000  0.4679110000000  0.5113640000000 1.0
C      1  0.4742160000000  0.5378100000000  0.5068640000000 1.0
C      1  0.5312240000000  0.5266720000000  0.4835140000000 1.0
C      1  0.4948440000000  0.4651730000000  0.4727460000000 1.0
C      1  0.5118690000000  0.4725350000000  0.5324790000000 1.0
C      1  0.5076300000000  0.5334760000000  0.4680210000000 1.0
C      1  0.4818450000000  0.5299480000000  0.5334510000000 1.0
C      1  0.4253000000000  0.4733490000000  0.4812000000000 1.0
C      1  0.5736080000000  0.4657580000000  0.5241350000000 1.0
C      1  0.4302350000000  0.5297950000000  0.5263400000000 1.0
C      1  0.5719000000000  0.5351080000000  0.4755590000000 1.0
C      1  0.4766350000000  0.4661170000000  0.4291740000000 1.0
C      1  0.5168170000000  0.4735790000000  0.5712980000000 1.0
C      1  0.5208940000000  0.5280030000000  0.4289820000000 1.0
C      1  0.4810700000000  0.5295960000000  0.5758820000000 1.0
C      1  0.4351690000000  0.4463300000000  0.4753380000000 1.0
C      1  0.5723450000000  0.4355070000000  0.5265450000000 1.0
C      1  0.4340050000000  0.5575370000000  0.5258810000000 1.0
C      1  0.5658120000000  0.5650350000000  0.4745700000000 1.0
C      1  0.4704300000000  0.4364450000000  0.4288550000000 1.0
C      1  0.5250210000000  0.4478070000000  0.5609240000000 1.0
C      1  0.5323010000000  0.5552750000000  0.4346670000000 1.0
C      1  0.4743870000000  0.5568910000000  0.5650980000000 1.0
C      1  0.5423580000000  0.4332340000000  0.4798780000000 1.0
C      1  0.4560740000000  0.4310840000000  0.5229150000000 1.0
C      1  0.5429970000000  0.5660400000000  0.5229350000000 1.0
C      1  0.4586720000000  0.5680790000000  0.4759890000000 1.0
C      1  0.4778730000000  0.4306210000000  0.5438780000000 1.0
C      1  0.5236790000000  0.4335360000000  0.4577900000000 1.0
C      1  0.5235240000000  0.5680500000000  0.5440780000000 1.0
C      1  0.4805710000000  0.5693900000000  0.4561670000000 1.0
C      1  0.5228560000000  0.4943920000000  0.4370210000000 1.0
C      1  0.4724550000000  0.5004770000000  0.5701950000000 1.0
C      1  0.5229010000000  0.5040210000000  0.5609100000000 1.0
C      1  0.4777890000000  0.5071940000000  0.4366790000000 1.0
C      1  0.4382420000000  0.4901680000000  0.5212900000000 1.0
C      1  0.5635220000000  0.4937010000000  0.4788880000000 1.0
C      1  0.5610830000000  0.5093370000000  0.5203690000000 1.0
C      1  0.4352260000000  0.5040720000000  0.4786320000000 1.0
C      1  0.4701710000000  0.5663890000000  0.5025170000000 1.0
C      1  0.5236620000000  0.5736320000000  0.5029570000000 1.0
C      1  0.4748160000000  0.4283630000000  0.5019040000000 1.0
C      1  0.5273750000000  0.4397940000000  0.5036750000000 1.0
C      1  0.5030690000000  0.5619390000000  0.4709320000000 1.0
C      1  0.5034870000000  0.5777740000000  0.5263340000000 1.0
C      1  0.4984520000000  0.4379550000000  0.4662310000000 1.0
C      1  0.4983730000000  0.4228180000000  0.5252210000000 1.0
C      1  0.5356570000000  0.4851120000000  0.4863220000000 1.0
C      1  0.4613320000000  0.4759440000000  0.5099320000000 1.0
C      1  0.5341890000000  0.5190710000000  0.5121540000000 1.0
C      1  0.4737130000000  0.5130970000000  0.4907540000000 1.0
C      1  0.4856480000000  0.4796010000000  0.5258560000000 1.0
C      1  0.5158010000000  0.4852070000000  0.4670490000000 1.0
C      1  0.5100140000000  0.5140080000000  0.5292700000000 1.0
C      1  0.4850200000000  0.5155040000000  0.4641650000000 1.0
C      1  0.5723840000000  0.4589090000000  0.4491960000000 1.0
C      1  0.4271900000000  0.4584470000000  0.5512800000000 1.0
C      1  0.5733520000000  0.5420000000000  0.5508750000000 1.0
C      1  0.4280570000000  0.5422160000000  0.4493790000000 1.0
C      1  0.4478070000000  0.4594270000000  0.5724240000000 1.0
C      1  0.5516030000000  0.4590510000000  0.4278790000000 1.0
C      1  0.5525120000000  0.5413410000000  0.5721590000000 1.0
C      1  0.4488820000000  0.5423490000000  0.4281640000000 1.0
C      1  0.5395970000000  0.5789810000000  0.4781520000000 1.0
C      1  0.4533580000000  0.5777050000000  0.5243680000000 1.0
C      1  0.5455710000000  0.4241890000000  0.5205280000000 1.0
C      1  0.4570470000000  0.4258100000000  0.4789000000000 1.0
C      1  0.4784210000000  0.5754220000000  0.5420440000000 1.0
C      1  0.5213260000000  0.5760070000000  0.4557020000000 1.0
C      1  0.5229070000000  0.4261390000000  0.5420320000000 1.0
C      1  0.4751740000000  0.4237290000000  0.4553610000000 1.0
C      1  0.5685780000000  0.5527190000000  0.5239650000000 1.0
C      1  0.4351520000000  0.5507050000000  0.4765580000000 1.0
C      1  0.5676540000000  0.4485450000000  0.4761330000000 1.0
C      1  0.4302750000000  0.4466980000000  0.5251830000000 1.0
C      1  0.5254040000000  0.5517260000000  0.5683950000000 1.0
C      1  0.4756300000000  0.5533840000000  0.4318530000000 1.0
C      1  0.4745190000000  0.4498400000000  0.5666920000000 1.0
C      1  0.5246120000000  0.4489460000000  0.4336090000000 1.0
C      1  0.4305260000000  0.5279250000000  0.4948980000000 1.0
C      1  0.5747940000000  0.5307630000000  0.5054400000000 1.0
C      1  0.4208350000000  0.4697730000000  0.5099170000000 1.0
C      1  0.5746880000000  0.4706540000000  0.4936990000000 1.0
C      1  0.4923230000000  0.5305990000000  0.4248330000000 1.0
C      1  0.5102660000000  0.5275430000000  0.5743170000000 1.0
C      1  0.5061450000000  0.4707990000000  0.4275260000000 1.0
C      1  0.4874940000000  0.4751690000000  0.5727480000000 1.0
C      1  0.4552980000000  0.5273040000000  0.5431660000000 1.0
C      1  0.5475320000000  0.5302480000000  0.4605260000000 1.0
C      1  0.4576620000000  0.4742130000000  0.4531560000000 1.0
C      1  0.5515450000000  0.4739990000000  0.5413780000000 1.0
C      1  0.4944340000000  0.5001570000000  0.5091790000000 1.0
END
