TITL C-2441158-471-484 0.14434789097785 125000 -22822.0359138675 0 0 179 (C1) n - 1
REM
REM in /home/bkarasulu/work/CARBON/AIRSS/Generating-Clusters/ReaxFF-fromJPCA2015/Units_Real/with-SteepDescent/Higher-Symm
REM
REM
REM
REM
REM
REM ./C.cell (1df0a924f5614ab8850e4351716899ee)
REM
REM compiler GCC version 9.2.1 20190827 (Red Hat 9.2.1-1)
REM options -cpp -mtune=generic -march=x86-64 -g -O0 -fpre-include=/usr/include/finclude/math-vector-fortran.h
REM seed 2105814539 2016082345 927510859 -713466238 1789559623 1021045891 1827953018 1680265843 1276230791 -226932823 1556406186 1924407359 2120656175 -1696491968 -1557416910 -2140666430 -661433961 962702654 -451096054 69362750 1825974520 -192407846 1768012650 -1671921455 1856094020 -1049156836 745236942 -1479727572 974864319 528215870 643492028 -74075458 -1561130694
REM
CELL 1.54180   50.00000   50.00000   50.00000   90.00000   90.00000   90.00000
LATT -1
SFAC C  
C      1  0.4355710000000  0.4919410000000  0.5810690000000 1.0
C      1  0.4403240000000  0.4450200000000  0.4619420000000 1.0
C      1  0.4445280000000  0.5562140000000  0.4725350000000 1.0
C      1  0.5612890000000  0.4925140000000  0.5799480000000 1.0
C      1  0.5608180000000  0.4369070000000  0.4535090000000 1.0
C      1  0.5659680000000  0.5720350000000  0.4665170000000 1.0
C      1  0.4675490000000  0.4041230000000  0.5370610000000 1.0
C      1  0.4674880000000  0.5191420000000  0.3988980000000 1.0
C      1  0.4671290000000  0.5797400000000  0.5645050000000 1.0
C      1  0.5337070000000  0.4048970000000  0.5366750000000 1.0
C      1  0.5311800000000  0.5179590000000  0.3991080000000 1.0
C      1  0.5317990000000  0.5789750000000  0.5654340000000 1.0
C      1  0.4401510000000  0.4724240000000  0.4795950000000 1.0
C      1  0.4417500000000  0.5300800000000  0.4861590000000 1.0
C      1  0.4389220000000  0.4959100000000  0.5260840000000 1.0
C      1  0.5623920000000  0.4795570000000  0.4830270000000 1.0
C      1  0.5528990000000  0.5400600000000  0.4908430000000 1.0
C      1  0.5629610000000  0.4966230000000  0.5271080000000 1.0
C      1  0.4676590000000  0.4627900000000  0.5560500000000 1.0
C      1  0.4688070000000  0.4701010000000  0.4397270000000 1.0
C      1  0.4687260000000  0.5674020000000  0.5027150000000 1.0
C      1  0.5381680000000  0.4652690000000  0.5571560000000 1.0
C      1  0.5348650000000  0.4673340000000  0.4408400000000 1.0
C      1  0.5378010000000  0.5634920000000  0.4953130000000 1.0
C      1  0.4869000000000  0.4141550000000  0.4391310000000 1.0
C      1  0.4872880000000  0.5979430000000  0.4562710000000 1.0
C      1  0.4834970000000  0.4917790000000  0.6021950000000 1.0
C      1  0.5156990000000  0.4139180000000  0.4390610000000 1.0
C      1  0.5163690000000  0.5967050000000  0.4556090000000 1.0
C      1  0.5121640000000  0.4913180000000  0.6031290000000 1.0
C      1  0.5501190000000  0.4535200000000  0.4200830000000 1.0
C      1  0.5506500000000  0.5928410000000  0.4961220000000 1.0
C      1  0.5498560000000  0.4551290000000  0.5828110000000 1.0
C      1  0.4503250000000  0.4519600000000  0.4237120000000 1.0
C      1  0.4510460000000  0.5902060000000  0.4969400000000 1.0
C      1  0.4506480000000  0.4548280000000  0.5788260000000 1.0
C      1  0.4154470000000  0.5260990000000  0.4535250000000 1.0
C      1  0.4217670000000  0.5281340000000  0.5448040000000 1.0
C      1  0.4141250000000  0.4481410000000  0.5006230000000 1.0
C      1  0.5812210000000  0.5259210000000  0.4574440000000 1.0
C      1  0.5825320000000  0.5274620000000  0.5445740000000 1.0
C      1  0.5786490000000  0.4475550000000  0.5021360000000 1.0
C      1  0.5856610000000  0.4979850000000  0.5450480000000 1.0
C      1  0.5842760000000  0.4619620000000  0.4773820000000 1.0
C      1  0.5925480000000  0.5423170000000  0.4770940000000 1.0
C      1  0.4181080000000  0.4994970000000  0.5455620000000 1.0
C      1  0.4029240000000  0.4563010000000  0.4760330000000 1.0
C      1  0.4055930000000  0.5441380000000  0.4729230000000 1.0
C      1  0.4854700000000  0.5347390000000  0.4171310000000 1.0
C      1  0.4861320000000  0.5638100000000  0.5787850000000 1.0
C      1  0.4864630000000  0.3984570000000  0.5159470000000 1.0
C      1  0.5131820000000  0.5379990000000  0.4083480000000 1.0
C      1  0.5138490000000  0.5627240000000  0.5796060000000 1.0
C      1  0.5148230000000  0.4009230000000  0.5157520000000 1.0
C      1  0.5158950000000  0.5683460000000  0.4434570000000 1.0
C      1  0.5145240000000  0.5182250000000  0.5872820000000 1.0
C      1  0.5140440000000  0.4159840000000  0.4692840000000 1.0
C      1  0.4868270000000  0.5707610000000  0.4444300000000 1.0
C      1  0.4858700000000  0.5186160000000  0.5834530000000 1.0
C      1  0.4853720000000  0.4156220000000  0.4717970000000 1.0
C      1  0.5545640000000  0.5521310000000  0.4176330000000 1.0
C      1  0.5549250000000  0.5458540000000  0.5871190000000 1.0
C      1  0.5545930000000  0.4026710000000  0.4943130000000 1.0
C      1  0.4452180000000  0.5509820000000  0.4186210000000 1.0
C      1  0.4466960000000  0.5427420000000  0.5866290000000 1.0
C      1  0.4454160000000  0.4027650000000  0.4962700000000 1.0
C      1  0.4185610000000  0.4864700000000  0.4436550000000 1.0
C      1  0.4175320000000  0.5572150000000  0.5152510000000 1.0
C      1  0.4156770000000  0.4591390000000  0.5399910000000 1.0
C      1  0.5830150000000  0.4855470000000  0.4433770000000 1.0
C      1  0.5814800000000  0.5568690000000  0.5156570000000 1.0
C      1  0.5837130000000  0.4570470000000  0.5421850000000 1.0
C      1  0.5212570000000  0.5868860000000  0.5393850000000 1.0
C      1  0.5209850000000  0.4188460000000  0.5599100000000 1.0
C      1  0.5215310000000  0.4913500000000  0.4024260000000 1.0
C      1  0.4792260000000  0.5921640000000  0.5407650000000 1.0
C      1  0.4817240000000  0.4193640000000  0.5574800000000 1.0
C      1  0.4755920000000  0.4914240000000  0.3995410000000 1.0
C      1  0.5717420000000  0.4309450000000  0.5389500000000 1.0
C      1  0.5699670000000  0.5006320000000  0.4240580000000 1.0
C      1  0.5656840000000  0.5720850000000  0.5362960000000 1.0
C      1  0.4339680000000  0.4364030000000  0.5346040000000 1.0
C      1  0.4393500000000  0.4965730000000  0.4238580000000 1.0
C      1  0.4300000000000  0.5680450000000  0.5387100000000 1.0
C      1  0.4883210000000  0.4805570000000  0.5633330000000 1.0
C      1  0.4860780000000  0.4569850000000  0.4535800000000 1.0
C      1  0.4865550000000  0.5629280000000  0.4824240000000 1.0
C      1  0.5186840000000  0.4884080000000  0.5563180000000 1.0
C      1  0.5136700000000  0.4516500000000  0.4524400000000 1.0
C      1  0.5105510000000  0.5739340000000  0.4916480000000 1.0
C      1  0.4901750000000  0.4436590000000  0.5417750000000 1.0
C      1  0.4855190000000  0.4862450000000  0.4260450000000 1.0
C      1  0.4835170000000  0.5670840000000  0.5257660000000 1.0
C      1  0.5187930000000  0.4457200000000  0.5491500000000 1.0
C      1  0.5140540000000  0.4906040000000  0.4312430000000 1.0
C      1  0.5104580000000  0.5611350000000  0.5299890000000 1.0
C      1  0.4718500000000  0.4295800000000  0.4195790000000 1.0
C      1  0.4686580000000  0.6059920000000  0.4778870000000 1.0
C      1  0.4686930000000  0.4663890000000  0.6010160000000 1.0
C      1  0.5295460000000  0.4298590000000  0.4181160000000 1.0
C      1  0.5310240000000  0.6071320000000  0.4789200000000 1.0
C      1  0.5286600000000  0.4672080000000  0.6022570000000 1.0
C      1  0.4408620000000  0.5661850000000  0.5654390000000 1.0
C      1  0.4416250000000  0.4099610000000  0.5255940000000 1.0
C      1  0.4411830000000  0.5218210000000  0.4084370000000 1.0
C      1  0.5586400000000  0.5670800000000  0.5650820000000 1.0
C      1  0.5596000000000  0.4093820000000  0.5244090000000 1.0
C      1  0.5577740000000  0.5226940000000  0.4107600000000 1.0
C      1  0.5479950000000  0.5011620000000  0.4716020000000 1.0
C      1  0.5517020000000  0.5228980000000  0.5167400000000 1.0
C      1  0.5488770000000  0.4776320000000  0.5106520000000 1.0
C      1  0.4482890000000  0.5017750000000  0.4743960000000 1.0
C      1  0.4521780000000  0.5228050000000  0.5135740000000 1.0
C      1  0.4490180000000  0.4730460000000  0.5110640000000 1.0
C      1  0.4409500000000  0.5599200000000  0.4446100000000 1.0
C      1  0.4447370000000  0.5155780000000  0.5882120000000 1.0
C      1  0.4363460000000  0.4174300000000  0.4721990000000 1.0
C      1  0.5599740000000  0.5648900000000  0.4413450000000 1.0
C      1  0.5582890000000  0.5182630000000  0.5868080000000 1.0
C      1  0.5584220000000  0.4173620000000  0.4713860000000 1.0
C      1  0.4440360000000  0.4457410000000  0.5087790000000 1.0
C      1  0.4507120000000  0.5120900000000  0.4471940000000 1.0
C      1  0.4522200000000  0.5336950000000  0.5430210000000 1.0
C      1  0.5487670000000  0.4477560000000  0.5101880000000 1.0
C      1  0.5521250000000  0.5224210000000  0.4532600000000 1.0
C      1  0.5533470000000  0.5333530000000  0.5455640000000 1.0
C      1  0.5912480000000  0.5302630000000  0.5168070000000 1.0
C      1  0.5918020000000  0.4694420000000  0.5164020000000 1.0
C      1  0.5950900000000  0.5019530000000  0.4692980000000 1.0
C      1  0.4096990000000  0.5273380000000  0.5175900000000 1.0
C      1  0.4054650000000  0.4722260000000  0.5148820000000 1.0
C      1  0.4080180000000  0.5025830000000  0.4674900000000 1.0
C      1  0.4790540000000  0.5222120000000  0.4493390000000 1.0
C      1  0.4782190000000  0.5231110000000  0.5515820000000 1.0
C      1  0.4744220000000  0.4402060000000  0.4928570000000 1.0
C      1  0.5261360000000  0.5375960000000  0.4585310000000 1.0
C      1  0.5282230000000  0.5210750000000  0.5560260000000 1.0
C      1  0.5223210000000  0.4460700000000  0.5007670000000 1.0
C      1  0.5808050000000  0.4771970000000  0.5661390000000 1.0
C      1  0.5814330000000  0.4563810000000  0.4480930000000 1.0
C      1  0.5847410000000  0.5666510000000  0.4881320000000 1.0
C      1  0.4180170000000  0.4763290000000  0.5646700000000 1.0
C      1  0.4146450000000  0.4574020000000  0.4499130000000 1.0
C      1  0.4192290000000  0.5658430000000  0.4866480000000 1.0
C      1  0.5138650000000  0.4424910000000  0.6010060000000 1.0
C      1  0.5130070000000  0.4451750000000  0.3996900000000 1.0
C      1  0.5096930000000  0.6026620000000  0.4984780000000 1.0
C      1  0.4846510000000  0.4421710000000  0.6005610000000 1.0
C      1  0.4831700000000  0.4463660000000  0.3993680000000 1.0
C      1  0.4832130000000  0.6166680000000  0.5007570000000 1.0
C      1  0.4761040000000  0.4783980000000  0.5129550000000 1.0
C      1  0.4767070000000  0.4931550000000  0.4884050000000 1.0
C      1  0.4791420000000  0.5183380000000  0.5017870000000 1.0
C      1  0.5210110000000  0.4946390000000  0.5072860000000 1.0
C      1  0.5195150000000  0.4939130000000  0.4760210000000 1.0
C      1  0.5224640000000  0.5232390000000  0.5092470000000 1.0
C      1  0.4883140000000  0.5347500000000  0.4805880000000 1.0
C      1  0.4830570000000  0.4937380000000  0.5366360000000 1.0
C      1  0.4853200000000  0.4646000000000  0.4783750000000 1.0
C      1  0.5153660000000  0.5340970000000  0.4853000000000 1.0
C      1  0.5089520000000  0.4886230000000  0.5299480000000 1.0
C      1  0.5149430000000  0.4642090000000  0.4786830000000 1.0
C      1  0.4745360000000  0.5425610000000  0.5937320000000 1.0
C      1  0.4732780000000  0.3969040000000  0.4907070000000 1.0
C      1  0.4731170000000  0.5604930000000  0.4206470000000 1.0
C      1  0.5270490000000  0.5432060000000  0.5952020000000 1.0
C      1  0.5261870000000  0.4001220000000  0.4896460000000 1.0
C      1  0.5268030000000  0.5604290000000  0.4180420000000 1.0
C      1  0.4634140000000  0.6057910000000  0.5195100000000 1.0
C      1  0.4669400000000  0.4291490000000  0.5813310000000 1.0
C      1  0.4585010000000  0.4677420000000  0.4001830000000 1.0
C      1  0.5475910000000  0.5919770000000  0.5256000000000 1.0
C      1  0.5341270000000  0.4296760000000  0.5846060000000 1.0
C      1  0.5337640000000  0.4659850000000  0.3972310000000 1.0
C      1  0.5074470000000  0.5333000000000  0.5381220000000 1.0
C      1  0.5059010000000  0.5104360000000  0.4539370000000 1.0
C      1  0.4950710000000  0.4491200000000  0.5124570000000 1.0
C      1  0.5949660000000  0.5008340000000  0.4993210000000 1.0
C      1  0.4064400000000  0.5013440000000  0.5004770000000 1.0
END
