TITL C-2441160-1326-172 0.0988249996741685 125000 -6554.16161863119 0 0 68 (C1) n - 1
REM
REM in /home/bkarasulu/work/CARBON/AIRSS/Generating-Clusters/ReaxFF-fromJPCA2015/Units_Real/with-SteepDescent/Higher-Symm
REM
REM
REM
REM
REM
REM ./C.cell (1df0a924f5614ab8850e4351716899ee)
REM
REM compiler GCC version 9.2.1 20190827 (Red Hat 9.2.1-1)
REM options -cpp -mtune=generic -march=x86-64 -g -O0 -fpre-include=/usr/include/finclude/math-vector-fortran.h
REM seed 1602065549 -1972700639 -1963763322 1000607758 -1070311139 572973376 1336777925 -1351190550 1008777957 -2043652101 224313831 1860639381 -1516683481 -151488511 -1385182819 1445372829 1740421552 -1604338423 -731213607 -1079662889 -472347194 1316294979 -48261058 -65388751 50075829 2143010363 -2109446518 -1911789627 504726037 1210696538 2058853754 -843279522 -1388972856
REM
CELL 1.54180   50.00000   50.00000   50.00000   90.00000   90.00000   90.00000
LATT -1
SFAC C  
C      1  0.5298430000000  0.4471050000000  0.4564760000000 1.0
C      1  0.5323160000000  0.5536450000000  0.4561100000000 1.0
C      1  0.4387030000000  0.5047860000000  0.4604280000000 1.0
C      1  0.4728710000000  0.4466370000000  0.5384480000000 1.0
C      1  0.4659250000000  0.5489120000000  0.5376560000000 1.0
C      1  0.5605950000000  0.5009070000000  0.5411940000000 1.0
C      1  0.4436980000000  0.4956950000000  0.5085800000000 1.0
C      1  0.5323130000000  0.4543650000000  0.5091010000000 1.0
C      1  0.5240130000000  0.5484180000000  0.5089920000000 1.0
C      1  0.5571470000000  0.4955740000000  0.4889290000000 1.0
C      1  0.4677870000000  0.4528630000000  0.4877020000000 1.0
C      1  0.4748840000000  0.5480380000000  0.4902420000000 1.0
C      1  0.4630810000000  0.4867700000000  0.4481960000000 1.0
C      1  0.5295200000000  0.4752230000000  0.4467360000000 1.0
C      1  0.5060840000000  0.5391260000000  0.4472330000000 1.0
C      1  0.5336190000000  0.4872440000000  0.5537490000000 1.0
C      1  0.4697510000000  0.4771120000000  0.5522320000000 1.0
C      1  0.4945160000000  0.5393440000000  0.5487420000000 1.0
C      1  0.4716960000000  0.5271960000000  0.4527000000000 1.0
C      1  0.4923580000000  0.4592700000000  0.4571310000000 1.0
C      1  0.5353580000000  0.5136770000000  0.4597270000000 1.0
C      1  0.5298260000000  0.5257250000000  0.5429960000000 1.0
C      1  0.5107920000000  0.4572940000000  0.5481530000000 1.0
C      1  0.4608210000000  0.5106270000000  0.5423310000000 1.0
C      1  0.5147470000000  0.5002490000000  0.5726800000000 1.0
C      1  0.4912260000000  0.5165090000000  0.5715690000000 1.0
C      1  0.4892980000000  0.4882020000000  0.5720010000000 1.0
C      1  0.4837830000000  0.4983030000000  0.4258540000000 1.0
C      1  0.5066350000000  0.5152410000000  0.4253280000000 1.0
C      1  0.5099210000000  0.4868530000000  0.4254350000000 1.0
C      1  0.4797270000000  0.4854660000000  0.4840690000000 1.0
C      1  0.5213710000000  0.4843410000000  0.4852310000000 1.0
C      1  0.4982880000000  0.5267330000000  0.4854320000000 1.0
C      1  0.5245400000000  0.4884380000000  0.5131590000000 1.0
C      1  0.4771830000000  0.4851790000000  0.5120850000000 1.0
C      1  0.5053220000000  0.5263390000000  0.5116510000000 1.0
C      1  0.5318960000000  0.5543530000000  0.5402120000000 1.0
C      1  0.4362620000000  0.5030540000000  0.5398000000000 1.0
C      1  0.5357100000000  0.4460010000000  0.5381380000000 1.0
C      1  0.4691990000000  0.5551560000000  0.4584690000000 1.0
C      1  0.5617690000000  0.5005080000000  0.4588610000000 1.0
C      1  0.4689840000000  0.4458920000000  0.4584010000000 1.0
C      1  0.5055890000000  0.4423910000000  0.4408270000000 1.0
C      1  0.5451770000000  0.5326470000000  0.4409390000000 1.0
C      1  0.4474020000000  0.5245020000000  0.4415990000000 1.0
C      1  0.4908110000000  0.4420800000000  0.5595580000000 1.0
C      1  0.4564490000000  0.5301280000000  0.5577120000000 1.0
C      1  0.5522550000000  0.5228390000000  0.5580460000000 1.0
C      1  0.5610870000000  0.4521070000000  0.5019270000000 1.0
C      1  0.5099270000000  0.5765340000000  0.5026140000000 1.0
C      1  0.4266300000000  0.4697770000000  0.5023310000000 1.0
C      1  0.4378140000000  0.4518570000000  0.4957420000000 1.0
C      1  0.4887390000000  0.5758210000000  0.4968750000000 1.0
C      1  0.5717310000000  0.4709710000000  0.4952540000000 1.0
C      1  0.4836260000000  0.4551010000000  0.5125950000000 1.0
C      1  0.5476170000000  0.5064410000000  0.5146750000000 1.0
C      1  0.4614550000000  0.5348380000000  0.5130040000000 1.0
C      1  0.5139650000000  0.4545520000000  0.4835040000000 1.0
C      1  0.4460850000000  0.5135150000000  0.4865080000000 1.0
C      1  0.5343550000000  0.5378240000000  0.4809160000000 1.0
C      1  0.4400760000000  0.4762980000000  0.5548310000000 1.0
C      1  0.5516050000000  0.4658350000000  0.5504860000000 1.0
C      1  0.5083780000000  0.5638980000000  0.5521230000000 1.0
C      1  0.5566190000000  0.4748880000000  0.4483130000000 1.0
C      1  0.4489620000000  0.4623760000000  0.4473830000000 1.0
C      1  0.4938290000000  0.5646050000000  0.4474560000000 1.0
C      1  0.5006450000000  0.5003490000000  0.4722730000000 1.0
C      1  0.4997250000000  0.5014360000000  0.5307520000000 1.0
END
