TITL C-2441161-5029-1429 0.0169995396621147 125000 -20636.8269255811 0 0 139 (C1) n - 1
REM
REM in /home/bkarasulu/work/CARBON/AIRSS/Generating-Clusters/ReaxFF-fromJPCA2015/Units_Real/with-SteepDescent/Higher-Symm
REM
REM
REM
REM
REM
REM ./C.cell (1df0a924f5614ab8850e4351716899ee)
REM
REM compiler GCC version 9.2.1 20190827 (Red Hat 9.2.1-1)
REM options -cpp -mtune=generic -march=x86-64 -g -O0 -fpre-include=/usr/include/finclude/math-vector-fortran.h
REM seed 299936490 -357718187 -1796508527 -750650535 1254314892 -296878695 135350760 28184483 639083015 1463778914 -103828222 184945061 -499211220 241717791 -1819640194 -201945557 -2029654406 424121868 -481092220 -1725373978 -1539421700 224268756 -916284961 1103418561 -579606113 1049151474 -17391826 1759952307 1006647358 1616703067 841118977 881692394 -5857749
REM
CELL 1.54180   50.00000   50.00000   50.00000   90.00000   90.00000   90.00000
LATT -1
SFAC C  
C      1  0.4602480000000  0.4279780000000  0.4541950000000 1.0
C      1  0.5034720000000  0.5917440000000  0.5197210000000 1.0
C      1  0.5685530000000  0.5497850000000  0.4642760000000 1.0
C      1  0.5768100000000  0.4532590000000  0.4353160000000 1.0
C      1  0.5808610000000  0.4483010000000  0.4864900000000 1.0
C      1  0.5473440000000  0.5564550000000  0.4439260000000 1.0
C      1  0.5075070000000  0.5908250000000  0.4397010000000 1.0
C      1  0.5367730000000  0.4954350000000  0.5310910000000 1.0
C      1  0.4586090000000  0.5046370000000  0.5267210000000 1.0
C      1  0.5134970000000  0.3997410000000  0.4841950000000 1.0
C      1  0.5038950000000  0.5964120000000  0.4888760000000 1.0
C      1  0.4167340000000  0.4973190000000  0.4502950000000 1.0
C      1  0.4029370000000  0.4767690000000  0.4997440000000 1.0
C      1  0.5518280000000  0.5223570000000  0.5729900000000 1.0
C      1  0.4437390000000  0.5458260000000  0.4711170000000 1.0
C      1  0.5118370000000  0.5355980000000  0.5571230000000 1.0
C      1  0.4127490000000  0.5062330000000  0.5367900000000 1.0
C      1  0.5581790000000  0.4812400000000  0.4637820000000 1.0
C      1  0.4941910000000  0.4046750000000  0.4624600000000 1.0
C      1  0.5821230000000  0.5011640000000  0.5538820000000 1.0
C      1  0.5032620000000  0.5280600000000  0.4237960000000 1.0
C      1  0.5004310000000  0.4452880000000  0.4232120000000 1.0
C      1  0.4812880000000  0.5794610000000  0.5617940000000 1.0
C      1  0.4506500000000  0.4648970000000  0.5087320000000 1.0
C      1  0.4776750000000  0.5959150000000  0.5382830000000 1.0
C      1  0.5028010000000  0.5421110000000  0.5299420000000 1.0
C      1  0.4779650000000  0.4581860000000  0.5134080000000 1.0
C      1  0.4975840000000  0.4330780000000  0.5746460000000 1.0
C      1  0.3957800000000  0.4583440000000  0.4774030000000 1.0
C      1  0.5506430000000  0.4223310000000  0.4657230000000 1.0
C      1  0.4477280000000  0.5132030000000  0.5776250000000 1.0
C      1  0.5302400000000  0.5799890000000  0.4505510000000 1.0
C      1  0.5311740000000  0.4406340000000  0.4532880000000 1.0
C      1  0.4586470000000  0.5910500000000  0.4870910000000 1.0
C      1  0.5520760000000  0.4683060000000  0.5756060000000 1.0
C      1  0.4644550000000  0.4132400000000  0.5302380000000 1.0
C      1  0.4355000000000  0.5650880000000  0.5284410000000 1.0
C      1  0.4679030000000  0.4081660000000  0.4748080000000 1.0
C      1  0.4912830000000  0.5387200000000  0.4481200000000 1.0
C      1  0.5932170000000  0.4724940000000  0.5210060000000 1.0
C      1  0.4858970000000  0.5142670000000  0.5245540000000 1.0
C      1  0.5368400000000  0.5227470000000  0.4951430000000 1.0
C      1  0.4175730000000  0.5492950000000  0.5161190000000 1.0
C      1  0.4226750000000  0.5228640000000  0.4389490000000 1.0
C      1  0.5171270000000  0.4787270000000  0.5242780000000 1.0
C      1  0.5235140000000  0.5193850000000  0.4717920000000 1.0
C      1  0.5332880000000  0.5431670000000  0.5142440000000 1.0
C      1  0.5511880000000  0.5026240000000  0.5071930000000 1.0
C      1  0.4226780000000  0.4741530000000  0.4323400000000 1.0
C      1  0.5965920000000  0.5110420000000  0.4837170000000 1.0
C      1  0.5977190000000  0.4999390000000  0.5316050000000 1.0
C      1  0.5482920000000  0.4721370000000  0.4099930000000 1.0
C      1  0.5093130000000  0.5480290000000  0.5829750000000 1.0
C      1  0.5585040000000  0.5439410000000  0.5316300000000 1.0
C      1  0.4447410000000  0.5051570000000  0.5016840000000 1.0
C      1  0.5286740000000  0.4369110000000  0.4243460000000 1.0
C      1  0.4602520000000  0.4881700000000  0.5768590000000 1.0
C      1  0.4548590000000  0.4814190000000  0.5490340000000 1.0
C      1  0.5847000000000  0.5247380000000  0.4611130000000 1.0
C      1  0.4780230000000  0.4642680000000  0.5423620000000 1.0
C      1  0.4872200000000  0.4270540000000  0.4423160000000 1.0
C      1  0.4304130000000  0.4197520000000  0.5002140000000 1.0
C      1  0.5414010000000  0.5714230000000  0.5020850000000 1.0
C      1  0.5545000000000  0.5483130000000  0.5599940000000 1.0
C      1  0.5353740000000  0.4967050000000  0.4101590000000 1.0
C      1  0.5247330000000  0.4928650000000  0.6123810000000 1.0
C      1  0.4490500000000  0.5242000000000  0.4240570000000 1.0
C      1  0.4993220000000  0.5057670000000  0.6090280000000 1.0
C      1  0.5344980000000  0.4703290000000  0.4587000000000 1.0
C      1  0.4976360000000  0.4853920000000  0.5420890000000 1.0
C      1  0.5092300000000  0.5742650000000  0.5706020000000 1.0
C      1  0.5783730000000  0.4809430000000  0.4445520000000 1.0
C      1  0.5657480000000  0.4962800000000  0.5748870000000 1.0
C      1  0.4939540000000  0.4113080000000  0.5315980000000 1.0
C      1  0.5421460000000  0.4057030000000  0.4889140000000 1.0
C      1  0.5763400000000  0.4369440000000  0.4606830000000 1.0
C      1  0.5054640000000  0.4639670000000  0.5012900000000 1.0
C      1  0.5319030000000  0.5833610000000  0.5283960000000 1.0
C      1  0.5562620000000  0.4464430000000  0.4148230000000 1.0
C      1  0.4821050000000  0.6006690000000  0.4437120000000 1.0
C      1  0.4887670000000  0.5642280000000  0.5161150000000 1.0
C      1  0.5551960000000  0.4494930000000  0.5535830000000 1.0
C      1  0.4402150000000  0.4487030000000  0.4618330000000 1.0
C      1  0.5048960000000  0.4559290000000  0.5901780000000 1.0
C      1  0.4794890000000  0.4981180000000  0.4818270000000 1.0
C      1  0.5225150000000  0.4411340000000  0.5003920000000 1.0
C      1  0.5125750000000  0.4198940000000  0.5521100000000 1.0
C      1  0.4509470000000  0.4331770000000  0.5462200000000 1.0
C      1  0.4838820000000  0.5239560000000  0.4953350000000 1.0
C      1  0.5080440000000  0.4968980000000  0.4250400000000 1.0
C      1  0.4805760000000  0.6048850000000  0.4741250000000 1.0
C      1  0.4290010000000  0.5210080000000  0.5564050000000 1.0
C      1  0.4582940000000  0.5830150000000  0.4381080000000 1.0
C      1  0.5685810000000  0.5604390000000  0.4909560000000 1.0
C      1  0.5542630000000  0.5176620000000  0.4209180000000 1.0
C      1  0.4652660000000  0.4999580000000  0.4592890000000 1.0
C      1  0.5924830000000  0.4775080000000  0.4910910000000 1.0
C      1  0.5575160000000  0.4418000000000  0.5058550000000 1.0
C      1  0.5974750000000  0.5219780000000  0.5092180000000 1.0
C      1  0.4352080000000  0.4464440000000  0.4911970000000 1.0
C      1  0.5773670000000  0.5092590000000  0.4373370000000 1.0
C      1  0.4495810000000  0.4717270000000  0.4233050000000 1.0
C      1  0.4170160000000  0.4979040000000  0.4829610000000 1.0
C      1  0.4652970000000  0.5359080000000  0.5867910000000 1.0
C      1  0.5343900000000  0.5721190000000  0.5543660000000 1.0
C      1  0.4720330000000  0.5372180000000  0.4115100000000 1.0
C      1  0.4637130000000  0.5619680000000  0.4205610000000 1.0
C      1  0.4694310000000  0.4770650000000  0.4405690000000 1.0
C      1  0.4624790000000  0.5799740000000  0.5172780000000 1.0
C      1  0.4713730000000  0.4408080000000  0.5641550000000 1.0
C      1  0.5395640000000  0.4256540000000  0.5428940000000 1.0
C      1  0.4155130000000  0.5373950000000  0.4636080000000 1.0
C      1  0.4543890000000  0.4056790000000  0.5021860000000 1.0
C      1  0.5165710000000  0.4926790000000  0.4583200000000 1.0
C      1  0.4613770000000  0.5580610000000  0.5689510000000 1.0
C      1  0.4126880000000  0.4535770000000  0.4532990000000 1.0
C      1  0.5191770000000  0.5735580000000  0.4788350000000 1.0
C      1  0.4026250000000  0.5266750000000  0.5159350000000 1.0
C      1  0.5308640000000  0.4672100000000  0.5955940000000 1.0
C      1  0.5345740000000  0.5374440000000  0.4264370000000 1.0
C      1  0.4026160000000  0.5239880000000  0.4863090000000 1.0
C      1  0.5050580000000  0.4184080000000  0.5052820000000 1.0
C      1  0.5641430000000  0.4862610000000  0.4885560000000 1.0
C      1  0.4489560000000  0.5758640000000  0.4656060000000 1.0
C      1  0.5064820000000  0.4927710000000  0.5662250000000 1.0
C      1  0.4120600000000  0.4785560000000  0.5281180000000 1.0
C      1  0.5710710000000  0.4554490000000  0.5298360000000 1.0
C      1  0.4382550000000  0.5494030000000  0.5528360000000 1.0
C      1  0.4908530000000  0.5327050000000  0.6002580000000 1.0
C      1  0.4550230000000  0.5306000000000  0.4944280000000 1.0
C      1  0.4897190000000  0.4732920000000  0.4195510000000 1.0
C      1  0.5270540000000  0.5107530000000  0.5580960000000 1.0
C      1  0.5495930000000  0.4148710000000  0.5168510000000 1.0
C      1  0.4364870000000  0.4615020000000  0.5356080000000 1.0
C      1  0.4993250000000  0.4791290000000  0.4768980000000 1.0
C      1  0.5815890000000  0.5466980000000  0.5128370000000 1.0
C      1  0.5050300000000  0.5418330000000  0.4736130000000 1.0
C      1  0.4628000000000  0.5265010000000  0.4498630000000 1.0
C      1  0.4883580000000  0.4843270000000  0.5877240000000 1.0
END
