TITL C-2441160-1326-143 0.0218808261164211 125000 -8375.89632195349 0 0 62 (C1) n - 1
REM
REM in /home/bkarasulu/work/CARBON/AIRSS/Generating-Clusters/ReaxFF-fromJPCA2015/Units_Real/with-SteepDescent/Higher-Symm
REM
REM
REM
REM
REM
REM ./C.cell (1df0a924f5614ab8850e4351716899ee)
REM
REM compiler GCC version 9.2.1 20190827 (Red Hat 9.2.1-1)
REM options -cpp -mtune=generic -march=x86-64 -g -O0 -fpre-include=/usr/include/finclude/math-vector-fortran.h
REM seed -1207865639 757054702 1310475270 -1421792459 -193321403 -1375924591 -64378570 39975974 -921279231 -1361748392 -1790948142 1409140253 1483613781 -1476462723 -1290020256 472975569 1996101193 -41943727 -1063346123 -1858251915 316045635 216463378 1874626796 1715666777 -817764746 -1851353869 1976612765 330353006 -1400783861 176337789 1826721834 1659437871 957276790
REM
CELL 1.54180   50.00000   50.00000   50.00000   90.00000   90.00000   90.00000
LATT -1
SFAC C  
C      1  0.4268100000000  0.5355150000000  0.4871340000000 1.0
C      1  0.5730090000000  0.4659310000000  0.4867740000000 1.0
C      1  0.4321930000000  0.5440040000000  0.5133680000000 1.0
C      1  0.5681640000000  0.4569560000000  0.5130790000000 1.0
C      1  0.5157810000000  0.4731950000000  0.5851450000000 1.0
C      1  0.4836340000000  0.5259350000000  0.5851920000000 1.0
C      1  0.5050980000000  0.4726230000000  0.4124370000000 1.0
C      1  0.4942610000000  0.5277740000000  0.4140030000000 1.0
C      1  0.5432850000000  0.5482580000000  0.5376110000000 1.0
C      1  0.4571680000000  0.4516810000000  0.5368940000000 1.0
C      1  0.5406170000000  0.5525960000000  0.4567750000000 1.0
C      1  0.4582700000000  0.4465620000000  0.4569510000000 1.0
C      1  0.4923420000000  0.4885580000000  0.5311650000000 1.0
C      1  0.5074040000000  0.5126940000000  0.5318310000000 1.0
C      1  0.4933380000000  0.4871500000000  0.4662270000000 1.0
C      1  0.5057620000000  0.5126550000000  0.4636390000000 1.0
C      1  0.4914690000000  0.5411860000000  0.5651990000000 1.0
C      1  0.5078820000000  0.4578830000000  0.5650880000000 1.0
C      1  0.4940900000000  0.5362140000000  0.4399030000000 1.0
C      1  0.5082730000000  0.4579010000000  0.4344500000000 1.0
C      1  0.4661950000000  0.4901770000000  0.4578830000000 1.0
C      1  0.5346000000000  0.5055830000000  0.4564870000000 1.0
C      1  0.4742630000000  0.4849870000000  0.5520930000000 1.0
C      1  0.5269960000000  0.5137050000000  0.5538320000000 1.0
C      1  0.5044470000000  0.4692190000000  0.4856320000000 1.0
C      1  0.4950530000000  0.5315660000000  0.4856120000000 1.0
C      1  0.5051300000000  0.4696250000000  0.5132090000000 1.0
C      1  0.4956170000000  0.5316720000000  0.5133990000000 1.0
C      1  0.5473970000000  0.4959550000000  0.4783720000000 1.0
C      1  0.4515890000000  0.5058730000000  0.4749900000000 1.0
C      1  0.5580230000000  0.4958050000000  0.5235100000000 1.0
C      1  0.4412830000000  0.5049150000000  0.5234630000000 1.0
C      1  0.5527190000000  0.5194650000000  0.5394700000000 1.0
C      1  0.4496400000000  0.4813170000000  0.5379310000000 1.0
C      1  0.5524140000000  0.5270240000000  0.4551750000000 1.0
C      1  0.4458460000000  0.4719710000000  0.4552730000000 1.0
C      1  0.5147470000000  0.4430280000000  0.5218360000000 1.0
C      1  0.4848430000000  0.5582700000000  0.5222840000000 1.0
C      1  0.5144680000000  0.4427600000000  0.4776060000000 1.0
C      1  0.4841800000000  0.5578330000000  0.4777170000000 1.0
C      1  0.4936180000000  0.4250800000000  0.4855020000000 1.0
C      1  0.5062760000000  0.5763840000000  0.4846390000000 1.0
C      1  0.4932330000000  0.4243580000000  0.5140600000000 1.0
C      1  0.5071620000000  0.5758950000000  0.5142750000000 1.0
C      1  0.5526040000000  0.4698600000000  0.4643300000000 1.0
C      1  0.4470940000000  0.5318630000000  0.4658630000000 1.0
C      1  0.5536700000000  0.4671490000000  0.5348130000000 1.0
C      1  0.4458950000000  0.5328400000000  0.5350180000000 1.0
C      1  0.4673120000000  0.4352770000000  0.4840840000000 1.0
C      1  0.5333120000000  0.5647750000000  0.4838340000000 1.0
C      1  0.4661380000000  0.4370040000000  0.5131450000000 1.0
C      1  0.5339080000000  0.5626620000000  0.5131150000000 1.0
C      1  0.4771120000000  0.4579620000000  0.5574250000000 1.0
C      1  0.5231300000000  0.5420810000000  0.5582050000000 1.0
C      1  0.4791630000000  0.4562090000000  0.4395280000000 1.0
C      1  0.5194290000000  0.5444890000000  0.4407140000000 1.0
C      1  0.4700040000000  0.5483170000000  0.5445370000000 1.0
C      1  0.5300910000000  0.4516320000000  0.5443440000000 1.0
C      1  0.4698090000000  0.5471100000000  0.4554270000000 1.0
C      1  0.5316320000000  0.4517970000000  0.4568840000000 1.0
C      1  0.4316100000000  0.5072270000000  0.4953450000000 1.0
C      1  0.5694990000000  0.4940040000000  0.4965010000000 1.0
END
