TITL C-2441159-1093-1448 0.0084162526282299 125000 -4384.67677990564 0 0 34 (C1) n - 1
REM
REM in /home/bkarasulu/work/CARBON/AIRSS/Generating-Clusters/ReaxFF-fromJPCA2015/Units_Real/with-SteepDescent/Higher-Symm
REM
REM
REM
REM
REM
REM ./C.cell (1df0a924f5614ab8850e4351716899ee)
REM
REM compiler GCC version 9.2.1 20190827 (Red Hat 9.2.1-1)
REM options -cpp -mtune=generic -march=x86-64 -g -O0 -fpre-include=/usr/include/finclude/math-vector-fortran.h
REM seed -386725270 389276527 1083509617 143451905 -1089799373 119924629 -1284347372 1717258067 509330747 -753304027 375477592 -2063023651 208596047 1782992925 -1384066565 -1542509594 1033867738 -827116631 -704724276 594071875 1940053981 139483332 1579900504 1200575885 973978955 -752941879 1106067038 992804189 -228258562 1607578444 1735774869 1481943332 -241714521
REM
CELL 1.54180   50.00000   50.00000   50.00000   90.00000   90.00000   90.00000
LATT -1
SFAC C  
C      1  0.5398210000000  0.5287290000000  0.5092750000000 1.0
C      1  0.4920450000000  0.5383360000000  0.5208690000000 1.0
C      1  0.4625210000000  0.5065550000000  0.5133730000000 1.0
C      1  0.4872840000000  0.4689050000000  0.5083550000000 1.0
C      1  0.5288220000000  0.4866070000000  0.5088580000000 1.0
C      1  0.5458070000000  0.5103590000000  0.4661580000000 1.0
C      1  0.5072390000000  0.5323860000000  0.4630470000000 1.0
C      1  0.4709340000000  0.5121080000000  0.4611260000000 1.0
C      1  0.4746480000000  0.4679420000000  0.4625520000000 1.0
C      1  0.5243750000000  0.4659740000000  0.4621870000000 1.0
C      1  0.4353930000000  0.4657230000000  0.5300510000000 1.0
C      1  0.5185950000000  0.4229190000000  0.5314000000000 1.0
C      1  0.5709090000000  0.4857580000000  0.5146530000000 1.0
C      1  0.5416280000000  0.5671120000000  0.5205500000000 1.0
C      1  0.4471670000000  0.5515420000000  0.5294910000000 1.0
C      1  0.5181890000000  0.5533390000000  0.5182360000000 1.0
C      1  0.4490900000000  0.5330380000000  0.5090890000000 1.0
C      1  0.4547990000000  0.4635590000000  0.5121750000000 1.0
C      1  0.5114000000000  0.4368810000000  0.5133210000000 1.0
C      1  0.5470170000000  0.5055010000000  0.5214930000000 1.0
C      1  0.4748970000000  0.5469980000000  0.4986370000000 1.0
C      1  0.4469140000000  0.4885230000000  0.4970190000000 1.0
C      1  0.4939120000000  0.4452180000000  0.4925450000000 1.0
C      1  0.5521930000000  0.4725580000000  0.4961010000000 1.0
C      1  0.5486900000000  0.5421650000000  0.4924080000000 1.0
C      1  0.5476020000000  0.4817490000000  0.4658640000000 1.0
C      1  0.5371740000000  0.5367940000000  0.4655170000000 1.0
C      1  0.4794200000000  0.5405370000000  0.4701620000000 1.0
C      1  0.4551300000000  0.4878920000000  0.4673680000000 1.0
C      1  0.4991020000000  0.4528090000000  0.4624940000000 1.0
C      1  0.4985610000000  0.5042650000000  0.4687480000000 1.0
C      1  0.4888710000000  0.5114500000000  0.5343440000000 1.0
C      1  0.5023680000000  0.4909380000000  0.4962260000000 1.0
C      1  0.5011190000000  0.5005250000000  0.5549300000000 1.0
END
