TITL C-2441161-5029-503 0.000623931839685762 125000 -7717.64051785285 0 0 53 (C1) n - 1
REM
REM in /home/bkarasulu/work/CARBON/AIRSS/Generating-Clusters/ReaxFF-fromJPCA2015/Units_Real/with-SteepDescent/Higher-Symm
REM
REM
REM
REM
REM
REM ./C.cell (1df0a924f5614ab8850e4351716899ee)
REM
REM compiler GCC version 9.2.1 20190827 (Red Hat 9.2.1-1)
REM options -cpp -mtune=generic -march=x86-64 -g -O0 -fpre-include=/usr/include/finclude/math-vector-fortran.h
REM seed -1253307243 1112692043 531365820 2105445178 1078433905 -1198704805 -1179808344 -1457658370 747844124 -1026214519 -392158657 1053605261 -1967082957 1228259912 805418957 1092338375 977253363 -306680044 -2133885576 855054627 -1311104889 -543137342 549970290 1063554804 -1662206744 -699515976 -53269465 741872094 -1846430599 -78108435 -1123258802 -1058876291 -1247602327
REM
CELL 1.54180   50.00000   50.00000   50.00000   90.00000   90.00000   90.00000
LATT -1
SFAC C  
C      1  0.5110790000000  0.4676390000000  0.4468600000000 1.0
C      1  0.4653500000000  0.4436170000000  0.5170640000000 1.0
C      1  0.4563550000000  0.5016140000000  0.4695580000000 1.0
C      1  0.5023320000000  0.4643330000000  0.5490730000000 1.0
C      1  0.4886050000000  0.5322670000000  0.4469960000000 1.0
C      1  0.4975800000000  0.5360380000000  0.5491490000000 1.0
C      1  0.5244930000000  0.4561660000000  0.4879200000000 1.0
C      1  0.5346010000000  0.5570270000000  0.5174460000000 1.0
C      1  0.4753710000000  0.5437370000000  0.4881550000000 1.0
C      1  0.5534430000000  0.5133600000000  0.5332280000000 1.0
C      1  0.5430560000000  0.4985150000000  0.4697030000000 1.0
C      1  0.4464980000000  0.4870620000000  0.5329300000000 1.0
C      1  0.4543350000000  0.4683720000000  0.5067490000000 1.0
C      1  0.4994460000000  0.4583840000000  0.4718000000000 1.0
C      1  0.4675640000000  0.5134360000000  0.4458930000000 1.0
C      1  0.5450210000000  0.4744160000000  0.4870050000000 1.0
C      1  0.4545750000000  0.5257570000000  0.4867370000000 1.0
C      1  0.5454640000000  0.5321260000000  0.5071470000000 1.0
C      1  0.4872080000000  0.4429270000000  0.5360120000000 1.0
C      1  0.5126550000000  0.5576040000000  0.5363180000000 1.0
C      1  0.5003740000000  0.5415050000000  0.4720110000000 1.0
C      1  0.5355480000000  0.4976050000000  0.5491050000000 1.0
C      1  0.4643830000000  0.5026730000000  0.5489560000000 1.0
C      1  0.5319190000000  0.4866660000000  0.4459370000000 1.0
C      1  0.4813370000000  0.5708860000000  0.4961450000000 1.0
C      1  0.5735310000000  0.5027570000000  0.4774630000000 1.0
C      1  0.5001840000000  0.4791230000000  0.5747040000000 1.0
C      1  0.5220520000000  0.5773910000000  0.5009030000000 1.0
C      1  0.5184840000000  0.4290640000000  0.4960580000000 1.0
C      1  0.4776880000000  0.4229560000000  0.5007220000000 1.0
C      1  0.4239860000000  0.4991830000000  0.5190540000000 1.0
C      1  0.4258480000000  0.4976000000000  0.4774070000000 1.0
C      1  0.5757820000000  0.5012410000000  0.5190930000000 1.0
C      1  0.4988550000000  0.4790740000000  0.4226230000000 1.0
C      1  0.4996170000000  0.5211640000000  0.5747290000000 1.0
C      1  0.5005790000000  0.5208830000000  0.4226630000000 1.0
C      1  0.5045250000000  0.5711590000000  0.4782510000000 1.0
C      1  0.4790160000000  0.4998300000000  0.5748320000000 1.0
C      1  0.5717030000000  0.4809950000000  0.4969590000000 1.0
C      1  0.4987000000000  0.5779400000000  0.5191860000000 1.0
C      1  0.5009860000000  0.4223110000000  0.5190790000000 1.0
C      1  0.4953660000000  0.4287070000000  0.4780610000000 1.0
C      1  0.5207850000000  0.4993360000000  0.4223620000000 1.0
C      1  0.4786800000000  0.5006310000000  0.4223520000000 1.0
C      1  0.5207830000000  0.5004500000000  0.5749150000000 1.0
C      1  0.4248820000000  0.4777500000000  0.4986540000000 1.0
C      1  0.5746930000000  0.5226510000000  0.4986830000000 1.0
C      1  0.4278940000000  0.5193890000000  0.4968580000000 1.0
C      1  0.5167320000000  0.4827020000000  0.5311640000000 1.0
C      1  0.4832320000000  0.5176920000000  0.5311480000000 1.0
C      1  0.5273450000000  0.5240610000000  0.4830490000000 1.0
C      1  0.4724960000000  0.4760870000000  0.4826360000000 1.0
C      1  0.4999380000000  0.5001610000000  0.5133070000000 1.0
END
