TITL C-2441157-2117-1153 0.160463910289221 125000 -20007.4065702193 0 0 166 (C1) n - 1
REM
REM in /home/bkarasulu/work/CARBON/AIRSS/Generating-Clusters/ReaxFF-fromJPCA2015/Units_Real/with-SteepDescent/Higher-Symm
REM
REM
REM
REM
REM
REM ./C.cell (1df0a924f5614ab8850e4351716899ee)
REM
REM compiler GCC version 9.2.1 20190827 (Red Hat 9.2.1-1)
REM options -cpp -mtune=generic -march=x86-64 -g -O0 -fpre-include=/usr/include/finclude/math-vector-fortran.h
REM seed 1269830980 122330217 -2080864823 -238148427 1505843949 -1240112998 -71585218 -1906916297 -1772489565 183429048 -362766133 1424961563 -1220794133 279415212 -1530191013 2144455771 -1728202194 1678146656 -770468156 216522513 123085584 -607779879 2111992420 -1834734835 -1044448282 290715707 720358487 -436212024 511481660 140366900 -250937620 982533141 941630837
REM
CELL 1.54180   50.00000   50.00000   50.00000   90.00000   90.00000   90.00000
LATT -1
SFAC C  
C      1  0.5655900000000  0.5494180000000  0.5177910000000 1.0
C      1  0.5646620000000  0.5462380000000  0.4741170000000 1.0
C      1  0.5570730000000  0.4983570000000  0.4643130000000 1.0
C      1  0.5662250000000  0.4681550000000  0.4618680000000 1.0
C      1  0.5625270000000  0.4499940000000  0.5044110000000 1.0
C      1  0.5642860000000  0.4711710000000  0.5422460000000 1.0
C      1  0.5654380000000  0.5154380000000  0.5484370000000 1.0
C      1  0.4922950000000  0.5853440000000  0.4775530000000 1.0
C      1  0.4932040000000  0.5361670000000  0.4195610000000 1.0
C      1  0.4919330000000  0.4602490000000  0.4211370000000 1.0
C      1  0.4918550000000  0.4143460000000  0.4814120000000 1.0
C      1  0.4898300000000  0.4273420000000  0.5531630000000 1.0
C      1  0.4918840000000  0.4973550000000  0.5872660000000 1.0
C      1  0.4927860000000  0.5717500000000  0.5533760000000 1.0
C      1  0.4366950000000  0.4771250000000  0.4726940000000 1.0
C      1  0.4352000000000  0.4605320000000  0.4938650000000 1.0
C      1  0.4384550000000  0.4739650000000  0.5238270000000 1.0
C      1  0.4364770000000  0.5019360000000  0.5350090000000 1.0
C      1  0.4448340000000  0.5282250000000  0.5225290000000 1.0
C      1  0.4355360000000  0.5383380000000  0.4941220000000 1.0
C      1  0.4353680000000  0.5214020000000  0.4710610000000 1.0
C      1  0.4321860000000  0.5141190000000  0.4167390000000 1.0
C      1  0.4311330000000  0.4424440000000  0.4371600000000 1.0
C      1  0.4294930000000  0.4134200000000  0.5062740000000 1.0
C      1  0.4301470000000  0.4509410000000  0.5703430000000 1.0
C      1  0.4311270000000  0.5235420000000  0.5815750000000 1.0
C      1  0.4301180000000  0.5772930000000  0.5322770000000 1.0
C      1  0.4288230000000  0.5746760000000  0.4585640000000 1.0
C      1  0.5091340000000  0.5680560000000  0.5772360000000 1.0
C      1  0.5042910000000  0.6009080000000  0.4986290000000 1.0
C      1  0.5067100000000  0.5622030000000  0.4211910000000 1.0
C      1  0.5054130000000  0.4768660000000  0.4016270000000 1.0
C      1  0.5061050000000  0.4085100000000  0.4566970000000 1.0
C      1  0.5058750000000  0.4059670000000  0.5427410000000 1.0
C      1  0.5100060000000  0.4792010000000  0.6022950000000 1.0
C      1  0.4889280000000  0.5428170000000  0.5454730000000 1.0
C      1  0.4836170000000  0.5620090000000  0.4925550000000 1.0
C      1  0.4847290000000  0.5342750000000  0.4466520000000 1.0
C      1  0.4837420000000  0.4801680000000  0.4402890000000 1.0
C      1  0.4859510000000  0.4431440000000  0.4780490000000 1.0
C      1  0.4866800000000  0.4471480000000  0.5276980000000 1.0
C      1  0.4863150000000  0.4886750000000  0.5604610000000 1.0
C      1  0.4940480000000  0.5088900000000  0.4037860000000 1.0
C      1  0.4944190000000  0.4299550000000  0.4335180000000 1.0
C      1  0.4937940000000  0.4040560000000  0.5108920000000 1.0
C      1  0.4878250000000  0.4435740000000  0.5766640000000 1.0
C      1  0.4882690000000  0.5253250000000  0.5922520000000 1.0
C      1  0.4942130000000  0.5909290000000  0.5292650000000 1.0
C      1  0.4948160000000  0.5801040000000  0.4465200000000 1.0
C      1  0.4010460000000  0.5339010000000  0.5221020000000 1.0
C      1  0.4062930000000  0.5426350000000  0.4944190000000 1.0
C      1  0.4078830000000  0.5111370000000  0.4612820000000 1.0
C      1  0.4075480000000  0.4811300000000  0.4644380000000 1.0
C      1  0.4050290000000  0.4576280000000  0.4988280000000 1.0
C      1  0.4072600000000  0.4686140000000  0.5267050000000 1.0
C      1  0.4066440000000  0.5057280000000  0.5385970000000 1.0
C      1  0.5905900000000  0.4784040000000  0.4747030000000 1.0
C      1  0.5845420000000  0.4692050000000  0.5016030000000 1.0
C      1  0.5849420000000  0.4838890000000  0.5263750000000 1.0
C      1  0.5854790000000  0.5116980000000  0.5285970000000 1.0
C      1  0.5847130000000  0.5307140000000  0.5080070000000 1.0
C      1  0.5856310000000  0.5278920000000  0.4798070000000 1.0
C      1  0.5857450000000  0.5066990000000  0.4605270000000 1.0
C      1  0.5647130000000  0.4537710000000  0.5799940000000 1.0
C      1  0.5638900000000  0.5340440000000  0.5849840000000 1.0
C      1  0.5673920000000  0.5900450000000  0.5263670000000 1.0
C      1  0.5679770000000  0.5766340000000  0.4460240000000 1.0
C      1  0.5669250000000  0.5068370000000  0.4126520000000 1.0
C      1  0.5657890000000  0.4330650000000  0.4374160000000 1.0
C      1  0.5674350000000  0.4095500000000  0.5130210000000 1.0
C      1  0.4463790000000  0.4894970000000  0.4170510000000 1.0
C      1  0.4468470000000  0.4285390000000  0.4565570000000 1.0
C      1  0.4468620000000  0.4208140000000  0.5278900000000 1.0
C      1  0.4472740000000  0.4724400000000  0.5786960000000 1.0
C      1  0.4467940000000  0.5449350000000  0.5711500000000 1.0
C      1  0.4457120000000  0.5838690000000  0.5095050000000 1.0
C      1  0.4455920000000  0.5603670000000  0.4401650000000 1.0
C      1  0.4823920000000  0.4970600000000  0.5313350000000 1.0
C      1  0.4734510000000  0.5264900000000  0.5211720000000 1.0
C      1  0.4794820000000  0.5336630000000  0.4929640000000 1.0
C      1  0.4791240000000  0.5168050000000  0.4695740000000 1.0
C      1  0.4780340000000  0.4872400000000  0.4679380000000 1.0
C      1  0.4769150000000  0.4682470000000  0.4890740000000 1.0
C      1  0.4727330000000  0.4718810000000  0.5176350000000 1.0
C      1  0.5232370000000  0.5674280000000  0.4593190000000 1.0
C      1  0.5214300000000  0.5084980000000  0.4207180000000 1.0
C      1  0.5215710000000  0.4416300000000  0.4425080000000 1.0
C      1  0.5222760000000  0.4183940000000  0.5098300000000 1.0
C      1  0.5120160000000  0.4540560000000  0.5885290000000 1.0
C      1  0.5115360000000  0.5415380000000  0.5890560000000 1.0
C      1  0.5229030000000  0.5750240000000  0.5265290000000 1.0
C      1  0.4728350000000  0.4664390000000  0.5698280000000 1.0
C      1  0.4732100000000  0.5358800000000  0.5704480000000 1.0
C      1  0.4724160000000  0.5768490000000  0.5149410000000 1.0
C      1  0.4729850000000  0.5607940000000  0.4491650000000 1.0
C      1  0.4726340000000  0.4991260000000  0.4213800000000 1.0
C      1  0.4733230000000  0.4379830000000  0.4525250000000 1.0
C      1  0.4725700000000  0.4241000000000  0.5158960000000 1.0
C      1  0.4105030000000  0.4299450000000  0.4933370000000 1.0
C      1  0.4131700000000  0.4492360000000  0.5475340000000 1.0
C      1  0.4126220000000  0.5077280000000  0.5672420000000 1.0
C      1  0.4110180000000  0.5565400000000  0.5364590000000 1.0
C      1  0.4107970000000  0.5664670000000  0.4789940000000 1.0
C      1  0.4130050000000  0.5228010000000  0.4355960000000 1.0
C      1  0.4134860000000  0.4644960000000  0.4411210000000 1.0
C      1  0.5725100000000  0.4616220000000  0.4330710000000 1.0
C      1  0.5714000000000  0.4274230000000  0.4887940000000 1.0
C      1  0.5708910000000  0.4443060000000  0.5524820000000 1.0
C      1  0.5722020000000  0.5070990000000  0.5759990000000 1.0
C      1  0.5727350000000  0.5638090000000  0.5413040000000 1.0
C      1  0.5716500000000  0.5747620000000  0.4767580000000 1.0
C      1  0.5747890000000  0.5250680000000  0.4336940000000 1.0
C      1  0.5352110000000  0.5589540000000  0.4153400000000 1.0
C      1  0.5340810000000  0.4697780000000  0.3999430000000 1.0
C      1  0.5349340000000  0.4026570000000  0.4613720000000 1.0
C      1  0.5345600000000  0.4089640000000  0.5498990000000 1.0
C      1  0.5380570000000  0.4873170000000  0.6014400000000 1.0
C      1  0.5383280000000  0.5733500000000  0.5749950000000 1.0
C      1  0.5328500000000  0.6033430000000  0.4925650000000 1.0
C      1  0.5412960000000  0.5911300000000  0.5393240000000 1.0
C      1  0.5424410000000  0.5873920000000  0.4507610000000 1.0
C      1  0.5422180000000  0.5204500000000  0.4056550000000 1.0
C      1  0.5407740000000  0.4375680000000  0.4233070000000 1.0
C      1  0.5422640000000  0.4008130000000  0.5012550000000 1.0
C      1  0.5368140000000  0.4458110000000  0.5770400000000 1.0
C      1  0.5358240000000  0.5261130000000  0.5880850000000 1.0
C      1  0.5342330000000  0.4432440000000  0.5213390000000 1.0
C      1  0.5397920000000  0.4836440000000  0.5534240000000 1.0
C      1  0.5401580000000  0.5303250000000  0.5459510000000 1.0
C      1  0.5365290000000  0.5578650000000  0.5060280000000 1.0
C      1  0.5378290000000  0.5387730000000  0.4613940000000 1.0
C      1  0.5295180000000  0.4910810000000  0.4441490000000 1.0
C      1  0.5358510000000  0.4510020000000  0.4702940000000 1.0
C      1  0.5645740000000  0.4819870000000  0.5897180000000 1.0
C      1  0.5643190000000  0.5594810000000  0.5701370000000 1.0
C      1  0.5610700000000  0.5933660000000  0.4977230000000 1.0
C      1  0.5640500000000  0.5518450000000  0.4294650000000 1.0
C      1  0.5609990000000  0.4776270000000  0.4116540000000 1.0
C      1  0.5612790000000  0.4180120000000  0.4620650000000 1.0
C      1  0.5626640000000  0.4176640000000  0.5412530000000 1.0
C      1  0.4417360000000  0.4692650000000  0.4373210000000 1.0
C      1  0.4421890000000  0.4324090000000  0.4852940000000 1.0
C      1  0.4420600000000  0.4450680000000  0.5435880000000 1.0
C      1  0.4416400000000  0.4997700000000  0.5677830000000 1.0
C      1  0.4421180000000  0.5531530000000  0.5435730000000 1.0
C      1  0.4417640000000  0.5674700000000  0.4858160000000 1.0
C      1  0.4417450000000  0.5310870000000  0.4388400000000 1.0
C      1  0.5211730000000  0.5223140000000  0.4790910000000 1.0
C      1  0.5174940000000  0.4946770000000  0.4699720000000 1.0
C      1  0.5186090000000  0.4689860000000  0.4840630000000 1.0
C      1  0.5135280000000  0.4610830000000  0.5152220000000 1.0
C      1  0.5217990000000  0.4814950000000  0.5325780000000 1.0
C      1  0.5150040000000  0.5286620000000  0.5331040000000 1.0
C      1  0.5196960000000  0.5349010000000  0.5048190000000 1.0
C      1  0.5294340000000  0.5753680000000  0.4847830000000 1.0
C      1  0.5304450000000  0.5328400000000  0.4292470000000 1.0
C      1  0.5294840000000  0.4646480000000  0.4291180000000 1.0
C      1  0.5300690000000  0.4219700000000  0.4842690000000 1.0
C      1  0.5291010000000  0.4377430000000  0.5502910000000 1.0
C      1  0.5315520000000  0.5000960000000  0.5761030000000 1.0
C      1  0.5335190000000  0.5641120000000  0.5481220000000 1.0
C      1  0.5294500000000  0.4972030000000  0.5116090000000 1.0
C      1  0.5524670000000  0.4992690000000  0.4944120000000 1.0
C      1  0.4999720000000  0.5000870000000  0.5052840000000 1.0
C      1  0.4147120000000  0.5018420000000  0.4999460000000 1.0
C      1  0.4399860000000  0.4997000000000  0.4859280000000 1.0
END
