TITL C-2441159-1093-740 0.053335079939711 125000 -22173.7684540541 0 0 158 (C1) n - 1
REM
REM in /home/bkarasulu/work/CARBON/AIRSS/Generating-Clusters/ReaxFF-fromJPCA2015/Units_Real/with-SteepDescent/Higher-Symm
REM
REM
REM
REM
REM
REM ./C.cell (1df0a924f5614ab8850e4351716899ee)
REM
REM compiler GCC version 9.2.1 20190827 (Red Hat 9.2.1-1)
REM options -cpp -mtune=generic -march=x86-64 -g -O0 -fpre-include=/usr/include/finclude/math-vector-fortran.h
REM seed -650272615 462369196 657895148 2123872058 1868701882 -475042926 -1873638331 -502785985 713323839 688050033 -1776716956 1775188759 -697420425 -1851520644 1469269591 998700123 1366745762 -134304364 303481327 -1585894463 1659670112 605378040 576795459 486776410 -680849960 -1841168744 -742291789 1150253384 1043931551 -1818068163 1310444519 -1138058584 1696439073
REM
CELL 1.54180   50.00000   50.00000   50.00000   90.00000   90.00000   90.00000
LATT -1
SFAC C  
C      1  0.5215870000000  0.5035060000000  0.5371840000000 1.0
C      1  0.4820280000000  0.5499640000000  0.4465040000000 1.0
C      1  0.4618400000000  0.4972710000000  0.3828240000000 1.0
C      1  0.4878700000000  0.5174070000000  0.6097400000000 1.0
C      1  0.4725410000000  0.5722580000000  0.4800760000000 1.0
C      1  0.5686400000000  0.4989290000000  0.4286860000000 1.0
C      1  0.5597460000000  0.4991080000000  0.5840330000000 1.0
C      1  0.5230500000000  0.5518410000000  0.4140750000000 1.0
C      1  0.4356650000000  0.5581000000000  0.5283690000000 1.0
C      1  0.4534150000000  0.5397080000000  0.5615200000000 1.0
C      1  0.4159440000000  0.4999100000000  0.5039240000000 1.0
C      1  0.5672230000000  0.5263430000000  0.5792310000000 1.0
C      1  0.4933730000000  0.4147910000000  0.4837990000000 1.0
C      1  0.4834220000000  0.5987330000000  0.5103060000000 1.0
C      1  0.5641180000000  0.4706070000000  0.5216660000000 1.0
C      1  0.5441140000000  0.5053880000000  0.4165100000000 1.0
C      1  0.5086290000000  0.5857760000000  0.5503470000000 1.0
C      1  0.4913510000000  0.5721340000000  0.5012400000000 1.0
C      1  0.5109390000000  0.4342190000000  0.4966450000000 1.0
C      1  0.5352460000000  0.5924340000000  0.4794810000000 1.0
C      1  0.4386560000000  0.4679120000000  0.5913850000000 1.0
C      1  0.4348620000000  0.5634760000000  0.4369120000000 1.0
C      1  0.4681210000000  0.4126860000000  0.5184880000000 1.0
C      1  0.6037230000000  0.4670290000000  0.5147030000000 1.0
C      1  0.4350440000000  0.4769850000000  0.5092260000000 1.0
C      1  0.4372890000000  0.5499900000000  0.4599270000000 1.0
C      1  0.5745240000000  0.4521670000000  0.5589320000000 1.0
C      1  0.4674730000000  0.5030120000000  0.4469610000000 1.0
C      1  0.4041850000000  0.5281780000000  0.4679200000000 1.0
C      1  0.4896190000000  0.4657620000000  0.5334020000000 1.0
C      1  0.4726300000000  0.4186830000000  0.4631180000000 1.0
C      1  0.5346500000000  0.4281940000000  0.4307310000000 1.0
C      1  0.4577970000000  0.4256610000000  0.5406350000000 1.0
C      1  0.4650770000000  0.5870710000000  0.5452690000000 1.0
C      1  0.4502960000000  0.4532450000000  0.4415180000000 1.0
C      1  0.4228480000000  0.5011190000000  0.5716520000000 1.0
C      1  0.4886970000000  0.4855100000000  0.3857410000000 1.0
C      1  0.5540610000000  0.4799950000000  0.4135730000000 1.0
C      1  0.5271410000000  0.4376940000000  0.5746480000000 1.0
C      1  0.5229880000000  0.4544100000000  0.5999290000000 1.0
C      1  0.4993030000000  0.3977550000000  0.5189860000000 1.0
C      1  0.5031900000000  0.5265430000000  0.4928900000000 1.0
C      1  0.5373520000000  0.4616810000000  0.5262340000000 1.0
C      1  0.5153440000000  0.4777300000000  0.5325710000000 1.0
C      1  0.5343980000000  0.5088590000000  0.5955540000000 1.0
C      1  0.5664310000000  0.4469280000000  0.4587690000000 1.0
C      1  0.4590110000000  0.5391490000000  0.4088080000000 1.0
C      1  0.4345690000000  0.5746890000000  0.5047360000000 1.0
C      1  0.4770040000000  0.5134780000000  0.4896080000000 1.0
C      1  0.4642960000000  0.5167430000000  0.5223180000000 1.0
C      1  0.5462160000000  0.4879130000000  0.4738620000000 1.0
C      1  0.5204150000000  0.5807920000000  0.4581640000000 1.0
C      1  0.4925350000000  0.4325540000000  0.4473710000000 1.0
C      1  0.5326730000000  0.5699740000000  0.5547620000000 1.0
C      1  0.5068350000000  0.4569870000000  0.4586530000000 1.0
C      1  0.4558190000000  0.4606490000000  0.4133240000000 1.0
C      1  0.4396620000000  0.4451490000000  0.5734180000000 1.0
C      1  0.4425270000000  0.4832000000000  0.4005830000000 1.0
C      1  0.5195800000000  0.3883300000000  0.4992330000000 1.0
C      1  0.4004910000000  0.5403940000000  0.5143930000000 1.0
C      1  0.5407360000000  0.5359430000000  0.5863860000000 1.0
C      1  0.4714010000000  0.5543730000000  0.5781940000000 1.0
C      1  0.4560570000000  0.5938250000000  0.5204070000000 1.0
C      1  0.4794550000000  0.4704090000000  0.5788640000000 1.0
C      1  0.4756910000000  0.4837670000000  0.5518340000000 1.0
C      1  0.5815480000000  0.5559120000000  0.5383180000000 1.0
C      1  0.5479850000000  0.3961670000000  0.5018100000000 1.0
C      1  0.3950470000000  0.4846750000000  0.4908810000000 1.0
C      1  0.5959560000000  0.5468000000000  0.4709580000000 1.0
C      1  0.5788310000000  0.5327660000000  0.5553930000000 1.0
C      1  0.5734110000000  0.4251710000000  0.4743210000000 1.0
C      1  0.5083440000000  0.6013470000000  0.5255580000000 1.0
C      1  0.5178070000000  0.5192470000000  0.4453090000000 1.0
C      1  0.5464560000000  0.4500200000000  0.5562800000000 1.0
C      1  0.4453610000000  0.4209460000000  0.4737200000000 1.0
C      1  0.4742600000000  0.4834150000000  0.4842730000000 1.0
C      1  0.4825180000000  0.5786210000000  0.5649410000000 1.0
C      1  0.5482740000000  0.5092750000000  0.4923330000000 1.0
C      1  0.4025750000000  0.5657890000000  0.5032690000000 1.0
C      1  0.4262250000000  0.5285540000000  0.5624730000000 1.0
C      1  0.4392470000000  0.5009210000000  0.4655470000000 1.0
C      1  0.5502130000000  0.5538890000000  0.4962970000000 1.0
C      1  0.4404010000000  0.4960200000000  0.5956470000000 1.0
C      1  0.4825200000000  0.4361140000000  0.5531590000000 1.0
C      1  0.6054420000000  0.5048250000000  0.4843150000000 1.0
C      1  0.6068560000000  0.5192010000000  0.5093510000000 1.0
C      1  0.4277300000000  0.5003880000000  0.4193690000000 1.0
C      1  0.5472330000000  0.5350800000000  0.4109280000000 1.0
C      1  0.5589520000000  0.5744390000000  0.5407190000000 1.0
C      1  0.4731860000000  0.5246330000000  0.3876630000000 1.0
C      1  0.4989420000000  0.5125920000000  0.3951300000000 1.0
C      1  0.4292790000000  0.4362970000000  0.4543520000000 1.0
C      1  0.4125160000000  0.5473470000000  0.4473760000000 1.0
C      1  0.4897420000000  0.5758000000000  0.4566990000000 1.0
C      1  0.4849520000000  0.4669810000000  0.5042270000000 1.0
C      1  0.4143790000000  0.5421330000000  0.5392890000000 1.0
C      1  0.5085520000000  0.4213350000000  0.5597090000000 1.0
C      1  0.5989570000000  0.5218440000000  0.4599840000000 1.0
C      1  0.6059300000000  0.4945340000000  0.5257730000000 1.0
C      1  0.4731640000000  0.5400180000000  0.6023370000000 1.0
C      1  0.5197980000000  0.4062270000000  0.5379160000000 1.0
C      1  0.5501310000000  0.4622530000000  0.5997640000000 1.0
C      1  0.5842540000000  0.4520900000000  0.5306650000000 1.0
C      1  0.5336650000000  0.4365900000000  0.5116230000000 1.0
C      1  0.5965150000000  0.4767640000000  0.4875740000000 1.0
C      1  0.4029820000000  0.4556180000000  0.4964900000000 1.0
C      1  0.5725370000000  0.5231610000000  0.4455990000000 1.0
C      1  0.4756590000000  0.5260620000000  0.4623140000000 1.0
C      1  0.5056940000000  0.4687760000000  0.4196850000000 1.0
C      1  0.4245640000000  0.4457120000000  0.5158850000000 1.0
C      1  0.5381810000000  0.4494540000000  0.4461540000000 1.0
C      1  0.4835300000000  0.4618140000000  0.4029390000000 1.0
C      1  0.4115890000000  0.4531650000000  0.4694880000000 1.0
C      1  0.5491470000000  0.5332170000000  0.4764770000000 1.0
C      1  0.5597090000000  0.5482300000000  0.4336970000000 1.0
C      1  0.5069960000000  0.4601600000000  0.4879090000000 1.0
C      1  0.4600620000000  0.5154370000000  0.6076230000000 1.0
C      1  0.5545060000000  0.4122570000000  0.4787420000000 1.0
C      1  0.5769200000000  0.4924690000000  0.5325380000000 1.0
C      1  0.4478960000000  0.4902210000000  0.5324310000000 1.0
C      1  0.4254890000000  0.5223240000000  0.4874750000000 1.0
C      1  0.4453080000000  0.4228830000000  0.5027650000000 1.0
C      1  0.5224890000000  0.5444800000000  0.5652480000000 1.0
C      1  0.5324460000000  0.5466700000000  0.5166320000000 1.0
C      1  0.5013270000000  0.4742630000000  0.5966970000000 1.0
C      1  0.5147400000000  0.4137990000000  0.4454740000000 1.0
C      1  0.5345460000000  0.4567280000000  0.4175990000000 1.0
C      1  0.4602970000000  0.4657340000000  0.4660710000000 1.0
C      1  0.5153780000000  0.3988300000000  0.4716520000000 1.0
C      1  0.4991940000000  0.4825160000000  0.4445100000000 1.0
C      1  0.5203020000000  0.5308790000000  0.4709780000000 1.0
C      1  0.5711930000000  0.4724250000000  0.4729160000000 1.0
C      1  0.3955890000000  0.5002330000000  0.4647610000000 1.0
C      1  0.5655940000000  0.5161540000000  0.5366490000000 1.0
C      1  0.5356510000000  0.5655730000000  0.4371510000000 1.0
C      1  0.5074930000000  0.5242170000000  0.5497540000000 1.0
C      1  0.4816620000000  0.5120450000000  0.5460330000000 1.0
C      1  0.5569020000000  0.5917310000000  0.5179080000000 1.0
C      1  0.4514150000000  0.5164420000000  0.4259070000000 1.0
C      1  0.5962180000000  0.5472030000000  0.5138550000000 1.0
C      1  0.5414550000000  0.5180560000000  0.5208450000000 1.0
C      1  0.5047650000000  0.5489620000000  0.5111240000000 1.0
C      1  0.4177900000000  0.4945760000000  0.4464760000000 1.0
C      1  0.5080290000000  0.5009790000000  0.5995130000000 1.0
C      1  0.4596480000000  0.5439550000000  0.5334080000000 1.0
C      1  0.5626460000000  0.5791000000000  0.4927520000000 1.0
C      1  0.4481240000000  0.5567880000000  0.4850780000000 1.0
C      1  0.5068690000000  0.5277340000000  0.4190900000000 1.0
C      1  0.5269720000000  0.4928820000000  0.4505060000000 1.0
C      1  0.5316120000000  0.6011870000000  0.5070920000000 1.0
C      1  0.4257570000000  0.4812000000000  0.5497290000000 1.0
C      1  0.4629470000000  0.5618520000000  0.4273130000000 1.0
C      1  0.5457370000000  0.4139680000000  0.5245550000000 1.0
C      1  0.4361400000000  0.4743760000000  0.4788660000000 1.0
C      1  0.5714870000000  0.4711990000000  0.5833360000000 1.0
C      1  0.4277450000000  0.4519860000000  0.5457860000000 1.0
C      1  0.4688790000000  0.4434510000000  0.5795380000000 1.0
C      1  0.5916260000000  0.5648230000000  0.4909870000000 1.0
END
