TITL C-2441167-4473-330 0.0707356208681808 125000 -25486.9598370861 0 0 179 (C1) n - 1
REM
REM in /home/bkarasulu/work/CARBON/AIRSS/Generating-Clusters/ReaxFF-fromJPCA2015/Units_Real/with-SteepDescent/Higher-Symm
REM
REM
REM
REM
REM
REM ./C.cell (1df0a924f5614ab8850e4351716899ee)
REM
REM compiler GCC version 9.2.1 20190827 (Red Hat 9.2.1-1)
REM options -cpp -mtune=generic -march=x86-64 -g -O0 -fpre-include=/usr/include/finclude/math-vector-fortran.h
REM seed -1707744697 -353811975 310462514 1494867274 -1657861825 900447707 1051443948 781836524 809719844 -1594188926 -138681644 1019066608 -1358832257 -1302637373 993667814 230328773 -713626253 -1177799259 1462589527 -994594350 -745753990 -1758970936 2051187391 895431431 683405984 2009015456 178066911 -1400886781 731916039 388598089 1967894625 56970458 -1146815513
REM
CELL 1.54180   50.00000   50.00000   50.00000   90.00000   90.00000   90.00000
LATT -1
SFAC C  
C      1  0.5303510000000  0.4375620000000  0.4694370000000 1.0
C      1  0.5139610000000  0.4364030000000  0.5388410000000 1.0
C      1  0.4599880000000  0.4347500000000  0.4896030000000 1.0
C      1  0.4353140000000  0.4779920000000  0.5209590000000 1.0
C      1  0.5233550000000  0.4772560000000  0.4423210000000 1.0
C      1  0.5379620000000  0.4832880000000  0.5447980000000 1.0
C      1  0.4659780000000  0.5611620000000  0.4253970000000 1.0
C      1  0.5789160000000  0.5607460000000  0.5113860000000 1.0
C      1  0.4527840000000  0.5607780000000  0.5674200000000 1.0
C      1  0.5811550000000  0.4887430000000  0.5684460000000 1.0
C      1  0.4000830000000  0.4951320000000  0.5361570000000 1.0
C      1  0.5138210000000  0.4909930000000  0.3957850000000 1.0
C      1  0.5270960000000  0.4320790000000  0.4980340000000 1.0
C      1  0.4894710000000  0.4321650000000  0.5222110000000 1.0
C      1  0.4863820000000  0.4302410000000  0.4778710000000 1.0
C      1  0.5142250000000  0.4752250000000  0.4818640000000 1.0
C      1  0.5121480000000  0.4787270000000  0.5260550000000 1.0
C      1  0.4747020000000  0.4780800000000  0.4945570000000 1.0
C      1  0.4232930000000  0.4983100000000  0.4390920000000 1.0
C      1  0.5955850000000  0.4986990000000  0.4684940000000 1.0
C      1  0.4826980000000  0.4982380000000  0.5974210000000 1.0
C      1  0.5023630000000  0.4531880000000  0.4670830000000 1.0
C      1  0.5293830000000  0.4539730000000  0.5177320000000 1.0
C      1  0.4734560000000  0.4547350000000  0.5131110000000 1.0
C      1  0.5812030000000  0.5479250000000  0.4447830000000 1.0
C      1  0.5085200000000  0.5537040000000  0.5998660000000 1.0
C      1  0.4087910000000  0.5530650000000  0.4577090000000 1.0
C      1  0.5391520000000  0.4769150000000  0.4676370000000 1.0
C      1  0.4993940000000  0.4737580000000  0.5519040000000 1.0
C      1  0.4550200000000  0.4748910000000  0.4748340000000 1.0
C      1  0.4118140000000  0.5153860000000  0.5524110000000 1.0
C      1  0.4979030000000  0.5137530000000  0.3983110000000 1.0
C      1  0.5902790000000  0.5126580000000  0.5525140000000 1.0
C      1  0.5225010000000  0.6023490000000  0.5400020000000 1.0
C      1  0.4560470000000  0.6005200000000  0.5007800000000 1.0
C      1  0.5223370000000  0.6007910000000  0.4577660000000 1.0
C      1  0.5345400000000  0.5402040000000  0.4819550000000 1.0
C      1  0.4936540000000  0.5392150000000  0.5393690000000 1.0
C      1  0.4658750000000  0.5386280000000  0.4789470000000 1.0
C      1  0.3936260000000  0.4997610000000  0.5083760000000 1.0
C      1  0.5421060000000  0.4933470000000  0.4015340000000 1.0
C      1  0.5597370000000  0.4945030000000  0.5867040000000 1.0
C      1  0.4885470000000  0.4977540000000  0.5630960000000 1.0
C      1  0.4495080000000  0.4987560000000  0.4603410000000 1.0
C      1  0.5563120000000  0.4998780000000  0.4757620000000 1.0
C      1  0.5541550000000  0.5703470000000  0.5621380000000 1.0
C      1  0.4256080000000  0.5651050000000  0.5090810000000 1.0
C      1  0.5309740000000  0.5624350000000  0.4309800000000 1.0
C      1  0.4948540000000  0.5092980000000  0.4609340000000 1.0
C      1  0.5473830000000  0.5155300000000  0.5211140000000 1.0
C      1  0.4588500000000  0.5137870000000  0.5287500000000 1.0
C      1  0.5625130000000  0.5473110000000  0.5779370000000 1.0
C      1  0.4047310000000  0.5473400000000  0.5152260000000 1.0
C      1  0.5363380000000  0.5430910000000  0.4101010000000 1.0
C      1  0.4784430000000  0.5950950000000  0.5412410000000 1.0
C      1  0.4756660000000  0.5960390000000  0.4605750000000 1.0
C      1  0.5431210000000  0.5962190000000  0.4960560000000 1.0
C      1  0.4995300000000  0.6019530000000  0.5221400000000 1.0
C      1  0.4818500000000  0.6057770000000  0.4876780000000 1.0
C      1  0.5168710000000  0.6054130000000  0.4856600000000 1.0
C      1  0.4310100000000  0.5744550000000  0.4631230000000 1.0
C      1  0.5662290000000  0.5724190000000  0.4607730000000 1.0
C      1  0.5045530000000  0.5742420000000  0.5773840000000 1.0
C      1  0.4377010000000  0.4511550000000  0.4759550000000 1.0
C      1  0.5581580000000  0.4495770000000  0.4559500000000 1.0
C      1  0.5114440000000  0.4511230000000  0.5663670000000 1.0
C      1  0.5544950000000  0.4948980000000  0.5040870000000 1.0
C      1  0.4621580000000  0.4968320000000  0.5510870000000 1.0
C      1  0.4723760000000  0.5044600000000  0.4438310000000 1.0
C      1  0.4699090000000  0.5121800000000  0.4137090000000 1.0
C      1  0.5981840000000  0.5132410000000  0.5249700000000 1.0
C      1  0.4354320000000  0.5090980000000  0.5702270000000 1.0
C      1  0.4036150000000  0.5002170000000  0.4619070000000 1.0
C      1  0.5813640000000  0.4956190000000  0.4427910000000 1.0
C      1  0.5122580000000  0.5006940000000  0.6027890000000 1.0
C      1  0.4927830000000  0.5619900000000  0.4167460000000 1.0
C      1  0.5747640000000  0.5621720000000  0.5405260000000 1.0
C      1  0.4319450000000  0.5635700000000  0.5486560000000 1.0
C      1  0.4828860000000  0.4415400000000  0.6005920000000 1.0
C      1  0.4189250000000  0.4438110000000  0.4372200000000 1.0
C      1  0.6000110000000  0.4335110000000  0.4617400000000 1.0
C      1  0.5555170000000  0.4049860000000  0.4758880000000 1.0
C      1  0.4947910000000  0.4071410000000  0.5603960000000 1.0
C      1  0.4509760000000  0.4059360000000  0.4597050000000 1.0
C      1  0.5838040000000  0.5406530000000  0.5589360000000 1.0
C      1  0.4117610000000  0.5434420000000  0.5430880000000 1.0
C      1  0.5074670000000  0.5416050000000  0.4019620000000 1.0
C      1  0.4191700000000  0.5495930000000  0.4324370000000 1.0
C      1  0.5974020000000  0.5485500000000  0.4670140000000 1.0
C      1  0.4813090000000  0.5495270000000  0.6013810000000 1.0
C      1  0.5395290000000  0.5192940000000  0.4629970000000 1.0
C      1  0.5055700000000  0.5175340000000  0.5513630000000 1.0
C      1  0.4485350000000  0.5161760000000  0.4837770000000 1.0
C      1  0.4411990000000  0.5041340000000  0.5088710000000 1.0
C      1  0.5202840000000  0.5055560000000  0.4457860000000 1.0
C      1  0.5346040000000  0.5134240000000  0.5485990000000 1.0
C      1  0.4834290000000  0.4749380000000  0.4167400000000 1.0
C      1  0.5870360000000  0.4657340000000  0.5318010000000 1.0
C      1  0.4238100000000  0.4614200000000  0.5685500000000 1.0
C      1  0.6006550000000  0.4865430000000  0.5151020000000 1.0
C      1  0.4367780000000  0.4818220000000  0.5841910000000 1.0
C      1  0.4577270000000  0.4854370000000  0.4078300000000 1.0
C      1  0.5947850000000  0.5364330000000  0.5065120000000 1.0
C      1  0.4479410000000  0.5348530000000  0.5823610000000 1.0
C      1  0.4528190000000  0.5367420000000  0.4139560000000 1.0
C      1  0.4404980000000  0.4526510000000  0.4278440000000 1.0
C      1  0.5944950000000  0.4533360000000  0.4811210000000 1.0
C      1  0.4722250000000  0.4577210000000  0.5817140000000 1.0
C      1  0.5223580000000  0.5269010000000  0.5985850000000 1.0
C      1  0.4009830000000  0.5272800000000  0.4707460000000 1.0
C      1  0.5737120000000  0.5212310000000  0.4317280000000 1.0
C      1  0.4541580000000  0.5600260000000  0.5168040000000 1.0
C      1  0.5061010000000  0.5590950000000  0.4541410000000 1.0
C      1  0.5360420000000  0.5610740000000  0.5264780000000 1.0
C      1  0.5081850000000  0.5598550000000  0.5270160000000 1.0
C      1  0.4716580000000  0.5597590000000  0.4953600000000 1.0
C      1  0.5160790000000  0.5603490000000  0.4793810000000 1.0
C      1  0.5687600000000  0.4697370000000  0.4360020000000 1.0
C      1  0.5350300000000  0.4819960000000  0.5948950000000 1.0
C      1  0.3996460000000  0.4829150000000  0.4851490000000 1.0
C      1  0.4989790000000  0.5868610000000  0.4451370000000 1.0
C      1  0.5431650000000  0.5890590000000  0.5241230000000 1.0
C      1  0.4534880000000  0.5886370000000  0.5276390000000 1.0
C      1  0.4672850000000  0.5389740000000  0.5310830000000 1.0
C      1  0.4874580000000  0.5375700000000  0.4605420000000 1.0
C      1  0.5431210000000  0.5397420000000  0.5093370000000 1.0
C      1  0.4967870000000  0.4248830000000  0.5833540000000 1.0
C      1  0.4286510000000  0.4254020000000  0.4557190000000 1.0
C      1  0.5732660000000  0.4232810000000  0.4607020000000 1.0
C      1  0.5280220000000  0.4103500000000  0.4582480000000 1.0
C      1  0.5231370000000  0.4087260000000  0.5435130000000 1.0
C      1  0.4509350000000  0.4101920000000  0.5011640000000 1.0
C      1  0.4417480000000  0.4138500000000  0.5464150000000 1.0
C      1  0.4969160000000  0.4134400000000  0.4248820000000 1.0
C      1  0.5674310000000  0.4137610000000  0.5297130000000 1.0
C      1  0.5230080000000  0.4230880000000  0.4309580000000 1.0
C      1  0.5514640000000  0.4184440000000  0.5526750000000 1.0
C      1  0.4301390000000  0.4197960000000  0.5199560000000 1.0
C      1  0.4327010000000  0.5854330000000  0.4899770000000 1.0
C      1  0.5442510000000  0.5837290000000  0.4454440000000 1.0
C      1  0.5282940000000  0.5844480000000  0.5632190000000 1.0
C      1  0.6028550000000  0.4804280000000  0.4878070000000 1.0
C      1  0.4618360000000  0.4765480000000  0.5985640000000 1.0
C      1  0.4324190000000  0.4780680000000  0.4196370000000 1.0
C      1  0.5275640000000  0.4072910000000  0.5129130000000 1.0
C      1  0.4753180000000  0.4073510000000  0.5178840000000 1.0
C      1  0.4989730000000  0.4062490000000  0.4692450000000 1.0
C      1  0.5845700000000  0.4367810000000  0.5248750000000 1.0
C      1  0.4364720000000  0.4350740000000  0.5662460000000 1.0
C      1  0.4853900000000  0.4360170000000  0.4103260000000 1.0
C      1  0.5567500000000  0.4664530000000  0.5113880000000 1.0
C      1  0.4579870000000  0.4695100000000  0.5375560000000 1.0
C      1  0.4851990000000  0.4628880000000  0.4429600000000 1.0
C      1  0.4606640000000  0.4482920000000  0.5569300000000 1.0
C      1  0.4685960000000  0.4418140000000  0.4328240000000 1.0
C      1  0.5732460000000  0.4456080000000  0.4995940000000 1.0
C      1  0.4558680000000  0.5777820000000  0.4488230000000 1.0
C      1  0.5651780000000  0.5762370000000  0.4895530000000 1.0
C      1  0.4786270000000  0.5771680000000  0.5646850000000 1.0
C      1  0.4133150000000  0.4437520000000  0.5165310000000 1.0
C      1  0.5271130000000  0.4523760000000  0.4210970000000 1.0
C      1  0.5581180000000  0.4430280000000  0.5671180000000 1.0
C      1  0.5532390000000  0.5193450000000  0.4114390000000 1.0
C      1  0.5460330000000  0.5219760000000  0.5804130000000 1.0
C      1  0.3958360000000  0.5266680000000  0.4988590000000 1.0
C      1  0.4115690000000  0.4567600000000  0.4908480000000 1.0
C      1  0.5517360000000  0.4681850000000  0.4129990000000 1.0
C      1  0.5366220000000  0.4556940000000  0.5822480000000 1.0
C      1  0.4702630000000  0.4023850000000  0.5460980000000 1.0
C      1  0.4789470000000  0.4009100000000  0.4497480000000 1.0
C      1  0.5543590000000  0.4004900000000  0.5043010000000 1.0
C      1  0.4132070000000  0.4681690000000  0.5389350000000 1.0
C      1  0.5032440000000  0.4595450000000  0.4005150000000 1.0
C      1  0.5802460000000  0.4611820000000  0.5583680000000 1.0
C      1  0.4280680000000  0.5252370000000  0.4233130000000 1.0
C      1  0.5976010000000  0.5246710000000  0.4810930000000 1.0
C      1  0.4672720000000  0.5257020000000  0.6013200000000 1.0
C      1  0.4993940000000  0.4927990000000  0.4981860000000 1.0
C      1  0.4984280000000  0.5681900000000  0.5007980000000 1.0
END
