TITL C-2441155-8282-50 0.00168735370238543 125000 -5455.05177068003 0 0 40 (C1) n - 1
REM
REM in /home/bkarasulu/work/CARBON/AIRSS/Generating-Clusters/ReaxFF-fromJPCA2015/Units_Real/with-SteepDescent/Higher-Symm
REM
REM
REM
REM
REM
REM ./C.cell (1df0a924f5614ab8850e4351716899ee)
REM
REM compiler GCC version 9.2.1 20190827 (Red Hat 9.2.1-1)
REM options -cpp -mtune=generic -march=x86-64 -g -O0 -fpre-include=/usr/include/finclude/math-vector-fortran.h
REM seed 1552303051 277100433 142827303 1145430988 -1147985217 205952769 1230759555 -655321886 -64008482 -497565499 -810447799 1105319112 756688352 -510856660 1120367697 -1786397761 -848976839 -631003916 1594697929 1626309493 -1558878609 -1780121794 1527151052 -2141877306 1277257026 -229930512 -891749593 -592898159 1749747572 164789319 -373715573 713325193 301745140
REM
CELL 1.54180   50.00000   50.00000   50.00000   90.00000   90.00000   90.00000
LATT -1
SFAC C  
C      1  0.5112320000000  0.5043350000000  0.4923350000000 1.0
C      1  0.5180550000000  0.5285900000000  0.4675830000000 1.0
C      1  0.5305510000000  0.5373310000000  0.5185700000000 1.0
C      1  0.4556560000000  0.4577400000000  0.5167560000000 1.0
C      1  0.5468470000000  0.5278170000000  0.4704630000000 1.0
C      1  0.5412670000000  0.4566940000000  0.4977150000000 1.0
C      1  0.5455190000000  0.4983830000000  0.4423770000000 1.0
C      1  0.5504960000000  0.4881130000000  0.5242590000000 1.0
C      1  0.4810220000000  0.4699800000000  0.5133400000000 1.0
C      1  0.5561860000000  0.5012580000000  0.4705980000000 1.0
C      1  0.5078730000000  0.5650550000000  0.4997500000000 1.0
C      1  0.5369480000000  0.4617750000000  0.5263920000000 1.0
C      1  0.4982020000000  0.4741490000000  0.5541270000000 1.0
C      1  0.5079850000000  0.4639640000000  0.5325260000000 1.0
C      1  0.5075670000000  0.5200200000000  0.5161140000000 1.0
C      1  0.5312140000000  0.5570310000000  0.5545490000000 1.0
C      1  0.4809260000000  0.4771190000000  0.4601740000000 1.0
C      1  0.5112490000000  0.4495390000000  0.4597240000000 1.0
C      1  0.4723450000000  0.5159080000000  0.5568540000000 1.0
C      1  0.5258390000000  0.4435460000000  0.4789710000000 1.0
C      1  0.4812280000000  0.5315220000000  0.5328230000000 1.0
C      1  0.5489030000000  0.5094920000000  0.5426050000000 1.0
C      1  0.4314590000000  0.4638560000000  0.4994080000000 1.0
C      1  0.5438130000000  0.5318880000000  0.5555760000000 1.0
C      1  0.4143830000000  0.4834260000000  0.5000840000000 1.0
C      1  0.4653510000000  0.5170770000000  0.4877810000000 1.0
C      1  0.4835800000000  0.4914790000000  0.4873410000000 1.0
C      1  0.4727720000000  0.5406690000000  0.4710470000000 1.0
C      1  0.4742530000000  0.4868360000000  0.5600000000000 1.0
C      1  0.4627330000000  0.4772470000000  0.5346010000000 1.0
C      1  0.5233490000000  0.5647020000000  0.5222270000000 1.0
C      1  0.5211170000000  0.4891400000000  0.4325340000000 1.0
C      1  0.5415550000000  0.4882050000000  0.4940950000000 1.0
C      1  0.5230200000000  0.5155120000000  0.4398600000000 1.0
C      1  0.4992130000000  0.5537350000000  0.4755440000000 1.0
C      1  0.4282230000000  0.4652440000000  0.4667790000000 1.0
C      1  0.4582850000000  0.5297430000000  0.5124200000000 1.0
C      1  0.5027660000000  0.4691730000000  0.4418320000000 1.0
C      1  0.4529930000000  0.4696660000000  0.4520130000000 1.0
C      1  0.4540230000000  0.5230420000000  0.5382520000000 1.0
END
