TITL C-2441156-4686-1438 0.242839406858676 125000 -19063.827279335 0 0 160 (C1) n - 1
REM
REM in /home/bkarasulu/work/CARBON/AIRSS/Generating-Clusters/ReaxFF-fromJPCA2015/Units_Real/with-SteepDescent/Higher-Symm
REM
REM
REM
REM
REM
REM ./C.cell (1df0a924f5614ab8850e4351716899ee)
REM
REM compiler GCC version 9.2.1 20190827 (Red Hat 9.2.1-1)
REM options -cpp -mtune=generic -march=x86-64 -g -O0 -fpre-include=/usr/include/finclude/math-vector-fortran.h
REM seed -18058000 2110699038 -644525601 477732353 1238995971 -290802390 -1123975836 505488727 -978560779 -1458174454 1658728997 -1287489875 1188105467 -248215109 -357877129 -878127997 -1952499580 -1708937721 728304379 -663546430 2132870224 -935850837 -387756861 -2091364632 -1727714977 -1222860732 1242191155 -1955610883 -530841097 186853844 1840450540 -777975401 502133502
REM
CELL 1.54180   50.00000   50.00000   50.00000   90.00000   90.00000   90.00000
LATT -1
SFAC C  
C      1  0.5528410000000  0.4309590000000  0.5311410000000 1.0
C      1  0.4294130000000  0.5318380000000  0.5537590000000 1.0
C      1  0.5320470000000  0.5549230000000  0.4283550000000 1.0
C      1  0.4450600000000  0.4296850000000  0.4676060000000 1.0
C      1  0.4437200000000  0.5695860000000  0.5322380000000 1.0
C      1  0.5528970000000  0.5688260000000  0.4686180000000 1.0
C      1  0.5693900000000  0.5321830000000  0.4460030000000 1.0
C      1  0.5684290000000  0.4683160000000  0.5537850000000 1.0
C      1  0.4325040000000  0.4726380000000  0.4472270000000 1.0
C      1  0.4680140000000  0.5536260000000  0.5695370000000 1.0
C      1  0.4681430000000  0.4471680000000  0.4316130000000 1.0
C      1  0.5320110000000  0.4439370000000  0.5710760000000 1.0
C      1  0.5487530000000  0.4844140000000  0.4873350000000 1.0
C      1  0.4822400000000  0.4876600000000  0.5495860000000 1.0
C      1  0.4879440000000  0.5514240000000  0.4808430000000 1.0
C      1  0.4512770000000  0.4801360000000  0.5109430000000 1.0
C      1  0.4493210000000  0.5222490000000  0.4889780000000 1.0
C      1  0.5480870000000  0.5151090000000  0.5108610000000 1.0
C      1  0.5202240000000  0.4860470000000  0.4469240000000 1.0
C      1  0.5216760000000  0.5118640000000  0.5509150000000 1.0
C      1  0.4796450000000  0.5097990000000  0.4526900000000 1.0
C      1  0.5089060000000  0.5457690000000  0.5200560000000 1.0
C      1  0.5090880000000  0.4530950000000  0.4795980000000 1.0
C      1  0.4869870000000  0.4482500000000  0.5194350000000 1.0
C      1  0.4387720000000  0.5378670000000  0.4676330000000 1.0
C      1  0.5361110000000  0.4666730000000  0.4312050000000 1.0
C      1  0.4672910000000  0.4317620000000  0.5373020000000 1.0
C      1  0.5666520000000  0.5337590000000  0.5301180000000 1.0
C      1  0.5670540000000  0.4655900000000  0.4677570000000 1.0
C      1  0.4330000000000  0.4645310000000  0.5304990000000 1.0
C      1  0.4642780000000  0.4689770000000  0.5675860000000 1.0
C      1  0.4680720000000  0.5304830000000  0.4333910000000 1.0
C      1  0.5362300000000  0.5317410000000  0.5676250000000 1.0
C      1  0.5304000000000  0.4335930000000  0.4653050000000 1.0
C      1  0.5293410000000  0.5658820000000  0.5338520000000 1.0
C      1  0.4680040000000  0.5703900000000  0.4636010000000 1.0
C      1  0.4173060000000  0.4991820000000  0.4800470000000 1.0
C      1  0.4999730000000  0.4728910000000  0.4060140000000 1.0
C      1  0.4762460000000  0.4130040000000  0.5015970000000 1.0
C      1  0.5938500000000  0.5000080000000  0.5262700000000 1.0
C      1  0.5931080000000  0.5001230000000  0.4735710000000 1.0
C      1  0.4058780000000  0.4992660000000  0.5267160000000 1.0
C      1  0.4989990000000  0.4732750000000  0.5934790000000 1.0
C      1  0.4999940000000  0.5253930000000  0.4049590000000 1.0
C      1  0.5005590000000  0.5262350000000  0.5934060000000 1.0
C      1  0.5263350000000  0.4062660000000  0.4996370000000 1.0
C      1  0.5257770000000  0.5933070000000  0.4992070000000 1.0
C      1  0.4754750000000  0.5849290000000  0.5005200000000 1.0
C      1  0.4001310000000  0.4700530000000  0.5206010000000 1.0
C      1  0.4700410000000  0.5211450000000  0.4022530000000 1.0
C      1  0.5197830000000  0.4013860000000  0.4704870000000 1.0
C      1  0.5986850000000  0.4709610000000  0.4784620000000 1.0
C      1  0.5992680000000  0.5292910000000  0.5207360000000 1.0
C      1  0.4009030000000  0.5232560000000  0.4792790000000 1.0
C      1  0.5293660000000  0.5203320000000  0.6002020000000 1.0
C      1  0.5289670000000  0.4778420000000  0.3994410000000 1.0
C      1  0.4702250000000  0.4794720000000  0.5999310000000 1.0
C      1  0.4799420000000  0.3996990000000  0.5290970000000 1.0
C      1  0.4795110000000  0.5967440000000  0.4743100000000 1.0
C      1  0.5201760000000  0.5985920000000  0.5282320000000 1.0
C      1  0.4057590000000  0.5522550000000  0.4887090000000 1.0
C      1  0.5559150000000  0.4926280000000  0.4079320000000 1.0
C      1  0.4930420000000  0.4056610000000  0.5563240000000 1.0
C      1  0.5936010000000  0.5567230000000  0.5069280000000 1.0
C      1  0.5925250000000  0.4434870000000  0.4926840000000 1.0
C      1  0.4056690000000  0.4423750000000  0.5065080000000 1.0
C      1  0.4429290000000  0.4936220000000  0.5935980000000 1.0
C      1  0.4434360000000  0.5059350000000  0.4078520000000 1.0
C      1  0.5558810000000  0.5061400000000  0.5936660000000 1.0
C      1  0.5057700000000  0.4057400000000  0.4432000000000 1.0
C      1  0.5069170000000  0.5920200000000  0.5565350000000 1.0
C      1  0.4912860000000  0.5905050000000  0.4352520000000 1.0
C      1  0.5632140000000  0.5303640000000  0.5581270000000 1.0
C      1  0.5302980000000  0.5597420000000  0.5622140000000 1.0
C      1  0.5569210000000  0.5606970000000  0.5290020000000 1.0
C      1  0.4401830000000  0.5327250000000  0.4403610000000 1.0
C      1  0.4376050000000  0.4700370000000  0.5578960000000 1.0
C      1  0.5629760000000  0.4690750000000  0.4392910000000 1.0
C      1  0.4699230000000  0.5668020000000  0.4354060000000 1.0
C      1  0.4689250000000  0.4415270000000  0.5636680000000 1.0
C      1  0.5294670000000  0.4410730000000  0.4375950000000 1.0
C      1  0.4422460000000  0.5641410000000  0.4681700000000 1.0
C      1  0.4408970000000  0.4372810000000  0.5309360000000 1.0
C      1  0.5584420000000  0.4383310000000  0.4697340000000 1.0
C      1  0.3944320000000  0.5183820000000  0.5083510000000 1.0
C      1  0.5199250000000  0.5072370000000  0.3965430000000 1.0
C      1  0.5092250000000  0.3958740000000  0.5202060000000 1.0
C      1  0.6034560000000  0.5202410000000  0.4910930000000 1.0
C      1  0.6026120000000  0.4794730000000  0.5085000000000 1.0
C      1  0.3987450000000  0.4796170000000  0.4916060000000 1.0
C      1  0.4796500000000  0.5091180000000  0.6025640000000 1.0
C      1  0.4795790000000  0.4905320000000  0.3963330000000 1.0
C      1  0.5194520000000  0.4906740000000  0.6032720000000 1.0
C      1  0.4901570000000  0.3984500000000  0.4804380000000 1.0
C      1  0.4907230000000  0.6008910000000  0.5204200000000 1.0
C      1  0.5078340000000  0.6015960000000  0.4780000000000 1.0
C      1  0.5328670000000  0.4292390000000  0.5480550000000 1.0
C      1  0.4266120000000  0.5482180000000  0.5327030000000 1.0
C      1  0.5461890000000  0.5323870000000  0.4313760000000 1.0
C      1  0.4649260000000  0.4281350000000  0.4506780000000 1.0
C      1  0.4654980000000  0.5699120000000  0.5484160000000 1.0
C      1  0.5320180000000  0.5699820000000  0.4512000000000 1.0
C      1  0.5717900000000  0.5495580000000  0.4655350000000 1.0
C      1  0.5699780000000  0.4515280000000  0.5332340000000 1.0
C      1  0.4290740000000  0.4520750000000  0.4654230000000 1.0
C      1  0.4517090000000  0.5332330000000  0.5692040000000 1.0
C      1  0.4614010000000  0.4747420000000  0.4399080000000 1.0
C      1  0.5472210000000  0.4659730000000  0.5703280000000 1.0
C      1  0.5004430000000  0.4709300000000  0.5335380000000 1.0
C      1  0.4730020000000  0.5372930000000  0.5015120000000 1.0
C      1  0.5314100000000  0.5006850000000  0.4690580000000 1.0
C      1  0.4974590000000  0.4733360000000  0.4607850000000 1.0
C      1  0.4983660000000  0.5235100000000  0.5377020000000 1.0
C      1  0.5007240000000  0.5265230000000  0.4688240000000 1.0
C      1  0.5251880000000  0.5310680000000  0.5004030000000 1.0
C      1  0.5252070000000  0.4699300000000  0.4979270000000 1.0
C      1  0.4736970000000  0.4648460000000  0.4979750000000 1.0
C      1  0.4664860000000  0.4992070000000  0.5273540000000 1.0
C      1  0.4638470000000  0.4992470000000  0.4771570000000 1.0
C      1  0.5324930000000  0.4956390000000  0.5288270000000 1.0
C      1  0.5147390000000  0.5918990000000  0.4523760000000 1.0
C      1  0.5932420000000  0.4542550000000  0.5178630000000 1.0
C      1  0.4549150000000  0.5183810000000  0.5920410000000 1.0
C      1  0.4810990000000  0.5928420000000  0.5461850000000 1.0
C      1  0.4802950000000  0.4056660000000  0.4543110000000 1.0
C      1  0.5182260000000  0.4062850000000  0.5450540000000 1.0
C      1  0.4062320000000  0.4545000000000  0.4814750000000 1.0
C      1  0.4045830000000  0.5439540000000  0.5155310000000 1.0
C      1  0.5943120000000  0.5458320000000  0.4815260000000 1.0
C      1  0.5435530000000  0.5166550000000  0.4086820000000 1.0
C      1  0.5442320000000  0.4813500000000  0.5926220000000 1.0
C      1  0.4567760000000  0.4817690000000  0.4109350000000 1.0
C      1  0.4141560000000  0.5086260000000  0.5522370000000 1.0
C      1  0.5094850000000  0.5515490000000  0.4118130000000 1.0
C      1  0.5517700000000  0.4151190000000  0.5088320000000 1.0
C      1  0.5848580000000  0.5092350000000  0.4478320000000 1.0
C      1  0.5846090000000  0.4911220000000  0.5520890000000 1.0
C      1  0.4136100000000  0.4949560000000  0.4510350000000 1.0
C      1  0.4907190000000  0.5519240000000  0.5853080000000 1.0
C      1  0.4903410000000  0.4469930000000  0.4145060000000 1.0
C      1  0.5078570000000  0.4469900000000  0.5859250000000 1.0
C      1  0.4490180000000  0.4159450000000  0.4915770000000 1.0
C      1  0.4466470000000  0.5828570000000  0.5077350000000 1.0
C      1  0.5516810000000  0.5844230000000  0.4912680000000 1.0
C      1  0.5089140000000  0.5701160000000  0.5738960000000 1.0
C      1  0.5704340000000  0.5731810000000  0.5097040000000 1.0
C      1  0.5732060000000  0.5093760000000  0.5711280000000 1.0
C      1  0.4935900000000  0.5630550000000  0.4299350000000 1.0
C      1  0.4895660000000  0.4282950000000  0.5735970000000 1.0
C      1  0.5088700000000  0.4284100000000  0.4261970000000 1.0
C      1  0.4275030000000  0.5716810000000  0.4892690000000 1.0
C      1  0.4297030000000  0.4270110000000  0.5092600000000 1.0
C      1  0.5701830000000  0.4264600000000  0.4904500000000 1.0
C      1  0.4266880000000  0.5107760000000  0.4301260000000 1.0
C      1  0.4263710000000  0.4903640000000  0.5706110000000 1.0
C      1  0.5731140000000  0.4910690000000  0.4294770000000 1.0
C      1  0.5103980000000  0.4902500000000  0.4826440000000 1.0
C      1  0.4859430000000  0.5147320000000  0.4892450000000 1.0
C      1  0.4881370000000  0.4857410000000  0.5125390000000 1.0
C      1  0.5114510000000  0.5087460000000  0.5150600000000 1.0
END
