TITL C-2441167-4473-1396 0.0536232236997259 125000 -15611.6050670719 0 0 114 (C1) n - 1
REM
REM in /home/bkarasulu/work/CARBON/AIRSS/Generating-Clusters/ReaxFF-fromJPCA2015/Units_Real/with-SteepDescent/Higher-Symm
REM
REM
REM
REM
REM
REM ./C.cell (1df0a924f5614ab8850e4351716899ee)
REM
REM compiler GCC version 9.2.1 20190827 (Red Hat 9.2.1-1)
REM options -cpp -mtune=generic -march=x86-64 -g -O0 -fpre-include=/usr/include/finclude/math-vector-fortran.h
REM seed 980547806 -1111009206 1182248668 -1431828219 1654986925 -686809103 -2075006000 1994353734 -1931962906 -1912066877 -721182853 1424694087 -1647744928 -1628071401 442235700 10494332 917053324 -244869241 -241767561 -849046860 308024944 912445209 1214211489 168891600 -1268042990 -34461031 186081267 1063188333 -1718787510 67093920 766949781 -107473730 434815410
REM
CELL 1.54180   50.00000   50.00000   50.00000   90.00000   90.00000   90.00000
LATT -1
SFAC C  
C      1  0.4837720000000  0.4861370000000  0.4474460000000 1.0
C      1  0.4286850000000  0.4585690000000  0.5488400000000 1.0
C      1  0.5586680000000  0.4440730000000  0.5459700000000 1.0
C      1  0.5185410000000  0.5698060000000  0.4610820000000 1.0
C      1  0.4380770000000  0.5484400000000  0.4984550000000 1.0
C      1  0.4160560000000  0.5339110000000  0.4567330000000 1.0
C      1  0.5774890000000  0.5534910000000  0.5258860000000 1.0
C      1  0.4930000000000  0.5401500000000  0.4963760000000 1.0
C      1  0.5730620000000  0.5183780000000  0.5648340000000 1.0
C      1  0.4767720000000  0.4570830000000  0.4920830000000 1.0
C      1  0.4341760000000  0.5533130000000  0.4683460000000 1.0
C      1  0.4739250000000  0.4344420000000  0.5489440000000 1.0
C      1  0.5458060000000  0.4157860000000  0.5011140000000 1.0
C      1  0.5593470000000  0.4834400000000  0.4487650000000 1.0
C      1  0.5195200000000  0.5192070000000  0.4572160000000 1.0
C      1  0.4577760000000  0.5661300000000  0.5102860000000 1.0
C      1  0.4203120000000  0.5342280000000  0.5201440000000 1.0
C      1  0.5435130000000  0.4924740000000  0.5183150000000 1.0
C      1  0.5146490000000  0.5349860000000  0.5149290000000 1.0
C      1  0.5563430000000  0.5548150000000  0.5077080000000 1.0
C      1  0.4882400000000  0.5384260000000  0.5846750000000 1.0
C      1  0.5341040000000  0.5477050000000  0.4247740000000 1.0
C      1  0.4749180000000  0.4807500000000  0.4744160000000 1.0
C      1  0.4205180000000  0.4920640000000  0.4571180000000 1.0
C      1  0.5038000000000  0.5853200000000  0.5040300000000 1.0
C      1  0.4091080000000  0.5122910000000  0.4757860000000 1.0
C      1  0.4271000000000  0.4638580000000  0.4943010000000 1.0
C      1  0.4457250000000  0.4428080000000  0.4552050000000 1.0
C      1  0.4275950000000  0.5134250000000  0.4378160000000 1.0
C      1  0.4620160000000  0.5056650000000  0.4754940000000 1.0
C      1  0.4545060000000  0.5179600000000  0.4265110000000 1.0
C      1  0.5462880000000  0.4626090000000  0.4658480000000 1.0
C      1  0.5203480000000  0.4716280000000  0.4767850000000 1.0
C      1  0.4605120000000  0.5317930000000  0.5794490000000 1.0
C      1  0.5122760000000  0.4888830000000  0.5827560000000 1.0
C      1  0.4853910000000  0.4250420000000  0.4537040000000 1.0
C      1  0.5635680000000  0.5570470000000  0.4670960000000 1.0
C      1  0.5928060000000  0.5205440000000  0.4969330000000 1.0
C      1  0.4656440000000  0.5037940000000  0.5879880000000 1.0
C      1  0.5295170000000  0.5688770000000  0.5437230000000 1.0
C      1  0.5868910000000  0.5047920000000  0.5434690000000 1.0
C      1  0.5498270000000  0.4993930000000  0.4258530000000 1.0
C      1  0.4510630000000  0.5167070000000  0.4990350000000 1.0
C      1  0.5911100000000  0.5276220000000  0.5252310000000 1.0
C      1  0.4712280000000  0.5007320000000  0.4094930000000 1.0
C      1  0.5332780000000  0.4415490000000  0.4311840000000 1.0
C      1  0.5650440000000  0.4850190000000  0.4947810000000 1.0
C      1  0.5383600000000  0.4820280000000  0.5709830000000 1.0
C      1  0.4302340000000  0.4651780000000  0.4651890000000 1.0
C      1  0.5190840000000  0.5008600000000  0.4793980000000 1.0
C      1  0.4775880000000  0.5753570000000  0.4612200000000 1.0
C      1  0.4192270000000  0.4854570000000  0.5493310000000 1.0
C      1  0.5410910000000  0.4979590000000  0.5476810000000 1.0
C      1  0.5264980000000  0.4933190000000  0.4091600000000 1.0
C      1  0.4593040000000  0.4482980000000  0.4294490000000 1.0
C      1  0.4958500000000  0.4112940000000  0.4753400000000 1.0
C      1  0.4853600000000  0.5746110000000  0.5489130000000 1.0
C      1  0.4570810000000  0.4985950000000  0.5459220000000 1.0
C      1  0.5099290000000  0.4594330000000  0.4316300000000 1.0
C      1  0.4872940000000  0.4390800000000  0.4297530000000 1.0
C      1  0.4943080000000  0.5099760000000  0.5920020000000 1.0
C      1  0.4754770000000  0.5227210000000  0.5127500000000 1.0
C      1  0.4722930000000  0.4590520000000  0.5656160000000 1.0
C      1  0.5090820000000  0.5344860000000  0.4190260000000 1.0
C      1  0.5665230000000  0.5011130000000  0.4701880000000 1.0
C      1  0.5523710000000  0.5730940000000  0.4885010000000 1.0
C      1  0.4539150000000  0.4818490000000  0.5714200000000 1.0
C      1  0.4661800000000  0.4767620000000  0.4249250000000 1.0
C      1  0.5245320000000  0.4237500000000  0.4811860000000 1.0
C      1  0.4966480000000  0.4866740000000  0.5199450000000 1.0
C      1  0.5204980000000  0.4373190000000  0.5613300000000 1.0
C      1  0.5452650000000  0.4282920000000  0.5267810000000 1.0
C      1  0.5300210000000  0.5145650000000  0.5031450000000 1.0
C      1  0.5424660000000  0.5240680000000  0.4405300000000 1.0
C      1  0.4758530000000  0.4698680000000  0.5174170000000 1.0
C      1  0.5442370000000  0.4529890000000  0.5690290000000 1.0
C      1  0.4952070000000  0.4769950000000  0.5614870000000 1.0
C      1  0.5923240000000  0.4901670000000  0.5022970000000 1.0
C      1  0.5073200000000  0.5842890000000  0.5324270000000 1.0
C      1  0.4747170000000  0.4128170000000  0.4956540000000 1.0
C      1  0.4805970000000  0.5714410000000  0.4934670000000 1.0
C      1  0.4471390000000  0.4433410000000  0.4983920000000 1.0
C      1  0.5128280000000  0.4601610000000  0.5454110000000 1.0
C      1  0.5759850000000  0.5307860000000  0.4746430000000 1.0
C      1  0.4835310000000  0.4246190000000  0.5225670000000 1.0
C      1  0.4612680000000  0.5632220000000  0.5381240000000 1.0
C      1  0.5506560000000  0.5559270000000  0.5326230000000 1.0
C      1  0.4479600000000  0.5427040000000  0.5551370000000 1.0
C      1  0.5096740000000  0.4511650000000  0.4939840000000 1.0
C      1  0.4059690000000  0.5143640000000  0.5057040000000 1.0
C      1  0.5538330000000  0.5302260000000  0.5770720000000 1.0
C      1  0.5785810000000  0.4524910000000  0.5279450000000 1.0
C      1  0.5325950000000  0.5224540000000  0.5603970000000 1.0
C      1  0.5254460000000  0.5834620000000  0.4855240000000 1.0
C      1  0.4513810000000  0.4233350000000  0.4786440000000 1.0
C      1  0.5304740000000  0.4645820000000  0.4111990000000 1.0
C      1  0.5157260000000  0.5429760000000  0.5469320000000 1.0
C      1  0.5004620000000  0.5096710000000  0.4089340000000 1.0
C      1  0.5669200000000  0.4345740000000  0.5075470000000 1.0
C      1  0.4514190000000  0.4765240000000  0.5290510000000 1.0
C      1  0.5201970000000  0.4694040000000  0.5184450000000 1.0
C      1  0.4545900000000  0.5625110000000  0.4499460000000 1.0
C      1  0.5409750000000  0.4349880000000  0.4579230000000 1.0
C      1  0.4844140000000  0.5072570000000  0.5360930000000 1.0
C      1  0.4103690000000  0.4897830000000  0.5216080000000 1.0
C      1  0.4980990000000  0.5559630000000  0.5653930000000 1.0
C      1  0.4317470000000  0.5217260000000  0.5439220000000 1.0
C      1  0.5912420000000  0.4789740000000  0.5290470000000 1.0
C      1  0.4835300000000  0.5539110000000  0.4427270000000 1.0
C      1  0.5431790000000  0.5652930000000  0.4469020000000 1.0
C      1  0.4716000000000  0.5128160000000  0.4496900000000 1.0
C      1  0.4359670000000  0.4877630000000  0.5087450000000 1.0
C      1  0.5006360000000  0.4217030000000  0.5463920000000 1.0
C      1  0.5029680000000  0.5424060000000  0.4633180000000 1.0
END
