TITL C-2441166-8118-459 0.0454580509949359 125000 -23617.8602957776 0 0 163 (C1) n - 1
REM
REM in /home/bkarasulu/work/CARBON/AIRSS/Generating-Clusters/ReaxFF-fromJPCA2015/Units_Real/with-SteepDescent/Higher-Symm
REM
REM
REM
REM
REM
REM ./C.cell (1df0a924f5614ab8850e4351716899ee)
REM
REM compiler GCC version 9.2.1 20190827 (Red Hat 9.2.1-1)
REM options -cpp -mtune=generic -march=x86-64 -g -O0 -fpre-include=/usr/include/finclude/math-vector-fortran.h
REM seed -1977850351 1076902388 2006882047 1263712175 -496576421 -850280814 529779248 2047271816 -589990021 -1385755839 2140578179 -1077138757 -1310624469 278328386 50809302 1887479320 1687242421 -1840077677 -465231598 208267376 561746165 662266155 303679425 492084324 1973829311 2133741613 -1953174528 403456705 -506561329 -374606186 1047012843 -564982864 -1031815239
REM
CELL 1.54180   50.00000   50.00000   50.00000   90.00000   90.00000   90.00000
LATT -1
SFAC C  
C      1  0.4522410000000  0.5887400000000  0.4771590000000 1.0
C      1  0.4038040000000  0.5011490000000  0.4767960000000 1.0
C      1  0.4455990000000  0.4111530000000  0.4790700000000 1.0
C      1  0.5456570000000  0.4059040000000  0.4774690000000 1.0
C      1  0.6076350000000  0.4859190000000  0.4742630000000 1.0
C      1  0.5711200000000  0.5786070000000  0.4723140000000 1.0
C      1  0.5491370000000  0.5906790000000  0.5160880000000 1.0
C      1  0.6001670000000  0.5031720000000  0.5225980000000 1.0
C      1  0.5669150000000  0.4196480000000  0.5241180000000 1.0
C      1  0.4626420000000  0.3999040000000  0.5265370000000 1.0
C      1  0.4006270000000  0.4791920000000  0.5238580000000 1.0
C      1  0.4294640000000  0.5771880000000  0.5257760000000 1.0
C      1  0.5944370000000  0.4754760000000  0.4489310000000 1.0
C      1  0.5648720000000  0.5656440000000  0.4487250000000 1.0
C      1  0.4743120000000  0.5893790000000  0.4572470000000 1.0
C      1  0.4109250000000  0.5238070000000  0.4557040000000 1.0
C      1  0.4337730000000  0.4306670000000  0.4622970000000 1.0
C      1  0.5233060000000  0.4077790000000  0.4569370000000 1.0
C      1  0.4114870000000  0.4801660000000  0.5498850000000 1.0
C      1  0.4366860000000  0.5657880000000  0.5500360000000 1.0
C      1  0.5129700000000  0.5910180000000  0.5545890000000 1.0
C      1  0.5894130000000  0.5228100000000  0.5426970000000 1.0
C      1  0.5693230000000  0.4356680000000  0.5476320000000 1.0
C      1  0.4770310000000  0.4079860000000  0.5500100000000 1.0
C      1  0.4796230000000  0.4947390000000  0.4650570000000 1.0
C      1  0.5022030000000  0.4772780000000  0.4643070000000 1.0
C      1  0.5272410000000  0.4913250000000  0.4616480000000 1.0
C      1  0.5196500000000  0.5142470000000  0.4560450000000 1.0
C      1  0.5054650000000  0.5337420000000  0.4502910000000 1.0
C      1  0.4783990000000  0.5204560000000  0.4514730000000 1.0
C      1  0.5273410000000  0.4938100000000  0.5509170000000 1.0
C      1  0.5043890000000  0.4771150000000  0.5503500000000 1.0
C      1  0.4760700000000  0.4793910000000  0.5499470000000 1.0
C      1  0.4708020000000  0.5071990000000  0.5469390000000 1.0
C      1  0.4907950000000  0.5266250000000  0.5471750000000 1.0
C      1  0.5186750000000  0.5209610000000  0.5488760000000 1.0
C      1  0.4739350000000  0.5132260000000  0.5923300000000 1.0
C      1  0.4737860000000  0.4835550000000  0.5926110000000 1.0
C      1  0.5001860000000  0.4696260000000  0.5909610000000 1.0
C      1  0.5263080000000  0.4844940000000  0.5919010000000 1.0
C      1  0.5262610000000  0.5138800000000  0.5912940000000 1.0
C      1  0.4999920000000  0.5272280000000  0.5923170000000 1.0
C      1  0.5250090000000  0.5143190000000  0.4099620000000 1.0
C      1  0.5248940000000  0.4845190000000  0.4113800000000 1.0
C      1  0.5000540000000  0.4691100000000  0.4125880000000 1.0
C      1  0.4746440000000  0.4843280000000  0.4134630000000 1.0
C      1  0.4742600000000  0.5150920000000  0.4109570000000 1.0
C      1  0.4998440000000  0.5300160000000  0.4094210000000 1.0
C      1  0.5045650000000  0.5684840000000  0.5166080000000 1.0
C      1  0.4419430000000  0.5372150000000  0.5103390000000 1.0
C      1  0.4409590000000  0.4668530000000  0.5181320000000 1.0
C      1  0.4930850000000  0.4413080000000  0.5220820000000 1.0
C      1  0.5537240000000  0.4650280000000  0.5211440000000 1.0
C      1  0.5584550000000  0.5306590000000  0.5174130000000 1.0
C      1  0.4960870000000  0.5702420000000  0.4875740000000 1.0
C      1  0.5596530000000  0.5388130000000  0.4862010000000 1.0
C      1  0.5627950000000  0.4674960000000  0.4818160000000 1.0
C      1  0.4955780000000  0.4327630000000  0.4736840000000 1.0
C      1  0.4381970000000  0.4662440000000  0.4788040000000 1.0
C      1  0.4411620000000  0.5318550000000  0.4823960000000 1.0
C      1  0.5228350000000  0.5917470000000  0.5276270000000 1.0
C      1  0.4175970000000  0.5520240000000  0.5163430000000 1.0
C      1  0.4150330000000  0.4525800000000  0.5112630000000 1.0
C      1  0.4909050000000  0.4109030000000  0.5216560000000 1.0
C      1  0.5794750000000  0.4512010000000  0.5228050000000 1.0
C      1  0.5830300000000  0.5470610000000  0.5282160000000 1.0
C      1  0.4948310000000  0.5986150000000  0.4758910000000 1.0
C      1  0.5844380000000  0.5546790000000  0.4831550000000 1.0
C      1  0.5905470000000  0.4624090000000  0.4744880000000 1.0
C      1  0.4986970000000  0.4036260000000  0.4726910000000 1.0
C      1  0.4140110000000  0.4482180000000  0.4772580000000 1.0
C      1  0.4179750000000  0.5460330000000  0.4721480000000 1.0
C      1  0.4733560000000  0.4467420000000  0.4637640000000 1.0
C      1  0.5448480000000  0.4491480000000  0.4719890000000 1.0
C      1  0.5626750000000  0.5165940000000  0.4697720000000 1.0
C      1  0.5149920000000  0.5579240000000  0.4664200000000 1.0
C      1  0.4631940000000  0.5400470000000  0.4664900000000 1.0
C      1  0.4318680000000  0.4902810000000  0.4721310000000 1.0
C      1  0.5197760000000  0.4403840000000  0.5264370000000 1.0
C      1  0.4557050000000  0.4593560000000  0.5393940000000 1.0
C      1  0.4459270000000  0.5130530000000  0.5328990000000 1.0
C      1  0.4855710000000  0.5510910000000  0.5330330000000 1.0
C      1  0.5347950000000  0.5372480000000  0.5331150000000 1.0
C      1  0.5507900000000  0.4895420000000  0.5339470000000 1.0
C      1  0.5158510000000  0.4536050000000  0.4759240000000 1.0
C      1  0.5522060000000  0.4940990000000  0.4829490000000 1.0
C      1  0.5328440000000  0.5479270000000  0.4867110000000 1.0
C      1  0.4762850000000  0.5522860000000  0.4872850000000 1.0
C      1  0.4547690000000  0.5013360000000  0.4842020000000 1.0
C      1  0.4646800000000  0.4589800000000  0.4855990000000 1.0
C      1  0.4826370000000  0.4655750000000  0.5088200000000 1.0
C      1  0.4482800000000  0.4930040000000  0.5114490000000 1.0
C      1  0.4677140000000  0.5467830000000  0.5118040000000 1.0
C      1  0.5226150000000  0.5486290000000  0.5114170000000 1.0
C      1  0.5533140000000  0.5036710000000  0.5107940000000 1.0
C      1  0.5270590000000  0.4623220000000  0.5098160000000 1.0
C      1  0.5906750000000  0.4788750000000  0.5561850000000 1.0
C      1  0.5648630000000  0.5678800000000  0.5576200000000 1.0
C      1  0.4830760000000  0.5913230000000  0.5536110000000 1.0
C      1  0.4198080000000  0.5217030000000  0.5479940000000 1.0
C      1  0.4380380000000  0.4396830000000  0.5499260000000 1.0
C      1  0.5262700000000  0.4106000000000  0.5521340000000 1.0
C      1  0.4070550000000  0.4772820000000  0.4403040000000 1.0
C      1  0.4343630000000  0.5690600000000  0.4421400000000 1.0
C      1  0.5228940000000  0.5831340000000  0.4489700000000 1.0
C      1  0.5845380000000  0.5223840000000  0.4524940000000 1.0
C      1  0.5620540000000  0.4362480000000  0.4517380000000 1.0
C      1  0.4724280000000  0.4055480000000  0.4415530000000 1.0
C      1  0.4511760000000  0.4408300000000  0.5761770000000 1.0
C      1  0.5265240000000  0.4290700000000  0.5740430000000 1.0
C      1  0.5750800000000  0.4877440000000  0.5774760000000 1.0
C      1  0.5483350000000  0.5577890000000  0.5779120000000 1.0
C      1  0.4757360000000  0.5705410000000  0.5735340000000 1.0
C      1  0.4256160000000  0.5128250000000  0.5752930000000 1.0
C      1  0.5466630000000  0.4415580000000  0.4268540000000 1.0
C      1  0.4737490000000  0.4268720000000  0.4238300000000 1.0
C      1  0.4267410000000  0.4868850000000  0.4232490000000 1.0
C      1  0.4522010000000  0.5592430000000  0.4227530000000 1.0
C      1  0.5261380000000  0.5712280000000  0.4228790000000 1.0
C      1  0.5742080000000  0.5123980000000  0.4263350000000 1.0
C      1  0.5725900000000  0.4111420000000  0.4658370000000 1.0
C      1  0.6008310000000  0.5318340000000  0.4753520000000 1.0
C      1  0.5246250000000  0.6012760000000  0.4715310000000 1.0
C      1  0.4269080000000  0.5749960000000  0.4678860000000 1.0
C      1  0.3968860000000  0.4728100000000  0.4647990000000 1.0
C      1  0.4697030000000  0.3962460000000  0.4671430000000 1.0
C      1  0.4251720000000  0.4286450000000  0.5255620000000 1.0
C      1  0.4024840000000  0.5279830000000  0.5253230000000 1.0
C      1  0.4684400000000  0.5937840000000  0.5288460000000 1.0
C      1  0.5715040000000  0.5745930000000  0.5321570000000 1.0
C      1  0.5996930000000  0.4744710000000  0.5309260000000 1.0
C      1  0.5228970000000  0.4006510000000  0.5260580000000 1.0
C      1  0.5735360000000  0.4835680000000  0.4293580000000 1.0
C      1  0.5516640000000  0.5556900000000  0.4257930000000 1.0
C      1  0.4772460000000  0.5718600000000  0.4319920000000 1.0
C      1  0.4267040000000  0.5164840000000  0.4321730000000 1.0
C      1  0.4537330000000  0.4440490000000  0.4403530000000 1.0
C      1  0.5223710000000  0.4270130000000  0.4332340000000 1.0
C      1  0.4254210000000  0.4828270000000  0.5743010000000 1.0
C      1  0.4501210000000  0.5560540000000  0.5731170000000 1.0
C      1  0.5214000000000  0.5696400000000  0.5731850000000 1.0
C      1  0.5734670000000  0.5158760000000  0.5680780000000 1.0
C      1  0.5511480000000  0.4450910000000  0.5695850000000 1.0
C      1  0.4770350000000  0.4274480000000  0.5722120000000 1.0
C      1  0.4498690000000  0.5274790000000  0.5837900000000 1.0
C      1  0.4500080000000  0.4687300000000  0.5847410000000 1.0
C      1  0.5007910000000  0.4415650000000  0.5820700000000 1.0
C      1  0.5504870000000  0.4710260000000  0.5827240000000 1.0
C      1  0.5504960000000  0.5282050000000  0.5813310000000 1.0
C      1  0.4986620000000  0.5555830000000  0.5839570000000 1.0
C      1  0.5503980000000  0.5267680000000  0.4174110000000 1.0
C      1  0.5489360000000  0.4699510000000  0.4196740000000 1.0
C      1  0.4997910000000  0.4404930000000  0.4202510000000 1.0
C      1  0.4515680000000  0.4714120000000  0.4238320000000 1.0
C      1  0.4497030000000  0.5292650000000  0.4194100000000 1.0
C      1  0.4998980000000  0.5588320000000  0.4178990000000 1.0
C      1  0.5483260000000  0.5934590000000  0.4875970000000 1.0
C      1  0.4515550000000  0.5920260000000  0.5073520000000 1.0
C      1  0.5458050000000  0.4079340000000  0.5084380000000 1.0
C      1  0.6049690000000  0.5084910000000  0.4930200000000 1.0
C      1  0.3989100000000  0.5038640000000  0.5089170000000 1.0
C      1  0.4416380000000  0.4112150000000  0.5093260000000 1.0
C      1  0.5035400000000  0.4861400000000  0.5110330000000 1.0
END
