TITL C-2441162-9305-1439 0.02767070821908 125000 -10761.1321236423 0 0 81 (C1) n - 1
REM
REM in /home/bkarasulu/work/CARBON/AIRSS/Generating-Clusters/ReaxFF-fromJPCA2015/Units_Real/with-SteepDescent/Higher-Symm
REM
REM
REM
REM
REM
REM ./C.cell (1df0a924f5614ab8850e4351716899ee)
REM
REM compiler GCC version 9.2.1 20190827 (Red Hat 9.2.1-1)
REM options -cpp -mtune=generic -march=x86-64 -g -O0 -fpre-include=/usr/include/finclude/math-vector-fortran.h
REM seed -593618728 -1310241185 1113529238 152175371 984998233 483100424 5491585 -842301174 -1116026794 -526295810 1565174220 2060267534 -1610958551 -1351553259 130669117 1798923536 1040350511 1635459219 1960333507 -2028893379 -415302897 251931896 436367886 -676866182 -1481560162 643656160 1248425395 -1884267913 1112706642 -189157916 -281085497 781685168 420536684
REM
CELL 1.54180   50.00000   50.00000   50.00000   90.00000   90.00000   90.00000
LATT -1
SFAC C  
C      1  0.5694300000000  0.5345620000000  0.5259640000000 1.0
C      1  0.5653620000000  0.4895630000000  0.5478670000000 1.0
C      1  0.5703570000000  0.4647950000000  0.5294350000000 1.0
C      1  0.5674690000000  0.4617350000000  0.4779410000000 1.0
C      1  0.5649160000000  0.4852530000000  0.4587160000000 1.0
C      1  0.5682350000000  0.5159470000000  0.4616260000000 1.0
C      1  0.5655870000000  0.5479910000000  0.4980930000000 1.0
C      1  0.4997960000000  0.5050790000000  0.4687530000000 1.0
C      1  0.5064540000000  0.5298400000000  0.4814310000000 1.0
C      1  0.4943970000000  0.5324870000000  0.5088850000000 1.0
C      1  0.4947300000000  0.5153630000000  0.5334480000000 1.0
C      1  0.4971270000000  0.4859910000000  0.5329190000000 1.0
C      1  0.4972620000000  0.4700730000000  0.5069730000000 1.0
C      1  0.5082260000000  0.4809270000000  0.4827080000000 1.0
C      1  0.4448450000000  0.5434440000000  0.4684210000000 1.0
C      1  0.4443870000000  0.5416180000000  0.5158810000000 1.0
C      1  0.4522460000000  0.5113920000000  0.5654120000000 1.0
C      1  0.4502240000000  0.4593990000000  0.5441490000000 1.0
C      1  0.4428930000000  0.4464050000000  0.5002240000000 1.0
C      1  0.4473130000000  0.4616280000000  0.4592650000000 1.0
C      1  0.4424290000000  0.5079380000000  0.4418140000000 1.0
C      1  0.4659320000000  0.5106310000000  0.5393650000000 1.0
C      1  0.4677520000000  0.4837100000000  0.5294130000000 1.0
C      1  0.4679440000000  0.4692660000000  0.5016760000000 1.0
C      1  0.4638070000000  0.4791970000000  0.4752870000000 1.0
C      1  0.4711030000000  0.5017100000000  0.4613660000000 1.0
C      1  0.4661900000000  0.5249710000000  0.4762200000000 1.0
C      1  0.4685100000000  0.5538120000000  0.5085340000000 1.0
C      1  0.4243280000000  0.5014000000000  0.4640890000000 1.0
C      1  0.4241430000000  0.5260520000000  0.4804140000000 1.0
C      1  0.4219290000000  0.5269560000000  0.5112330000000 1.0
C      1  0.4282070000000  0.5078360000000  0.5329800000000 1.0
C      1  0.4278230000000  0.4797320000000  0.5291190000000 1.0
C      1  0.4222150000000  0.4663000000000  0.5037890000000 1.0
C      1  0.4241700000000  0.4736690000000  0.4747310000000 1.0
C      1  0.5439090000000  0.4508440000000  0.5305720000000 1.0
C      1  0.5423650000000  0.4461500000000  0.4782300000000 1.0
C      1  0.5405280000000  0.4803980000000  0.4444730000000 1.0
C      1  0.5439850000000  0.5280080000000  0.4508060000000 1.0
C      1  0.5395020000000  0.5593650000000  0.4937140000000 1.0
C      1  0.5411820000000  0.5417640000000  0.5387090000000 1.0
C      1  0.5380320000000  0.4940610000000  0.5583680000000 1.0
C      1  0.4947590000000  0.4808330000000  0.5679920000000 1.0
C      1  0.4942080000000  0.4338460000000  0.5390200000000 1.0
C      1  0.5017380000000  0.4287490000000  0.4791790000000 1.0
C      1  0.4982960000000  0.4834980000000  0.4249950000000 1.0
C      1  0.4886600000000  0.5384490000000  0.4340300000000 1.0
C      1  0.4973000000000  0.5821490000000  0.4998050000000 1.0
C      1  0.5090460000000  0.5435640000000  0.5667860000000 1.0
C      1  0.4774140000000  0.5786930000000  0.5424800000000 1.0
C      1  0.4684120000000  0.5332650000000  0.5774360000000 1.0
C      1  0.4611570000000  0.4628070000000  0.5702610000000 1.0
C      1  0.4586780000000  0.4237460000000  0.5066270000000 1.0
C      1  0.4689730000000  0.4413100000000  0.4566740000000 1.0
C      1  0.4614190000000  0.5001750000000  0.4233690000000 1.0
C      1  0.4773380000000  0.5714390000000  0.4571160000000 1.0
C      1  0.4735740000000  0.4231460000000  0.4794850000000 1.0
C      1  0.4754890000000  0.4780020000000  0.4217300000000 1.0
C      1  0.4625370000000  0.5491010000000  0.4447410000000 1.0
C      1  0.4742650000000  0.5747200000000  0.4869210000000 1.0
C      1  0.4794080000000  0.5537470000000  0.5568170000000 1.0
C      1  0.4676010000000  0.4885630000000  0.5788790000000 1.0
C      1  0.4661370000000  0.4333040000000  0.5329240000000 1.0
C      1  0.4956400000000  0.5267060000000  0.5834210000000 1.0
C      1  0.5041220000000  0.4543050000000  0.5608280000000 1.0
C      1  0.5069950000000  0.4287380000000  0.5134230000000 1.0
C      1  0.4999400000000  0.4433700000000  0.4538320000000 1.0
C      1  0.5025070000000  0.5108880000000  0.4250130000000 1.0
C      1  0.5025350000000  0.5596500000000  0.4473900000000 1.0
C      1  0.5050840000000  0.5800710000000  0.5261430000000 1.0
C      1  0.5307490000000  0.5069150000000  0.4349890000000 1.0
C      1  0.5255640000000  0.5483360000000  0.4675420000000 1.0
C      1  0.5273920000000  0.5616300000000  0.5205460000000 1.0
C      1  0.5296610000000  0.5238900000000  0.5582550000000 1.0
C      1  0.5299090000000  0.4649800000000  0.5525880000000 1.0
C      1  0.5325480000000  0.4365810000000  0.5069990000000 1.0
C      1  0.5269740000000  0.4555500000000  0.4548530000000 1.0
C      1  0.5265460000000  0.4966550000000  0.4974400000000 1.0
C      1  0.4731940000000  0.5095960000000  0.4997510000000 1.0
C      1  0.5495730000000  0.4988960000000  0.5031340000000 1.0
C      1  0.5758780000000  0.5013950000000  0.5097300000000 1.0
END
