TITL C-2441167-4473-531 0.0344096954697129 125000 -10409.9444274266 0 0 77 (C1) n - 1
REM
REM in /home/bkarasulu/work/CARBON/AIRSS/Generating-Clusters/ReaxFF-fromJPCA2015/Units_Real/with-SteepDescent/Higher-Symm
REM
REM
REM
REM
REM
REM ./C.cell (1df0a924f5614ab8850e4351716899ee)
REM
REM compiler GCC version 9.2.1 20190827 (Red Hat 9.2.1-1)
REM options -cpp -mtune=generic -march=x86-64 -g -O0 -fpre-include=/usr/include/finclude/math-vector-fortran.h
REM seed 1814523820 -406940341 -1837550743 -1037299511 785264232 -1448096860 -890915152 -441405829 -632607839 -250515016 -447759781 -1086457824 -722216580 464709029 1387355427 1705380084 1320655658 555682334 1220496781 -1654149216 2078899518 2046200364 -41458295 -289872878 -241920995 -2062372425 1055944563 -935434573 1422185843 -144437762 1322159067 758782388 -374739712
REM
CELL 1.54180   50.00000   50.00000   50.00000   90.00000   90.00000   90.00000
LATT -1
SFAC C  
C      1  0.4352400000000  0.5346840000000  0.5238580000000 1.0
C      1  0.5335660000000  0.5244700000000  0.4346960000000 1.0
C      1  0.5238560000000  0.4358090000000  0.5332370000000 1.0
C      1  0.5635200000000  0.4664730000000  0.5232590000000 1.0
C      1  0.4354440000000  0.4666190000000  0.4752690000000 1.0
C      1  0.5621670000000  0.5331560000000  0.4768980000000 1.0
C      1  0.4655190000000  0.4761050000000  0.4357210000000 1.0
C      1  0.5327550000000  0.4775940000000  0.5628260000000 1.0
C      1  0.4655020000000  0.5244250000000  0.5636350000000 1.0
C      1  0.4770210000000  0.5633610000000  0.5330740000000 1.0
C      1  0.5225310000000  0.5634750000000  0.4660040000000 1.0
C      1  0.4757120000000  0.4367030000000  0.4659700000000 1.0
C      1  0.5562300000000  0.5098020000000  0.5344000000000 1.0
C      1  0.5099210000000  0.5353940000000  0.5561380000000 1.0
C      1  0.5342370000000  0.5561770000000  0.5093190000000 1.0
C      1  0.4438990000000  0.4905530000000  0.5376290000000 1.0
C      1  0.5543490000000  0.4909600000000  0.4616010000000 1.0
C      1  0.4444960000000  0.5102780000000  0.4625030000000 1.0
C      1  0.4904660000000  0.4622360000000  0.5536390000000 1.0
C      1  0.5091290000000  0.4626870000000  0.4448430000000 1.0
C      1  0.4902500000000  0.5384000000000  0.4428720000000 1.0
C      1  0.4613040000000  0.4457130000000  0.5082060000000 1.0
C      1  0.5392880000000  0.4436650000000  0.4903540000000 1.0
C      1  0.4625040000000  0.5557170000000  0.4898520000000 1.0
C      1  0.5002150000000  0.4350440000000  0.5143360000000 1.0
C      1  0.4360430000000  0.5142510000000  0.4974050000000 1.0
C      1  0.5143550000000  0.4998060000000  0.4349510000000 1.0
C      1  0.5011830000000  0.5643440000000  0.5134690000000 1.0
C      1  0.4980750000000  0.5634940000000  0.4838760000000 1.0
C      1  0.4990710000000  0.4365370000000  0.4844620000000 1.0
C      1  0.5630140000000  0.4839200000000  0.4990570000000 1.0
C      1  0.4366620000000  0.4844400000000  0.4991740000000 1.0
C      1  0.5633110000000  0.5135240000000  0.5008830000000 1.0
C      1  0.4841340000000  0.4995100000000  0.4354860000000 1.0
C      1  0.5134580000000  0.5014010000000  0.5632940000000 1.0
C      1  0.4835050000000  0.5001100000000  0.5631770000000 1.0
C      1  0.4412660000000  0.5189680000000  0.5475400000000 1.0
C      1  0.5183090000000  0.5485160000000  0.4409340000000 1.0
C      1  0.5482630000000  0.4415010000000  0.5184000000000 1.0
C      1  0.5568940000000  0.4825070000000  0.5467210000000 1.0
C      1  0.4417620000000  0.4821320000000  0.4518170000000 1.0
C      1  0.5571290000000  0.5193270000000  0.4518300000000 1.0
C      1  0.4815100000000  0.4524420000000  0.4417600000000 1.0
C      1  0.5184020000000  0.4528060000000  0.5571170000000 1.0
C      1  0.4820800000000  0.5474210000000  0.5571730000000 1.0
C      1  0.4523890000000  0.5580780000000  0.5185660000000 1.0
C      1  0.5462440000000  0.5573950000000  0.4817710000000 1.0
C      1  0.4512320000000  0.4423850000000  0.4808920000000 1.0
C      1  0.4959420000000  0.4632930000000  0.5237940000000 1.0
C      1  0.4631340000000  0.5259120000000  0.4967220000000 1.0
C      1  0.5250360000000  0.4974490000000  0.4625230000000 1.0
C      1  0.5011190000000  0.5337290000000  0.5251340000000 1.0
C      1  0.4955590000000  0.5337930000000  0.4720540000000 1.0
C      1  0.5038980000000  0.4648150000000  0.4750660000000 1.0
C      1  0.5337890000000  0.4726370000000  0.4959400000000 1.0
C      1  0.4642720000000  0.4747450000000  0.5035820000000 1.0
C      1  0.5320410000000  0.5243350000000  0.4997010000000 1.0
C      1  0.4743900000000  0.5041910000000  0.4635430000000 1.0
C      1  0.5238550000000  0.5000310000000  0.5322730000000 1.0
C      1  0.4726190000000  0.4967870000000  0.5352900000000 1.0
C      1  0.5587570000000  0.4638130000000  0.4506870000000 1.0
C      1  0.4634270000000  0.4513800000000  0.5582980000000 1.0
C      1  0.4495370000000  0.5587540000000  0.4632530000000 1.0
C      1  0.4410850000000  0.5358780000000  0.4503680000000 1.0
C      1  0.5580170000000  0.5356210000000  0.5486580000000 1.0
C      1  0.4410020000000  0.4641780000000  0.5483440000000 1.0
C      1  0.5351410000000  0.5484590000000  0.5578420000000 1.0
C      1  0.4629580000000  0.5492500000000  0.4396130000000 1.0
C      1  0.5355360000000  0.4500610000000  0.4409350000000 1.0
C      1  0.5492800000000  0.4411850000000  0.4635830000000 1.0
C      1  0.4497810000000  0.4413320000000  0.5348200000000 1.0
C      1  0.5476870000000  0.5590060000000  0.5355180000000 1.0
C      1  0.4760780000000  0.5206430000000  0.5207940000000 1.0
C      1  0.5198920000000  0.4761230000000  0.5195050000000 1.0
C      1  0.5192560000000  0.5201280000000  0.4757200000000 1.0
C      1  0.4807850000000  0.4817890000000  0.4810650000000 1.0
C      1  0.5130400000000  0.5145060000000  0.5139040000000 1.0
END
