TITL C-2441157-2117-91 1.95644994257364e-05 125000 -9922.28800521605 0 0 66 (C1) n - 1
REM
REM in /home/bkarasulu/work/CARBON/AIRSS/Generating-Clusters/ReaxFF-fromJPCA2015/Units_Real/with-SteepDescent/Higher-Symm
REM
REM
REM
REM
REM
REM ./C.cell (1df0a924f5614ab8850e4351716899ee)
REM
REM compiler GCC version 9.2.1 20190827 (Red Hat 9.2.1-1)
REM options -cpp -mtune=generic -march=x86-64 -g -O0 -fpre-include=/usr/include/finclude/math-vector-fortran.h
REM seed -414269168 -681193854 -2071080217 -1083766087 860088568 -1673134802 -1909642493 -1721154662 634355562 -338314448 529922855 -1735545110 -467369914 767629519 129104607 -1023095901 -1022073381 274028796 1572302984 -504406380 1200098030 1682413911 -3105177 -86154894 -1263294923 -117514187 -1772928829 1057161292 -682772270 -1696436784 -1443036127 2064901722 1406907272
REM
CELL 1.54180   50.00000   50.00000   50.00000   90.00000   90.00000   90.00000
LATT -1
SFAC C  
C      1  0.5532360000000  0.5488190000000  0.5140530000000 1.0
C      1  0.5142780000000  0.5513050000000  0.5453740000000 1.0
C      1  0.5466710000000  0.5140800000000  0.5511440000000 1.0
C      1  0.5519040000000  0.4532740000000  0.4855550000000 1.0
C      1  0.4473040000000  0.4518850000000  0.5140110000000 1.0
C      1  0.4482070000000  0.5472430000000  0.4854010000000 1.0
C      1  0.5146030000000  0.4482830000000  0.4535780000000 1.0
C      1  0.4851240000000  0.4484360000000  0.5460050000000 1.0
C      1  0.4858860000000  0.5523000000000  0.4537270000000 1.0
C      1  0.5464530000000  0.4855940000000  0.4485170000000 1.0
C      1  0.4541660000000  0.4865540000000  0.5512630000000 1.0
C      1  0.4535960000000  0.5150500000000  0.4481990000000 1.0
C      1  0.4481670000000  0.5471380000000  0.5143500000000 1.0
C      1  0.4856900000000  0.5517010000000  0.5459800000000 1.0
C      1  0.4530370000000  0.5148560000000  0.5515290000000 1.0
C      1  0.4474290000000  0.4525240000000  0.4854290000000 1.0
C      1  0.5520690000000  0.4532710000000  0.5144110000000 1.0
C      1  0.5532810000000  0.5490070000000  0.4855880000000 1.0
C      1  0.4856470000000  0.4485430000000  0.4536590000000 1.0
C      1  0.5137560000000  0.4484820000000  0.5454830000000 1.0
C      1  0.5146880000000  0.5522830000000  0.4537820000000 1.0
C      1  0.4543390000000  0.4863170000000  0.4486790000000 1.0
C      1  0.5480250000000  0.4858080000000  0.5515200000000 1.0
C      1  0.5452590000000  0.5138920000000  0.4486780000000 1.0
C      1  0.5625300000000  0.4761330000000  0.5286000000000 1.0
C      1  0.5295900000000  0.5624010000000  0.4765050000000 1.0
C      1  0.4760990000000  0.5291200000000  0.5607230000000 1.0
C      1  0.5580650000000  0.5217160000000  0.4743990000000 1.0
C      1  0.4383330000000  0.5244130000000  0.5287610000000 1.0
C      1  0.4410790000000  0.4783490000000  0.4733090000000 1.0
C      1  0.5289660000000  0.4391180000000  0.5236980000000 1.0
C      1  0.4710310000000  0.4387440000000  0.4764520000000 1.0
C      1  0.4713590000000  0.5610590000000  0.5238240000000 1.0
C      1  0.4765480000000  0.4714050000000  0.4392040000000 1.0
C      1  0.5216270000000  0.4740310000000  0.5576980000000 1.0
C      1  0.5231950000000  0.5289640000000  0.4394300000000 1.0
C      1  0.4422570000000  0.4787880000000  0.5254270000000 1.0
C      1  0.4713750000000  0.5612940000000  0.4759450000000 1.0
C      1  0.5224680000000  0.5271820000000  0.5591190000000 1.0
C      1  0.4387440000000  0.5243370000000  0.4710430000000 1.0
C      1  0.5586570000000  0.5216050000000  0.5252010000000 1.0
C      1  0.5615570000000  0.4759970000000  0.4709530000000 1.0
C      1  0.4707670000000  0.4384950000000  0.5231710000000 1.0
C      1  0.5291340000000  0.4391440000000  0.4763530000000 1.0
C      1  0.5293420000000  0.5618750000000  0.5231440000000 1.0
C      1  0.5242360000000  0.4713140000000  0.4390990000000 1.0
C      1  0.4760570000000  0.4714680000000  0.5611000000000 1.0
C      1  0.4767560000000  0.5296190000000  0.4389750000000 1.0
C      1  0.4988050000000  0.4859240000000  0.5717890000000 1.0
C      1  0.5726000000000  0.4985370000000  0.4857360000000 1.0
C      1  0.5003720000000  0.5158290000000  0.4294820000000 1.0
C      1  0.5723740000000  0.4985740000000  0.5137540000000 1.0
C      1  0.4292190000000  0.5015260000000  0.4856810000000 1.0
C      1  0.4279690000000  0.5017860000000  0.5138230000000 1.0
C      1  0.4865420000000  0.5692690000000  0.4998830000000 1.0
C      1  0.4846570000000  0.4297510000000  0.5000610000000 1.0
C      1  0.5138540000000  0.4309660000000  0.5000130000000 1.0
C      1  0.5156400000000  0.5709260000000  0.4998920000000 1.0
C      1  0.4993760000000  0.5142050000000  0.5700050000000 1.0
C      1  0.5002200000000  0.4865320000000  0.4308410000000 1.0
C      1  0.5081820000000  0.4981760000000  0.5346340000000 1.0
C      1  0.5003810000000  0.4936770000000  0.4636580000000 1.0
C      1  0.5365720000000  0.5113590000000  0.4997140000000 1.0
C      1  0.4935690000000  0.5367570000000  0.4997590000000 1.0
C      1  0.4648960000000  0.4909840000000  0.5011260000000 1.0
C      1  0.5068930000000  0.4638220000000  0.4999960000000 1.0
END
