TITL C-2441169-1362-1153 0.029886442516799 125000 -11903.9184193634 0 0 88 (C1) n - 1
REM
REM in /home/bkarasulu/work/CARBON/AIRSS/Generating-Clusters/ReaxFF-fromJPCA2015/Units_Real/with-SteepDescent/Higher-Symm
REM
REM
REM
REM
REM
REM ./C.cell (1df0a924f5614ab8850e4351716899ee)
REM
REM compiler GCC version 9.2.1 20190827 (Red Hat 9.2.1-1)
REM options -cpp -mtune=generic -march=x86-64 -g -O0 -fpre-include=/usr/include/finclude/math-vector-fortran.h
REM seed 1029315318 624355141 -731590290 1939856660 -1310697756 1451242007 -1628675873 1542483562 1883231227 2013742771 1510274570 -715384008 -1680478063 494432909 -623948443 -735798003 -542279882 -1052983765 -1155623740 -591105027 -261973648 1190136857 -535074304 1114774741 1642874030 -1407122668 691096710 1296449881 34555520 854441935 -1179403025 -366493328 -614934662
REM
CELL 1.54180   50.00000   50.00000   50.00000   90.00000   90.00000   90.00000
LATT -1
SFAC C  
C      1  0.5252810000000  0.4430060000000  0.5193170000000 1.0
C      1  0.4782170000000  0.4421110000000  0.5227740000000 1.0
C      1  0.4773470000000  0.4420570000000  0.4808980000000 1.0
C      1  0.5194650000000  0.4420690000000  0.4775540000000 1.0
C      1  0.4775790000000  0.5580150000000  0.5194880000000 1.0
C      1  0.5193280000000  0.5570110000000  0.5253010000000 1.0
C      1  0.5227740000000  0.5578110000000  0.4782420000000 1.0
C      1  0.4809100000000  0.5579030000000  0.4774210000000 1.0
C      1  0.5128450000000  0.4931950000000  0.5863320000000 1.0
C      1  0.4137550000000  0.4931370000000  0.5127720000000 1.0
C      1  0.4871050000000  0.4931920000000  0.4136800000000 1.0
C      1  0.5861430000000  0.4930980000000  0.4871410000000 1.0
C      1  0.4871260000000  0.5069200000000  0.5861200000000 1.0
C      1  0.5863450000000  0.5068040000000  0.5128570000000 1.0
C      1  0.5127620000000  0.5068100000000  0.4137110000000 1.0
C      1  0.4136610000000  0.5068280000000  0.4871320000000 1.0
C      1  0.4993290000000  0.4407770000000  0.4350390000000 1.0
C      1  0.5653130000000  0.4405670000000  0.4990670000000 1.0
C      1  0.5007620000000  0.4407650000000  0.5646040000000 1.0
C      1  0.4346170000000  0.4406750000000  0.5002740000000 1.0
C      1  0.5002360000000  0.5592980000000  0.4346850000000 1.0
C      1  0.4350200000000  0.5592320000000  0.4993220000000 1.0
C      1  0.4990570000000  0.5594420000000  0.5653260000000 1.0
C      1  0.5645870000000  0.5592340000000  0.5007450000000 1.0
C      1  0.5031860000000  0.4848780000000  0.5455120000000 1.0
C      1  0.4546270000000  0.4842210000000  0.5031060000000 1.0
C      1  0.4968510000000  0.4849780000000  0.4545850000000 1.0
C      1  0.5454510000000  0.4843780000000  0.4969370000000 1.0
C      1  0.4969180000000  0.5156310000000  0.5454340000000 1.0
C      1  0.5455530000000  0.5151110000000  0.5031830000000 1.0
C      1  0.5031340000000  0.5157610000000  0.4545580000000 1.0
C      1  0.4545910000000  0.5150440000000  0.4968180000000 1.0
C      1  0.5295100000000  0.5149470000000  0.5763790000000 1.0
C      1  0.4234240000000  0.5150930000000  0.5293070000000 1.0
C      1  0.4703690000000  0.5149250000000  0.4236170000000 1.0
C      1  0.5764770000000  0.5150680000000  0.4705910000000 1.0
C      1  0.4705890000000  0.4849430000000  0.5764540000000 1.0
C      1  0.5764100000000  0.4850350000000  0.5295100000000 1.0
C      1  0.5293280000000  0.4848860000000  0.4234080000000 1.0
C      1  0.4236300000000  0.4851090000000  0.4703860000000 1.0
C      1  0.5051380000000  0.5287010000000  0.5200160000000 1.0
C      1  0.4803370000000  0.5285220000000  0.5051660000000 1.0
C      1  0.4950640000000  0.5288040000000  0.4801960000000 1.0
C      1  0.5201480000000  0.5290350000000  0.4944610000000 1.0
C      1  0.4943780000000  0.4708980000000  0.5201390000000 1.0
C      1  0.5199870000000  0.4713430000000  0.5051590000000 1.0
C      1  0.5051780000000  0.4715700000000  0.4803500000000 1.0
C      1  0.4802120000000  0.4711550000000  0.4950030000000 1.0
C      1  0.4802890000000  0.4322320000000  0.5480260000000 1.0
C      1  0.4517370000000  0.4318320000000  0.4804240000000 1.0
C      1  0.5193550000000  0.4318420000000  0.4519960000000 1.0
C      1  0.5495410000000  0.4310950000000  0.5197970000000 1.0
C      1  0.5198050000000  0.5688960000000  0.5495710000000 1.0
C      1  0.5480020000000  0.5677750000000  0.4802770000000 1.0
C      1  0.4804090000000  0.5681660000000  0.4518280000000 1.0
C      1  0.4519950000000  0.5681680000000  0.5193390000000 1.0
C      1  0.5310270000000  0.4725480000000  0.5552420000000 1.0
C      1  0.4449250000000  0.4727390000000  0.5307040000000 1.0
C      1  0.4690470000000  0.4725700000000  0.4448730000000 1.0
C      1  0.5549410000000  0.4725290000000  0.4690840000000 1.0
C      1  0.4690810000000  0.5274870000000  0.5549110000000 1.0
C      1  0.5552540000000  0.5274630000000  0.5310220000000 1.0
C      1  0.5307340000000  0.5272240000000  0.4448550000000 1.0
C      1  0.4448340000000  0.5274350000000  0.4690300000000 1.0
C      1  0.5489440000000  0.4864140000000  0.4444120000000 1.0
C      1  0.5555530000000  0.4864780000000  0.5490910000000 1.0
C      1  0.4510570000000  0.4864150000000  0.5554450000000 1.0
C      1  0.4445000000000  0.4865220000000  0.4509040000000 1.0
C      1  0.4508650000000  0.5134860000000  0.4444830000000 1.0
C      1  0.4444250000000  0.5135790000000  0.5489030000000 1.0
C      1  0.5490960000000  0.5135030000000  0.5555280000000 1.0
C      1  0.5554810000000  0.5135900000000  0.4510340000000 1.0
C      1  0.5057870000000  0.5295050000000  0.5709450000000 1.0
C      1  0.4284690000000  0.5298490000000  0.5057830000000 1.0
C      1  0.4939510000000  0.5295570000000  0.4289920000000 1.0
C      1  0.5716060000000  0.5298840000000  0.4942320000000 1.0
C      1  0.4942380000000  0.4701170000000  0.5716160000000 1.0
C      1  0.5709660000000  0.4704890000000  0.5057970000000 1.0
C      1  0.5057970000000  0.4701620000000  0.4285570000000 1.0
C      1  0.4290200000000  0.4704750000000  0.4939650000000 1.0
C      1  0.5264330000000  0.5564690000000  0.4485980000000 1.0
C      1  0.5498760000000  0.5561500000000  0.5265690000000 1.0
C      1  0.4737470000000  0.5563620000000  0.5501590000000 1.0
C      1  0.4499700000000  0.5560710000000  0.4738570000000 1.0
C      1  0.4738680000000  0.4439260000000  0.4500050000000 1.0
C      1  0.4485790000000  0.4434720000000  0.5264400000000 1.0
C      1  0.5265820000000  0.4438600000000  0.5498810000000 1.0
C      1  0.5501610000000  0.4436680000000  0.4737480000000 1.0
END
