TITL C-2441169-1362-627 2.48900860112588e-06 125000 -4364.52957548316 0 0 30 (D3h) n - 1
REM
REM in /home/bkarasulu/work/CARBON/AIRSS/Generating-Clusters/ReaxFF-fromJPCA2015/Units_Real/with-SteepDescent/Higher-Symm
REM
REM
REM
REM
REM
REM ./C.cell (1df0a924f5614ab8850e4351716899ee)
REM
REM compiler GCC version 9.2.1 20190827 (Red Hat 9.2.1-1)
REM options -cpp -mtune=generic -march=x86-64 -g -O0 -fpre-include=/usr/include/finclude/math-vector-fortran.h
REM seed 1821798889 -30852227 1382531545 -1298096316 2097886844 354924012 -1624463566 606401959 1067690916 2059186901 1817506514 -1237501440 -1198503945 -752404257 -1715545674 -1715937395 -1657842332 -1302141397 1924869046 -603159313 63574603 1874909554 -196107798 1351345619 -1901064253 763423516 -1495285375 1898570074 1089795086 115626587 -1842151918 2086616936 1367514740
REM
CELL 1.54180   50.00000   50.00000   50.00000   90.00000   90.00000   90.00000
LATT -1
SFAC C  
C      1  0.4855600000000  0.4460470000000  0.4628330000000 1.0
C      1  0.4855600000000  0.5591340000000  0.4718540000000 1.0
C      1  0.4855600000000  0.4948130000000  0.5652970000000 1.0
C      1  0.5144400000000  0.4460470000000  0.4628330000000 1.0
C      1  0.5144400000000  0.5591340000000  0.4718540000000 1.0
C      1  0.5144400000000  0.4948130000000  0.5652970000000 1.0
C      1  0.4855600000000  0.4460470000000  0.5371670000000 1.0
C      1  0.4855600000000  0.5591340000000  0.5281460000000 1.0
C      1  0.4855600000000  0.4948130000000  0.4347030000000 1.0
C      1  0.5144400000000  0.4460470000000  0.5371670000000 1.0
C      1  0.5144400000000  0.5591340000000  0.5281460000000 1.0
C      1  0.5144400000000  0.4948130000000  0.4347030000000 1.0
C      1  0.4657090000000  0.5395760000000  0.5154220000000 1.0
C      1  0.4657330000000  0.4668590000000  0.5265630000000 1.0
C      1  0.4657210000000  0.4935680000000  0.4580160000000 1.0
C      1  0.5342910000000  0.5395760000000  0.5154220000000 1.0
C      1  0.5342670000000  0.4668590000000  0.5265630000000 1.0
C      1  0.5342790000000  0.4935680000000  0.4580160000000 1.0
C      1  0.4657090000000  0.5395760000000  0.4845780000000 1.0
C      1  0.4657330000000  0.4668590000000  0.4734370000000 1.0
C      1  0.4657210000000  0.4935680000000  0.5419840000000 1.0
C      1  0.5342910000000  0.5395760000000  0.4845780000000 1.0
C      1  0.5342670000000  0.4668590000000  0.4734370000000 1.0
C      1  0.5342790000000  0.4935680000000  0.5419840000000 1.0
C      1  0.4657150000000  0.5165720000000  0.5287030000000 1.0
C      1  0.4657330000000  0.4668590000000  0.5000000000000 1.0
C      1  0.4657150000000  0.5165720000000  0.4712970000000 1.0
C      1  0.5342670000000  0.4668590000000  0.5000000000000 1.0
C      1  0.5342850000000  0.5165720000000  0.4712970000000 1.0
C      1  0.5342850000000  0.5165720000000  0.5287030000000 1.0
END
