TITL C-2441164-471-1495 0.0147156907405938 125000 -13976.2313083022 0 0 98 (C1) n - 1
REM
REM in /home/bkarasulu/work/CARBON/AIRSS/Generating-Clusters/ReaxFF-fromJPCA2015/Units_Real/with-SteepDescent/Higher-Symm
REM
REM
REM
REM
REM
REM ./C.cell (1df0a924f5614ab8850e4351716899ee)
REM
REM compiler GCC version 9.2.1 20190827 (Red Hat 9.2.1-1)
REM options -cpp -mtune=generic -march=x86-64 -g -O0 -fpre-include=/usr/include/finclude/math-vector-fortran.h
REM seed 2059997543 1914416605 -1074832705 636162007 1194434842 -2147319540 -916854731 -922710234 858085821 -1224942290 -1536481488 -685727095 1389433432 -1162206276 731853025 -1250209763 -1163978691 411645652 -636507450 -675883698 1750656012 719790225 1090864940 607464496 -1235370302 1896761662 1314477376 -850670708 454247064 156779946 -631151849 1334189948 128562263
REM
CELL 1.54180   50.00000   50.00000   50.00000   90.00000   90.00000   90.00000
LATT -1
SFAC C  
C      1  0.4112370000000  0.5041950000000  0.5238130000000 1.0
C      1  0.4289420000000  0.5041340000000  0.4464580000000 1.0
C      1  0.4965660000000  0.5044790000000  0.4079270000000 1.0
C      1  0.5685890000000  0.5034690000000  0.4417440000000 1.0
C      1  0.5879160000000  0.5045160000000  0.5167250000000 1.0
C      1  0.5422900000000  0.5039770000000  0.5809220000000 1.0
C      1  0.4629480000000  0.5036580000000  0.5818580000000 1.0
C      1  0.4812020000000  0.4811080000000  0.4063390000000 1.0
C      1  0.5629030000000  0.4801650000000  0.4282510000000 1.0
C      1  0.5948500000000  0.4814840000000  0.5034190000000 1.0
C      1  0.5571420000000  0.4805700000000  0.5762620000000 1.0
C      1  0.4738890000000  0.4804950000000  0.5919730000000 1.0
C      1  0.4126100000000  0.4806200000000  0.5389550000000 1.0
C      1  0.4165980000000  0.4808700000000  0.4544990000000 1.0
C      1  0.5790140000000  0.4578190000000  0.4967070000000 1.0
C      1  0.5520260000000  0.4574960000000  0.5594840000000 1.0
C      1  0.4845470000000  0.4574300000000  0.5780530000000 1.0
C      1  0.4301380000000  0.4574410000000  0.5372890000000 1.0
C      1  0.4274500000000  0.4576180000000  0.4679400000000 1.0
C      1  0.4791720000000  0.4580000000000  0.4239260000000 1.0
C      1  0.5471950000000  0.4572550000000  0.4363440000000 1.0
C      1  0.4737920000000  0.5038340000000  0.4773370000000 1.0
C      1  0.5018200000000  0.5045190000000  0.4685950000000 1.0
C      1  0.5289000000000  0.5038900000000  0.4795080000000 1.0
C      1  0.5345370000000  0.5049940000000  0.5088130000000 1.0
C      1  0.5137110000000  0.5047590000000  0.5288820000000 1.0
C      1  0.4844960000000  0.5043460000000  0.5306230000000 1.0
C      1  0.4684900000000  0.5044940000000  0.5063670000000 1.0
C      1  0.4582210000000  0.5476340000000  0.5683860000000 1.0
C      1  0.4195210000000  0.5480160000000  0.5098550000000 1.0
C      1  0.4428840000000  0.5479610000000  0.4461780000000 1.0
C      1  0.5091770000000  0.5479400000000  0.4183670000000 1.0
C      1  0.5662940000000  0.5474530000000  0.4552110000000 1.0
C      1  0.5776800000000  0.5478690000000  0.5259700000000 1.0
C      1  0.5259850000000  0.5472950000000  0.5755810000000 1.0
C      1  0.4572000000000  0.5024490000000  0.4424740000000 1.0
C      1  0.5220670000000  0.5014190000000  0.4189100000000 1.0
C      1  0.5669670000000  0.5021150000000  0.4702920000000 1.0
C      1  0.5655340000000  0.5022550000000  0.5342750000000 1.0
C      1  0.5144420000000  0.5016230000000  0.5826500000000 1.0
C      1  0.4524210000000  0.5018210000000  0.5553850000000 1.0
C      1  0.4162510000000  0.5016950000000  0.4964870000000 1.0
C      1  0.4808730000000  0.4516230000000  0.5503760000000 1.0
C      1  0.4483720000000  0.4510250000000  0.5162930000000 1.0
C      1  0.4551960000000  0.4513990000000  0.4701220000000 1.0
C      1  0.4957210000000  0.4513570000000  0.4462350000000 1.0
C      1  0.5391700000000  0.4513050000000  0.4630290000000 1.0
C      1  0.5535190000000  0.4509150000000  0.5076730000000 1.0
C      1  0.5273820000000  0.4510570000000  0.5465880000000 1.0
C      1  0.5488960000000  0.5300640000000  0.5714740000000 1.0
C      1  0.4730810000000  0.5295780000000  0.5853790000000 1.0
C      1  0.4192340000000  0.5302680000000  0.5325730000000 1.0
C      1  0.4230770000000  0.5296320000000  0.4563390000000 1.0
C      1  0.4866410000000  0.5306920000000  0.4135570000000 1.0
C      1  0.5603530000000  0.5289860000000  0.4337870000000 1.0
C      1  0.5878910000000  0.5301140000000  0.5052640000000 1.0
C      1  0.4612440000000  0.4802440000000  0.4240920000000 1.0
C      1  0.5374540000000  0.4774800000000  0.4182570000000 1.0
C      1  0.5833910000000  0.4797020000000  0.4790460000000 1.0
C      1  0.5687890000000  0.4795860000000  0.5521190000000 1.0
C      1  0.5010900000000  0.4776350000000  0.5901400000000 1.0
C      1  0.4339150000000  0.4794880000000  0.5550830000000 1.0
C      1  0.4120840000000  0.4778950000000  0.4814290000000 1.0
C      1  0.4882460000000  0.4299740000000  0.5321100000000 1.0
C      1  0.4676500000000  0.4297330000000  0.5108390000000 1.0
C      1  0.4712970000000  0.4298050000000  0.4814730000000 1.0
C      1  0.4965450000000  0.4298860000000  0.4660660000000 1.0
C      1  0.5243720000000  0.4297870000000  0.4762020000000 1.0
C      1  0.5336580000000  0.4296750000000  0.5041400000000 1.0
C      1  0.5176060000000  0.4297490000000  0.5291110000000 1.0
C      1  0.5561090000000  0.5631020000000  0.5154330000000 1.0
C      1  0.5172600000000  0.5604120000000  0.5507350000000 1.0
C      1  0.4770630000000  0.5614390000000  0.5502710000000 1.0
C      1  0.4456260000000  0.5611170000000  0.5066800000000 1.0
C      1  0.4580110000000  0.5593960000000  0.4684530000000 1.0
C      1  0.5067970000000  0.5613400000000  0.4443950000000 1.0
C      1  0.5413780000000  0.5594960000000  0.4647560000000 1.0
C      1  0.5313960000000  0.5287470000000  0.4272920000000 1.0
C      1  0.5730150000000  0.5313410000000  0.4799880000000 1.0
C      1  0.5604710000000  0.5308650000000  0.5448210000000 1.0
C      1  0.5021320000000  0.5288260000000  0.5793830000000 1.0
C      1  0.4436040000000  0.5304320000000  0.5484220000000 1.0
C      1  0.4229690000000  0.5291380000000  0.4860680000000 1.0
C      1  0.4658010000000  0.5319750000000  0.4341260000000 1.0
C      1  0.4631580000000  0.5506530000000  0.5273740000000 1.0
C      1  0.4535460000000  0.5440420000000  0.4891530000000 1.0
C      1  0.4826340000000  0.5505880000000  0.4556210000000 1.0
C      1  0.5220140000000  0.5439350000000  0.4561230000000 1.0
C      1  0.5482990000000  0.5516440000000  0.4916870000000 1.0
C      1  0.5371250000000  0.5519930000000  0.5315170000000 1.0
C      1  0.4963600000000  0.5450590000000  0.5488570000000 1.0
C      1  0.4994860000000  0.4746670000000  0.4656930000000 1.0
C      1  0.5275150000000  0.4741250000000  0.4778630000000 1.0
C      1  0.5344030000000  0.4742700000000  0.5066850000000 1.0
C      1  0.5154660000000  0.4746780000000  0.5311860000000 1.0
C      1  0.4856580000000  0.4743870000000  0.5323990000000 1.0
C      1  0.4662180000000  0.4745950000000  0.5083360000000 1.0
C      1  0.4721220000000  0.4738990000000  0.4788550000000 1.0
END
