TITL C-2441166-8118-669 -3.54007336676979e-10 125000 -1231.95914079301 0 0 10 (D2d) n - 1
REM
REM in /home/bkarasulu/work/CARBON/AIRSS/Generating-Clusters/ReaxFF-fromJPCA2015/Units_Real/with-SteepDescent/Higher-Symm
REM
REM
REM
REM
REM
REM ./C.cell (1df0a924f5614ab8850e4351716899ee)
REM
REM compiler GCC version 9.2.1 20190827 (Red Hat 9.2.1-1)
REM options -cpp -mtune=generic -march=x86-64 -g -O0 -fpre-include=/usr/include/finclude/math-vector-fortran.h
REM seed 1123990050 -986092452 -1823509416 -1052991322 14681125 -1459448755 1399612592 2086729421 -1048824922 784893474 1116383246 -613562566 -274101664 749602080 -850226386 201715409 -1471898194 1193932981 -204633260 -2115356951 917548122 -1804485992 607150518 975638240 -1488642859 -278143534 1698522239 972539521 -1112522730 1028926877 969256913 121739050 -1137550625
REM
CELL 1.54180   50.00000   50.00000   50.00000   90.00000   90.00000   90.00000
LATT -1
SFAC C  
C      1  0.4854650000000  0.5265170000000  0.5064040000000 1.0
C      1  0.4854650000000  0.4734830000000  0.4935960000000 1.0
C      1  0.5110720000000  0.5265170000000  0.4935960000000 1.0
C      1  0.5110720000000  0.4734830000000  0.5064040000000 1.0
C      1  0.4854650000000  0.5064040000000  0.5265170000000 1.0
C      1  0.4854650000000  0.4935960000000  0.4734830000000 1.0
C      1  0.5110720000000  0.4935960000000  0.5265170000000 1.0
C      1  0.5110720000000  0.5064040000000  0.4734830000000 1.0
C      1  0.4696900000000  0.5000000000000  0.5000000000000 1.0
C      1  0.5268470000000  0.5000000000000  0.5000000000000 1.0
END
