TITL C-2441161-5029-777 0.077551557261862 125000 -16495.445407407 0 0 122 (C1) n - 1
REM
REM in /home/bkarasulu/work/CARBON/AIRSS/Generating-Clusters/ReaxFF-fromJPCA2015/Units_Real/with-SteepDescent/Higher-Symm
REM
REM
REM
REM
REM
REM ./C.cell (1df0a924f5614ab8850e4351716899ee)
REM
REM compiler GCC version 9.2.1 20190827 (Red Hat 9.2.1-1)
REM options -cpp -mtune=generic -march=x86-64 -g -O0 -fpre-include=/usr/include/finclude/math-vector-fortran.h
REM seed -2016083498 1478042957 -305616703 1059681768 -211780215 1672090943 -1795860747 -2093446342 -324921862 899741138 -356126021 -1195379280 2110607702 601148512 -173737924 -1352556445 1122935450 -1229823412 1687210139 -2141877571 -848086660 -480602593 -1077863228 -242826496 -1564870062 2036502537 1816374607 931553404 1554283423 -454705517 -556139034 746359982 2021694258
REM
CELL 1.54180   50.00000   50.00000   50.00000   90.00000   90.00000   90.00000
LATT -1
SFAC C  
C      1  0.4862010000000  0.4773030000000  0.4640510000000 1.0
C      1  0.4319070000000  0.5066920000000  0.4387940000000 1.0
C      1  0.4466240000000  0.4663800000000  0.4237710000000 1.0
C      1  0.5832040000000  0.4889200000000  0.5203550000000 1.0
C      1  0.4555630000000  0.4514730000000  0.5594330000000 1.0
C      1  0.5116210000000  0.5376150000000  0.4997290000000 1.0
C      1  0.5258380000000  0.5437360000000  0.5798950000000 1.0
C      1  0.4219640000000  0.4543250000000  0.4655930000000 1.0
C      1  0.5508920000000  0.5390360000000  0.4159660000000 1.0
C      1  0.4946730000000  0.4373230000000  0.4329720000000 1.0
C      1  0.5149260000000  0.5104960000000  0.4879180000000 1.0
C      1  0.4955410000000  0.5096000000000  0.5738710000000 1.0
C      1  0.4320870000000  0.4478220000000  0.4381190000000 1.0
C      1  0.5242560000000  0.4670510000000  0.4177690000000 1.0
C      1  0.4701510000000  0.4965210000000  0.4990220000000 1.0
C      1  0.5087350000000  0.5927720000000  0.5064420000000 1.0
C      1  0.4445790000000  0.5674290000000  0.4747970000000 1.0
C      1  0.5667230000000  0.4718920000000  0.4346560000000 1.0
C      1  0.5048290000000  0.5437760000000  0.4388380000000 1.0
C      1  0.4247130000000  0.4572180000000  0.5217820000000 1.0
C      1  0.5754850000000  0.5574270000000  0.5305160000000 1.0
C      1  0.5363710000000  0.4908960000000  0.5054220000000 1.0
C      1  0.5434550000000  0.5221280000000  0.5270270000000 1.0
C      1  0.5779490000000  0.5102150000000  0.4674490000000 1.0
C      1  0.5646430000000  0.5319140000000  0.5467680000000 1.0
C      1  0.4656850000000  0.5749800000000  0.5102610000000 1.0
C      1  0.4401600000000  0.4336330000000  0.5138680000000 1.0
C      1  0.4248570000000  0.4906030000000  0.5595440000000 1.0
C      1  0.4652440000000  0.4258700000000  0.5508930000000 1.0
C      1  0.5619250000000  0.4395910000000  0.5115510000000 1.0
C      1  0.4676590000000  0.5460500000000  0.5074230000000 1.0
C      1  0.5821540000000  0.4579420000000  0.4532890000000 1.0
C      1  0.4276430000000  0.5621560000000  0.5265700000000 1.0
C      1  0.4980880000000  0.5858590000000  0.4799320000000 1.0
C      1  0.5294890000000  0.4819620000000  0.5799490000000 1.0
C      1  0.5457690000000  0.5408950000000  0.4624190000000 1.0
C      1  0.5168780000000  0.5522700000000  0.5527690000000 1.0
C      1  0.5306690000000  0.5297960000000  0.4418730000000 1.0
C      1  0.5819390000000  0.5064970000000  0.5432850000000 1.0
C      1  0.4842150000000  0.5370330000000  0.4584720000000 1.0
C      1  0.4860730000000  0.4538600000000  0.5081420000000 1.0
C      1  0.5051240000000  0.4143230000000  0.4480440000000 1.0
C      1  0.4652920000000  0.5383990000000  0.4382910000000 1.0
C      1  0.4185830000000  0.4790530000000  0.4775680000000 1.0
C      1  0.4684210000000  0.5827300000000  0.4798460000000 1.0
C      1  0.5618250000000  0.5262000000000  0.5054170000000 1.0
C      1  0.4489790000000  0.5794480000000  0.5345450000000 1.0
C      1  0.5452510000000  0.4524840000000  0.4344280000000 1.0
C      1  0.4416090000000  0.5512360000000  0.4502850000000 1.0
C      1  0.4964750000000  0.5091760000000  0.4083790000000 1.0
C      1  0.4512220000000  0.4984760000000  0.5706250000000 1.0
C      1  0.4925590000000  0.4296100000000  0.4985730000000 1.0
C      1  0.4734820000000  0.4712720000000  0.4888970000000 1.0
C      1  0.4451660000000  0.4405690000000  0.4631520000000 1.0
C      1  0.5389850000000  0.4613480000000  0.5618150000000 1.0
C      1  0.4162220000000  0.5135350000000  0.5437290000000 1.0
C      1  0.5268250000000  0.5020200000000  0.4440100000000 1.0
C      1  0.5465910000000  0.4350170000000  0.4590650000000 1.0
C      1  0.5463120000000  0.4157720000000  0.5177920000000 1.0
C      1  0.5057150000000  0.4977870000000  0.4632490000000 1.0
C      1  0.5228400000000  0.4492420000000  0.5417900000000 1.0
C      1  0.4563300000000  0.4171190000000  0.4711620000000 1.0
C      1  0.5385330000000  0.5627450000000  0.4214560000000 1.0
C      1  0.4105700000000  0.5085590000000  0.5157810000000 1.0
C      1  0.4217010000000  0.5300540000000  0.4511600000000 1.0
C      1  0.5002940000000  0.4815260000000  0.5806470000000 1.0
C      1  0.5494890000000  0.4780920000000  0.4831330000000 1.0
C      1  0.4858060000000  0.5350920000000  0.4176620000000 1.0
C      1  0.4867590000000  0.5416940000000  0.4867680000000 1.0
C      1  0.5204770000000  0.5803520000000  0.5496290000000 1.0
C      1  0.5153420000000  0.5339490000000  0.5286970000000 1.0
C      1  0.5785610000000  0.5052940000000  0.4959840000000 1.0
C      1  0.4848430000000  0.4608670000000  0.5647820000000 1.0
C      1  0.5739190000000  0.5627390000000  0.4816160000000 1.0
C      1  0.5451530000000  0.5662840000000  0.4745120000000 1.0
C      1  0.4330320000000  0.5385400000000  0.5438600000000 1.0
C      1  0.4610140000000  0.4154290000000  0.5243380000000 1.0
C      1  0.5157770000000  0.5193900000000  0.5912020000000 1.0
C      1  0.4306210000000  0.4637730000000  0.5491870000000 1.0
C      1  0.5148940000000  0.4164470000000  0.5706250000000 1.0
C      1  0.4152910000000  0.5015740000000  0.4603680000000 1.0
C      1  0.5060050000000  0.4095340000000  0.5145400000000 1.0
C      1  0.5737250000000  0.4916280000000  0.5660500000000 1.0
C      1  0.5515760000000  0.5027660000000  0.5823630000000 1.0
C      1  0.5832520000000  0.5464400000000  0.5049330000000 1.0
C      1  0.4519650000000  0.4992260000000  0.5203100000000 1.0
C      1  0.5282930000000  0.4072130000000  0.4963750000000 1.0
C      1  0.4560310000000  0.5242060000000  0.5844510000000 1.0
C      1  0.5663590000000  0.4657520000000  0.5548840000000 1.0
C      1  0.4474090000000  0.5277340000000  0.5152400000000 1.0
C      1  0.5516620000000  0.5309720000000  0.5752510000000 1.0
C      1  0.5232630000000  0.4205040000000  0.5381940000000 1.0
C      1  0.5655520000000  0.4366100000000  0.4827570000000 1.0
C      1  0.4868820000000  0.5940370000000  0.5251220000000 1.0
C      1  0.4904660000000  0.4301580000000  0.5704890000000 1.0
C      1  0.5276470000000  0.4148970000000  0.4665720000000 1.0
C      1  0.4674940000000  0.5720190000000  0.5557010000000 1.0
C      1  0.4806860000000  0.4851490000000  0.4109510000000 1.0
C      1  0.5124280000000  0.4870120000000  0.5223730000000 1.0
C      1  0.4670400000000  0.4993990000000  0.5451130000000 1.0
C      1  0.4970380000000  0.4600260000000  0.4143030000000 1.0
C      1  0.4522730000000  0.4907360000000  0.4190750000000 1.0
C      1  0.5222570000000  0.5815570000000  0.4635000000000 1.0
C      1  0.5581390000000  0.5750990000000  0.5175730000000 1.0
C      1  0.4213770000000  0.5294880000000  0.4988290000000 1.0
C      1  0.5742290000000  0.5388320000000  0.4633880000000 1.0
C      1  0.5329660000000  0.5865330000000  0.5230790000000 1.0
C      1  0.5562650000000  0.4920520000000  0.4568410000000 1.0
C      1  0.5176750000000  0.5730050000000  0.4364750000000 1.0
C      1  0.4920480000000  0.5877700000000  0.5529450000000 1.0
C      1  0.4894170000000  0.4505330000000  0.4564360000000 1.0
C      1  0.5002470000000  0.4630530000000  0.5332600000000 1.0
C      1  0.5732360000000  0.4620930000000  0.5271190000000 1.0
C      1  0.4851290000000  0.4239220000000  0.4699730000000 1.0
C      1  0.4255640000000  0.5577380000000  0.4975640000000 1.0
C      1  0.4186850000000  0.4814300000000  0.5058390000000 1.0
C      1  0.4961360000000  0.5008120000000  0.5060110000000 1.0
C      1  0.4854080000000  0.5216480000000  0.5479610000000 1.0
C      1  0.4476030000000  0.4108730000000  0.4978680000000 1.0
C      1  0.4628320000000  0.5417260000000  0.5599580000000 1.0
C      1  0.5208150000000  0.4956880000000  0.4165690000000 1.0
C      1  0.5756660000000  0.4639570000000  0.4805010000000 1.0
END
