TITL C-2441162-9305-16 0.0116082003348739 125000 -8534.08191774758 0 0 63 (C1) n - 1
REM
REM in /home/bkarasulu/work/CARBON/AIRSS/Generating-Clusters/ReaxFF-fromJPCA2015/Units_Real/with-SteepDescent/Higher-Symm
REM
REM
REM
REM
REM
REM ./C.cell (1df0a924f5614ab8850e4351716899ee)
REM
REM compiler GCC version 9.2.1 20190827 (Red Hat 9.2.1-1)
REM options -cpp -mtune=generic -march=x86-64 -g -O0 -fpre-include=/usr/include/finclude/math-vector-fortran.h
REM seed 1160766091 -286909231 917149339 -242739049 -278146871 182734791 -1184977325 1374257798 31280721 -1155007656 -480557452 1749967347 -556317472 -899443123 -483576303 280257281 1008406172 456478355 1650806627 -2056274107 -2080216850 774180619 -2099191574 -485429246 1067985915 -1842323062 -1242273792 -1960782894 -1289009692 1775646629 -551188594 -501533470 1141848098
REM
CELL 1.54180   50.00000   50.00000   50.00000   90.00000   90.00000   90.00000
LATT -1
SFAC C  
C      1  0.4974520000000  0.5505360000000  0.5372740000000 1.0
C      1  0.4988800000000  0.5682300000000  0.5118910000000 1.0
C      1  0.4980440000000  0.5428730000000  0.4774950000000 1.0
C      1  0.4981150000000  0.5351250000000  0.4477970000000 1.0
C      1  0.5118250000000  0.5080830000000  0.4394600000000 1.0
C      1  0.5082370000000  0.4848510000000  0.4589300000000 1.0
C      1  0.4932390000000  0.4465650000000  0.4836520000000 1.0
C      1  0.5019470000000  0.4342480000000  0.5101530000000 1.0
C      1  0.5012770000000  0.4705100000000  0.5600910000000 1.0
C      1  0.5013690000000  0.5008030000000  0.5636250000000 1.0
C      1  0.4507480000000  0.5515860000000  0.4975920000000 1.0
C      1  0.5491630000000  0.5314270000000  0.4816610000000 1.0
C      1  0.4542710000000  0.5144440000000  0.4554600000000 1.0
C      1  0.5588400000000  0.4899510000000  0.4277570000000 1.0
C      1  0.4431640000000  0.4652980000000  0.4709880000000 1.0
C      1  0.5456320000000  0.4472900000000  0.4884170000000 1.0
C      1  0.4611040000000  0.4501680000000  0.5329820000000 1.0
C      1  0.5577990000000  0.4788600000000  0.5545170000000 1.0
C      1  0.4585220000000  0.5171290000000  0.5443310000000 1.0
C      1  0.5455390000000  0.5391910000000  0.5365660000000 1.0
C      1  0.4856600000000  0.4265470000000  0.5323600000000 1.0
C      1  0.5301560000000  0.4693670000000  0.5620150000000 1.0
C      1  0.4758980000000  0.5132180000000  0.5699490000000 1.0
C      1  0.5212800000000  0.5524300000000  0.5530840000000 1.0
C      1  0.4703360000000  0.5727460000000  0.5070000000000 1.0
C      1  0.5196140000000  0.5595260000000  0.4892850000000 1.0
C      1  0.4734540000000  0.5318380000000  0.4345860000000 1.0
C      1  0.5307080000000  0.5011990000000  0.4181950000000 1.0
C      1  0.4865710000000  0.4684180000000  0.4489290000000 1.0
C      1  0.5177010000000  0.4404670000000  0.4711260000000 1.0
C      1  0.5652190000000  0.4738710000000  0.5253110000000 1.0
C      1  0.4358150000000  0.4931690000000  0.5314210000000 1.0
C      1  0.5591370000000  0.5206850000000  0.5558920000000 1.0
C      1  0.4296230000000  0.5316280000000  0.5130320000000 1.0
C      1  0.5715780000000  0.5212900000000  0.4998710000000 1.0
C      1  0.4366420000000  0.5378080000000  0.4601120000000 1.0
C      1  0.5655800000000  0.5165020000000  0.4347600000000 1.0
C      1  0.4232950000000  0.4868940000000  0.4787150000000 1.0
C      1  0.5638250000000  0.4729780000000  0.4796350000000 1.0
C      1  0.4447880000000  0.4456590000000  0.5101620000000 1.0
C      1  0.5278150000000  0.5195530000000  0.5202500000000 1.0
C      1  0.4766730000000  0.5269550000000  0.4961930000000 1.0
C      1  0.5287710000000  0.5133800000000  0.4925950000000 1.0
C      1  0.4687700000000  0.5032780000000  0.4797230000000 1.0
C      1  0.5157940000000  0.4862070000000  0.4900100000000 1.0
C      1  0.4711590000000  0.4735860000000  0.4778200000000 1.0
C      1  0.5255650000000  0.4567980000000  0.5066400000000 1.0
C      1  0.4864610000000  0.4680050000000  0.5342300000000 1.0
C      1  0.5106180000000  0.5024520000000  0.5339400000000 1.0
C      1  0.4793040000000  0.5286070000000  0.5264480000000 1.0
C      1  0.5604240000000  0.5375550000000  0.4532190000000 1.0
C      1  0.4231230000000  0.5006990000000  0.4529920000000 1.0
C      1  0.5614570000000  0.4800880000000  0.4536820000000 1.0
C      1  0.4319660000000  0.4467320000000  0.4876580000000 1.0
C      1  0.5500480000000  0.4509470000000  0.5166860000000 1.0
C      1  0.4339790000000  0.4674230000000  0.5438320000000 1.0
C      1  0.5677980000000  0.5034000000000  0.5675910000000 1.0
C      1  0.4319730000000  0.5358190000000  0.5415140000000 1.0
C      1  0.5737580000000  0.5422490000000  0.5188320000000 1.0
C      1  0.4341250000000  0.5632760000000  0.4720890000000 1.0
C      1  0.4264670000000  0.5029380000000  0.5057860000000 1.0
C      1  0.5708130000000  0.4902080000000  0.5024360000000 1.0
C      1  0.4979940000000  0.4860510000000  0.5147590000000 1.0
END
