TITL C-2441161-5029-1300 1.44917973977403e-06 125000 -5123.113415667 0 0 36 (C4) n - 1
REM
REM in /home/bkarasulu/work/CARBON/AIRSS/Generating-Clusters/ReaxFF-fromJPCA2015/Units_Real/with-SteepDescent/Higher-Symm
REM
REM
REM
REM
REM
REM ./C.cell (1df0a924f5614ab8850e4351716899ee)
REM
REM compiler GCC version 9.2.1 20190827 (Red Hat 9.2.1-1)
REM options -cpp -mtune=generic -march=x86-64 -g -O0 -fpre-include=/usr/include/finclude/math-vector-fortran.h
REM seed -61941545 -713732270 1139505683 1708905790 -1371437578 275538416 -1809655615 1118332197 336118089 147821184 -1937188256 -72919881 1203701499 -344638721 383867095 1890823648 -2074982935 -262548490 -1314635093 -894580363 -1255170440 2074792590 1515963721 -1186777263 -1530692981 52374777 1975491800 400390446 1130946024 268185521 -145631105 -1156374526 -1541933073
REM
CELL 1.54180   50.00000   50.00000   50.00000   90.00000   90.00000   90.00000
LATT -1
SFAC C  
C      1  0.5171180000000  0.4671260000000  0.4855990000000 1.0
C      1  0.5171180000000  0.5144010000000  0.4671260000000 1.0
C      1  0.5171180000000  0.5328740000000  0.5144010000000 1.0
C      1  0.5171180000000  0.4855990000000  0.5328740000000 1.0
C      1  0.4828930000000  0.4681820000000  0.4863990000000 1.0
C      1  0.4828930000000  0.5136010000000  0.4681820000000 1.0
C      1  0.4828930000000  0.5318180000000  0.5136010000000 1.0
C      1  0.4828930000000  0.4863990000000  0.5318180000000 1.0
C      1  0.5313000000000  0.5318360000000  0.4879330000000 1.0
C      1  0.5313000000000  0.5120670000000  0.5318360000000 1.0
C      1  0.5313000000000  0.4681640000000  0.5120670000000 1.0
C      1  0.5313000000000  0.4879330000000  0.4681640000000 1.0
C      1  0.4700630000000  0.5309720000000  0.4878060000000 1.0
C      1  0.4700630000000  0.5121940000000  0.5309720000000 1.0
C      1  0.4700630000000  0.4690280000000  0.5121940000000 1.0
C      1  0.4700630000000  0.4878060000000  0.4690280000000 1.0
C      1  0.5255080000000  0.5637340000000  0.5137640000000 1.0
C      1  0.5255080000000  0.4862360000000  0.5637340000000 1.0
C      1  0.5255080000000  0.4362660000000  0.4862360000000 1.0
C      1  0.5255080000000  0.5137640000000  0.4362660000000 1.0
C      1  0.4739310000000  0.5627920000000  0.5136380000000 1.0
C      1  0.4739310000000  0.4863620000000  0.5627920000000 1.0
C      1  0.4739310000000  0.4372080000000  0.4863620000000 1.0
C      1  0.4739310000000  0.5136380000000  0.4372080000000 1.0
C      1  0.5575190000000  0.4925360000000  0.4802860000000 1.0
C      1  0.5575190000000  0.5197140000000  0.4925360000000 1.0
C      1  0.5575190000000  0.5074640000000  0.5197140000000 1.0
C      1  0.5575190000000  0.4802860000000  0.5074640000000 1.0
C      1  0.4434110000000  0.4923500000000  0.4805690000000 1.0
C      1  0.4434110000000  0.5194310000000  0.4923500000000 1.0
C      1  0.4434110000000  0.5076500000000  0.5194310000000 1.0
C      1  0.4434110000000  0.4805690000000  0.5076500000000 1.0
C      1  0.4993490000000  0.4865360000000  0.5781580000000 1.0
C      1  0.4993490000000  0.4218420000000  0.4865360000000 1.0
C      1  0.4993490000000  0.5134640000000  0.4218420000000 1.0
C      1  0.4993490000000  0.5781580000000  0.5134640000000 1.0
END
