TITL C-2441161-5029-729 0.0313612838961327 125000 -15210.1053068199 0 0 108 (C1) n - 1
REM
REM in /home/bkarasulu/work/CARBON/AIRSS/Generating-Clusters/ReaxFF-fromJPCA2015/Units_Real/with-SteepDescent/Higher-Symm
REM
REM
REM
REM
REM
REM ./C.cell (1df0a924f5614ab8850e4351716899ee)
REM
REM compiler GCC version 9.2.1 20190827 (Red Hat 9.2.1-1)
REM options -cpp -mtune=generic -march=x86-64 -g -O0 -fpre-include=/usr/include/finclude/math-vector-fortran.h
REM seed 1590633924 448124167 -1245611500 -581255000 833732453 -1543361688 1503007538 1750020585 -471015246 870259880 1660022009 282257646 25977482 -1838363220 185641996 -187528145 1485396369 -1653637291 -1754983887 957790749 1289474684 -55812005 -290888484 -1808550676 -1018592830 1750910131 1468636050 -874508000 -2087298274 1749410032 -1742912656 -11441711 793584661
REM
CELL 1.54180   50.00000   50.00000   50.00000   90.00000   90.00000   90.00000
LATT -1
SFAC C  
C      1  0.4362090000000  0.5390450000000  0.5455020000000 1.0
C      1  0.4711700000000  0.4617160000000  0.5708030000000 1.0
C      1  0.4753700000000  0.4066170000000  0.4791620000000 1.0
C      1  0.4983740000000  0.4305730000000  0.4725560000000 1.0
C      1  0.4880900000000  0.5219440000000  0.4320790000000 1.0
C      1  0.5203020000000  0.4859780000000  0.5359470000000 1.0
C      1  0.4268810000000  0.4932790000000  0.4363100000000 1.0
C      1  0.5592660000000  0.5377030000000  0.5567190000000 1.0
C      1  0.4526540000000  0.4977290000000  0.5168570000000 1.0
C      1  0.5126460000000  0.4934340000000  0.4735860000000 1.0
C      1  0.5420820000000  0.4868230000000  0.5175020000000 1.0
C      1  0.4736550000000  0.5111100000000  0.5585820000000 1.0
C      1  0.5688830000000  0.5372060000000  0.5293260000000 1.0
C      1  0.4956330000000  0.5495260000000  0.4274580000000 1.0
C      1  0.5008820000000  0.5006240000000  0.4159780000000 1.0
C      1  0.5715730000000  0.4799860000000  0.5275070000000 1.0
C      1  0.5442840000000  0.4461410000000  0.4656140000000 1.0
C      1  0.5687070000000  0.5041770000000  0.4894280000000 1.0
C      1  0.5337250000000  0.5354330000000  0.4283850000000 1.0
C      1  0.5357480000000  0.5592110000000  0.5165430000000 1.0
C      1  0.4787650000000  0.4459320000000  0.4596380000000 1.0
C      1  0.5296650000000  0.4286480000000  0.5119250000000 1.0
C      1  0.4881180000000  0.4642230000000  0.4417250000000 1.0
C      1  0.5778470000000  0.4495610000000  0.5253880000000 1.0
C      1  0.4272780000000  0.4357070000000  0.4858860000000 1.0
C      1  0.4764720000000  0.5283530000000  0.4792020000000 1.0
C      1  0.4875500000000  0.4974560000000  0.5833290000000 1.0
C      1  0.4210060000000  0.5170140000000  0.4792870000000 1.0
C      1  0.4178890000000  0.4757750000000  0.4576780000000 1.0
C      1  0.4537770000000  0.4180090000000  0.4922690000000 1.0
C      1  0.5388310000000  0.5065610000000  0.4962500000000 1.0
C      1  0.4451580000000  0.5184580000000  0.5631570000000 1.0
C      1  0.5631770000000  0.5463920000000  0.4763780000000 1.0
C      1  0.5536530000000  0.5099100000000  0.5638940000000 1.0
C      1  0.5212030000000  0.5708280000000  0.4593920000000 1.0
C      1  0.4977920000000  0.5828400000000  0.4711840000000 1.0
C      1  0.5224170000000  0.4345530000000  0.4520650000000 1.0
C      1  0.5517850000000  0.4635970000000  0.4199730000000 1.0
C      1  0.4841520000000  0.4420990000000  0.5186810000000 1.0
C      1  0.5256100000000  0.5330520000000  0.5084950000000 1.0
C      1  0.5172050000000  0.5473070000000  0.4446870000000 1.0
C      1  0.5623170000000  0.5257680000000  0.4541340000000 1.0
C      1  0.4723700000000  0.5613840000000  0.4400830000000 1.0
C      1  0.4600800000000  0.5384310000000  0.4544930000000 1.0
C      1  0.5784140000000  0.4395080000000  0.4982220000000 1.0
C      1  0.4615340000000  0.4451230000000  0.5038440000000 1.0
C      1  0.4593070000000  0.4562200000000  0.4751230000000 1.0
C      1  0.4943920000000  0.4741230000000  0.5760090000000 1.0
C      1  0.4859750000000  0.4354290000000  0.5675720000000 1.0
C      1  0.5339110000000  0.4272410000000  0.5410110000000 1.0
C      1  0.5462330000000  0.5695560000000  0.4734480000000 1.0
C      1  0.5248240000000  0.5085770000000  0.5565960000000 1.0
C      1  0.5497700000000  0.4337620000000  0.4907930000000 1.0
C      1  0.5350120000000  0.5813720000000  0.4973290000000 1.0
C      1  0.4189580000000  0.5240670000000  0.5280290000000 1.0
C      1  0.5682710000000  0.4856070000000  0.5579680000000 1.0
C      1  0.5053990000000  0.4385340000000  0.5011980000000 1.0
C      1  0.5229740000000  0.4651220000000  0.5637590000000 1.0
C      1  0.4362120000000  0.5641600000000  0.5022850000000 1.0
C      1  0.5894270000000  0.5247220000000  0.5173710000000 1.0
C      1  0.4925140000000  0.5319380000000  0.5479820000000 1.0
C      1  0.4573720000000  0.4903080000000  0.4394560000000 1.0
C      1  0.5370420000000  0.5543920000000  0.5656600000000 1.0
C      1  0.4750170000000  0.4256670000000  0.5419290000000 1.0
C      1  0.4616500000000  0.4857060000000  0.4735080000000 1.0
C      1  0.4585550000000  0.5191460000000  0.4323200000000 1.0
C      1  0.5290140000000  0.5710290000000  0.5433170000000 1.0
C      1  0.5072800000000  0.5908360000000  0.4968720000000 1.0
C      1  0.5139280000000  0.4746840000000  0.4490050000000 1.0
C      1  0.4459250000000  0.4236030000000  0.5396370000000 1.0
C      1  0.5288860000000  0.5079030000000  0.4232710000000 1.0
C      1  0.5577380000000  0.4731910000000  0.4494250000000 1.0
C      1  0.5147210000000  0.4371770000000  0.5610720000000 1.0
C      1  0.4295630000000  0.4879150000000  0.4822960000000 1.0
C      1  0.5460400000000  0.5015090000000  0.4462700000000 1.0
C      1  0.4995640000000  0.5192910000000  0.4644440000000 1.0
C      1  0.4587470000000  0.5210180000000  0.5006660000000 1.0
C      1  0.5600350000000  0.4395880000000  0.5463250000000 1.0
C      1  0.4979510000000  0.5309560000000  0.5185070000000 1.0
C      1  0.4464730000000  0.4681780000000  0.5538830000000 1.0
C      1  0.4284960000000  0.5399590000000  0.4622910000000 1.0
C      1  0.5768050000000  0.5451490000000  0.5022340000000 1.0
C      1  0.4797450000000  0.4819660000000  0.4214990000000 1.0
C      1  0.4274940000000  0.5331320000000  0.5021690000000 1.0
C      1  0.4246760000000  0.4598680000000  0.5010470000000 1.0
C      1  0.4379650000000  0.4516610000000  0.5279300000000 1.0
C      1  0.4506760000000  0.5585330000000  0.5274520000000 1.0
C      1  0.4320260000000  0.4925020000000  0.5588750000000 1.0
C      1  0.5139720000000  0.5444070000000  0.5812720000000 1.0
C      1  0.4940130000000  0.5563970000000  0.5634610000000 1.0
C      1  0.4449590000000  0.5677440000000  0.4757930000000 1.0
C      1  0.5851330000000  0.4784090000000  0.4628180000000 1.0
C      1  0.5014590000000  0.5793430000000  0.5463690000000 1.0
C      1  0.5882710000000  0.4978190000000  0.5096240000000 1.0
C      1  0.4899360000000  0.5824310000000  0.5194490000000 1.0
C      1  0.4876630000000  0.4870630000000  0.4884880000000 1.0
C      1  0.4274910000000  0.5221320000000  0.4385090000000 1.0
C      1  0.5831210000000  0.5081240000000  0.4650280000000 1.0
C      1  0.4256790000000  0.4959310000000  0.5304230000000 1.0
C      1  0.4734860000000  0.4932760000000  0.5348920000000 1.0
C      1  0.5111330000000  0.5151880000000  0.5817310000000 1.0
C      1  0.4942550000000  0.4957590000000  0.5161230000000 1.0
C      1  0.4306690000000  0.4499510000000  0.4613730000000 1.0
C      1  0.4769680000000  0.5566260000000  0.5152940000000 1.0
C      1  0.4690740000000  0.5781410000000  0.4631940000000 1.0
C      1  0.5868220000000  0.4640830000000  0.4869580000000 1.0
C      1  0.5254390000000  0.4551360000000  0.4298910000000 1.0
C      1  0.5537000000000  0.4620010000000  0.5643740000000 1.0
END
