TITL C-2441161-5029-1373 0.00477980517784308 125000 -11467.6436639592 0 0 75 (C1) n - 1
REM
REM in /home/bkarasulu/work/CARBON/AIRSS/Generating-Clusters/ReaxFF-fromJPCA2015/Units_Real/with-SteepDescent/Higher-Symm
REM
REM
REM
REM
REM
REM ./C.cell (1df0a924f5614ab8850e4351716899ee)
REM
REM compiler GCC version 9.2.1 20190827 (Red Hat 9.2.1-1)
REM options -cpp -mtune=generic -march=x86-64 -g -O0 -fpre-include=/usr/include/finclude/math-vector-fortran.h
REM seed -502158349 1119071671 335719370 966046723 524066448 -1854816907 932783438 1654136868 944081788 -1165046464 -1429159541 1211327185 -1196309202 -1727948669 761882763 1185465032 1145572834 232062844 1026650932 1126237854 2137051231 -1188883759 -330162978 -1766079117 -704471875 -1573399202 -2044530711 841575940 -1245370474 1692178146 1908548303 -1216992629 -1198942364
REM
CELL 1.54180   50.00000   50.00000   50.00000   90.00000   90.00000   90.00000
LATT -1
SFAC C  
C      1  0.5155570000000  0.5908690000000  0.5119570000000 1.0
C      1  0.5158160000000  0.4558580000000  0.4256090000000 1.0
C      1  0.5197510000000  0.4470340000000  0.5750800000000 1.0
C      1  0.4868150000000  0.5919720000000  0.5056310000000 1.0
C      1  0.4871270000000  0.4564870000000  0.4213710000000 1.0
C      1  0.4957450000000  0.4571760000000  0.5853900000000 1.0
C      1  0.5158720000000  0.4089480000000  0.5079270000000 1.0
C      1  0.5101960000000  0.5645570000000  0.4195770000000 1.0
C      1  0.5139590000000  0.5477340000000  0.5765250000000 1.0
C      1  0.4868350000000  0.4061270000000  0.5050350000000 1.0
C      1  0.4907630000000  0.5617100000000  0.4059770000000 1.0
C      1  0.4897650000000  0.5394340000000  0.5867970000000 1.0
C      1  0.5252430000000  0.5710300000000  0.5308260000000 1.0
C      1  0.5287930000000  0.4816830000000  0.4306750000000 1.0
C      1  0.5073340000000  0.4360500000000  0.5505860000000 1.0
C      1  0.4695760000000  0.5729080000000  0.5207070000000 1.0
C      1  0.4743100000000  0.4820860000000  0.4280590000000 1.0
C      1  0.4782830000000  0.4407520000000  0.5444750000000 1.0
C      1  0.5260370000000  0.4275300000000  0.5294160000000 1.0
C      1  0.5164070000000  0.5082180000000  0.4312940000000 1.0
C      1  0.5056450000000  0.5614430000000  0.5514120000000 1.0
C      1  0.4688410000000  0.4211560000000  0.5245460000000 1.0
C      1  0.4872670000000  0.5081670000000  0.4296880000000 1.0
C      1  0.4779520000000  0.5566960000000  0.5435900000000 1.0
C      1  0.5476260000000  0.5143430000000  0.5548540000000 1.0
C      1  0.5391300000000  0.5507030000000  0.4599690000000 1.0
C      1  0.5471910000000  0.4357490000000  0.4889060000000 1.0
C      1  0.4535640000000  0.5127150000000  0.5664310000000 1.0
C      1  0.4591730000000  0.5526190000000  0.4472170000000 1.0
C      1  0.4562630000000  0.4341690000000  0.4833020000000 1.0
C      1  0.5508740000000  0.4852930000000  0.5548490000000 1.0
C      1  0.5453040000000  0.4464380000000  0.4608790000000 1.0
C      1  0.5445160000000  0.5611060000000  0.4870680000000 1.0
C      1  0.4620150000000  0.4846010000000  0.5658330000000 1.0
C      1  0.4555210000000  0.4461530000000  0.4558240000000 1.0
C      1  0.4619150000000  0.5692330000000  0.4720660000000 1.0
C      1  0.5269330000000  0.4866490000000  0.4764740000000 1.0
C      1  0.5254760000000  0.4848730000000  0.5191160000000 1.0
C      1  0.5095360000000  0.5256820000000  0.4967900000000 1.0
C      1  0.4692650000000  0.4867980000000  0.4756200000000 1.0
C      1  0.4715770000000  0.4850530000000  0.5206490000000 1.0
C      1  0.4791680000000  0.5280090000000  0.4977220000000 1.0
C      1  0.5231480000000  0.5132130000000  0.4760920000000 1.0
C      1  0.5240590000000  0.5139070000000  0.5187190000000 1.0
C      1  0.5112450000000  0.4730740000000  0.4962830000000 1.0
C      1  0.4688240000000  0.5138430000000  0.4741020000000 1.0
C      1  0.4703010000000  0.5128240000000  0.5218740000000 1.0
C      1  0.4829860000000  0.4758020000000  0.4968470000000 1.0
C      1  0.5305830000000  0.5243550000000  0.4520450000000 1.0
C      1  0.5467660000000  0.4440150000000  0.5182670000000 1.0
C      1  0.5477220000000  0.5278070000000  0.5285490000000 1.0
C      1  0.4701840000000  0.5254380000000  0.4477080000000 1.0
C      1  0.4557050000000  0.4415070000000  0.5107640000000 1.0
C      1  0.4649080000000  0.5293340000000  0.5442400000000 1.0
C      1  0.5421190000000  0.4750920000000  0.4558360000000 1.0
C      1  0.5444240000000  0.5542620000000  0.5161430000000 1.0
C      1  0.5491170000000  0.4714670000000  0.5286920000000 1.0
C      1  0.4594600000000  0.4743160000000  0.4520400000000 1.0
C      1  0.4631120000000  0.5568820000000  0.4977530000000 1.0
C      1  0.4637750000000  0.4670200000000  0.5422040000000 1.0
C      1  0.4764380000000  0.4353520000000  0.4387070000000 1.0
C      1  0.4846420000000  0.4830980000000  0.5847580000000 1.0
C      1  0.4837850000000  0.5886820000000  0.4764040000000 1.0
C      1  0.5222080000000  0.4352740000000  0.4459550000000 1.0
C      1  0.5324940000000  0.4746280000000  0.5752000000000 1.0
C      1  0.5295960000000  0.5861060000000  0.4865270000000 1.0
C      1  0.4701520000000  0.5594280000000  0.4220090000000 1.0
C      1  0.4668650000000  0.5286210000000  0.5851970000000 1.0
C      1  0.4801910000000  0.4161680000000  0.4791950000000 1.0
C      1  0.5234680000000  0.5700260000000  0.4442770000000 1.0
C      1  0.5252660000000  0.5203750000000  0.5733800000000 1.0
C      1  0.5262190000000  0.4182080000000  0.4831530000000 1.0
C      1  0.5130460000000  0.4950780000000  0.5819700000000 1.0
C      1  0.4969870000000  0.4215160000000  0.4549450000000 1.0
C      1  0.5107680000000  0.5874720000000  0.4644460000000 1.0
END
