TITL C-2441154-10-223 0.0169335169325014 125000 -12213.5761955379 0 0 86 (C1) n - 1
REM
REM in /home/bkarasulu/work/CARBON/AIRSS/Generating-Clusters/ReaxFF-fromJPCA2015/Units_Real/with-SteepDescent/Higher-Symm
REM
REM
REM
REM
REM
REM ./C.cell (1df0a924f5614ab8850e4351716899ee)
REM
REM compiler GCC version 9.2.1 20190827 (Red Hat 9.2.1-1)
REM options -cpp -mtune=generic -march=x86-64 -g -O0 -fpre-include=/usr/include/finclude/math-vector-fortran.h
REM seed -916047925 1712187576 -812242433 -575142275 1930857701 -2026303860 -49608345 681879473 1844642145 557202744 -853988009 1955975911 -455463653 -282458819 237088622 -1933904430 -1649456946 -435268593 -1856192062 567419082 -1717086863 1446044707 1053162521 441650254 643086035 1931608394 -1382717642 -241884869 607869514 -1107674848 -2015371479 745862785 -1983488744
REM
CELL 1.54180   50.00000   50.00000   50.00000   90.00000   90.00000   90.00000
LATT -1
SFAC C  
C      1  0.4848770000000  0.4988840000000  0.5786030000000 1.0
C      1  0.5137550000000  0.4984750000000  0.5782540000000 1.0
C      1  0.4674860000000  0.4683180000000  0.4368870000000 1.0
C      1  0.5335370000000  0.5329850000000  0.4365420000000 1.0
C      1  0.5161610000000  0.5225160000000  0.5039380000000 1.0
C      1  0.4863820000000  0.4792780000000  0.5044290000000 1.0
C      1  0.5711980000000  0.5085040000000  0.4447180000000 1.0
C      1  0.4291240000000  0.4913270000000  0.4437070000000 1.0
C      1  0.4679290000000  0.5191060000000  0.4327190000000 1.0
C      1  0.5320500000000  0.4810150000000  0.4343110000000 1.0
C      1  0.4132720000000  0.5102810000000  0.4908170000000 1.0
C      1  0.5889770000000  0.4913400000000  0.4921120000000 1.0
C      1  0.5569780000000  0.4341910000000  0.4938790000000 1.0
C      1  0.4439550000000  0.5670750000000  0.4940440000000 1.0
C      1  0.4351170000000  0.5518070000000  0.4705890000000 1.0
C      1  0.5662050000000  0.4493130000000  0.4706930000000 1.0
C      1  0.4918020000000  0.5238160000000  0.4871400000000 1.0
C      1  0.5064420000000  0.4776510000000  0.4835720000000 1.0
C      1  0.5582040000000  0.4700170000000  0.5283310000000 1.0
C      1  0.4407500000000  0.5339540000000  0.5286210000000 1.0
C      1  0.4972930000000  0.5602250000000  0.4570610000000 1.0
C      1  0.4985170000000  0.4339630000000  0.4580430000000 1.0
C      1  0.4948970000000  0.5680230000000  0.5492030000000 1.0
C      1  0.4991320000000  0.4327390000000  0.5448940000000 1.0
C      1  0.5117600000000  0.4230430000000  0.5206040000000 1.0
C      1  0.4906650000000  0.5786690000000  0.5222320000000 1.0
C      1  0.4936150000000  0.5129860000000  0.4306420000000 1.0
C      1  0.5059660000000  0.4870490000000  0.4315640000000 1.0
C      1  0.5182560000000  0.4534230000000  0.4740720000000 1.0
C      1  0.4797900000000  0.5433590000000  0.4722730000000 1.0
C      1  0.5473090000000  0.4932690000000  0.4735770000000 1.0
C      1  0.4519710000000  0.5050970000000  0.4740040000000 1.0
C      1  0.5583510000000  0.5594490000000  0.4990950000000 1.0
C      1  0.4485880000000  0.4447030000000  0.5047510000000 1.0
C      1  0.5282620000000  0.4730890000000  0.5712700000000 1.0
C      1  0.4689770000000  0.5220060000000  0.5684020000000 1.0
C      1  0.4477770000000  0.5139360000000  0.5505070000000 1.0
C      1  0.5528330000000  0.4786590000000  0.5570010000000 1.0
C      1  0.5052230000000  0.5371360000000  0.4365850000000 1.0
C      1  0.4941890000000  0.4646830000000  0.4391560000000 1.0
C      1  0.4243780000000  0.5527530000000  0.5100380000000 1.0
C      1  0.5749560000000  0.4489580000000  0.5108270000000 1.0
C      1  0.5766600000000  0.4957200000000  0.5173930000000 1.0
C      1  0.4282340000000  0.5104630000000  0.5147490000000 1.0
C      1  0.5872670000000  0.4620070000000  0.4873100000000 1.0
C      1  0.4135290000000  0.5394000000000  0.4860160000000 1.0
C      1  0.4450830000000  0.4928930000000  0.5295600000000 1.0
C      1  0.5554930000000  0.5076730000000  0.5525870000000 1.0
C      1  0.5467800000000  0.5068780000000  0.4303880000000 1.0
C      1  0.4529890000000  0.4938770000000  0.4286510000000 1.0
C      1  0.5250660000000  0.4982250000000  0.4888880000000 1.0
C      1  0.4736550000000  0.5025310000000  0.4916230000000 1.0
C      1  0.4879270000000  0.4168280000000  0.5087960000000 1.0
C      1  0.5139720000000  0.5788690000000  0.5046000000000 1.0
C      1  0.4728230000000  0.5354970000000  0.5210400000000 1.0
C      1  0.5288050000000  0.4682200000000  0.5203850000000 1.0
C      1  0.4694530000000  0.5619330000000  0.5101360000000 1.0
C      1  0.5281910000000  0.4426280000000  0.5042190000000 1.0
C      1  0.5483010000000  0.5539250000000  0.4478960000000 1.0
C      1  0.4517170000000  0.4486710000000  0.4494150000000 1.0
C      1  0.4735580000000  0.4725670000000  0.5741150000000 1.0
C      1  0.5237380000000  0.5261800000000  0.5755650000000 1.0
C      1  0.4677380000000  0.4286340000000  0.4581090000000 1.0
C      1  0.5353500000000  0.5770740000000  0.4586320000000 1.0
C      1  0.4255270000000  0.4910860000000  0.4714390000000 1.0
C      1  0.5737810000000  0.5079640000000  0.4722610000000 1.0
C      1  0.5422450000000  0.4662670000000  0.4596520000000 1.0
C      1  0.4562900000000  0.5312540000000  0.4593740000000 1.0
C      1  0.5453320000000  0.5388830000000  0.5137800000000 1.0
C      1  0.4398020000000  0.4640390000000  0.5250260000000 1.0
C      1  0.4981350000000  0.4184230000000  0.4822890000000 1.0
C      1  0.5111380000000  0.5779780000000  0.4750890000000 1.0
C      1  0.4471150000000  0.4653980000000  0.5699860000000 1.0
C      1  0.5518930000000  0.5321290000000  0.5723900000000 1.0
C      1  0.5656010000000  0.5194450000000  0.5280970000000 1.0
C      1  0.4323270000000  0.4616850000000  0.5523540000000 1.0
C      1  0.4479830000000  0.4390310000000  0.4756490000000 1.0
C      1  0.5583540000000  0.5642710000000  0.4718530000000 1.0
C      1  0.4967620000000  0.5198690000000  0.5278810000000 1.0
C      1  0.5042150000000  0.4829040000000  0.5276270000000 1.0
C      1  0.4822090000000  0.5483870000000  0.5661010000000 1.0
C      1  0.5132950000000  0.4486700000000  0.5648240000000 1.0
C      1  0.4685660000000  0.4353670000000  0.5179680000000 1.0
C      1  0.5380270000000  0.5674950000000  0.5159110000000 1.0
C      1  0.4907970000000  0.4618160000000  0.5498060000000 1.0
C      1  0.5073690000000  0.5398730000000  0.5508660000000 1.0
END
