TITL C-2441161-5029-1019 -3.78650349543064e-07 125000 -6055.30676965556 0 0 44 (Th) n - 1
REM
REM in /home/bkarasulu/work/CARBON/AIRSS/Generating-Clusters/ReaxFF-fromJPCA2015/Units_Real/with-SteepDescent/Higher-Symm
REM
REM
REM
REM
REM
REM ./C.cell (1df0a924f5614ab8850e4351716899ee)
REM
REM compiler GCC version 9.2.1 20190827 (Red Hat 9.2.1-1)
REM options -cpp -mtune=generic -march=x86-64 -g -O0 -fpre-include=/usr/include/finclude/math-vector-fortran.h
REM seed -155800687 2010450633 -757073095 -1998589426 1746730117 701822806 207845560 -1724896182 -933480549 809331218 1905659516 1917789709 1195805103 -1173966328 -306968974 1186474079 587635559 1200508584 -1811540578 512797908 -1592130081 -201982934 -1301444458 1907830900 1163438578 -1631529179 -1467757321 1193521720 -303253349 1634001096 -1179429374 242788217 2061226114
REM
CELL 1.54180   50.00000   50.00000   50.00000   90.00000   90.00000   90.00000
LATT -1
SFAC C  
C      1  0.5213770000000  0.5280120000000  0.4475760000000 1.0
C      1  0.5282160000000  0.4480760000000  0.5206720000000 1.0
C      1  0.4482800000000  0.5211730000000  0.5275120000000 1.0
C      1  0.5213770000000  0.4733960000000  0.5528320000000 1.0
C      1  0.4804400000000  0.5280120000000  0.5528320000000 1.0
C      1  0.4804400000000  0.4733960000000  0.4475760000000 1.0
C      1  0.5282160000000  0.5533320000000  0.4797360000000 1.0
C      1  0.4736000000000  0.4480760000000  0.4797360000000 1.0
C      1  0.4736000000000  0.5533320000000  0.5206720000000 1.0
C      1  0.4482800000000  0.4802360000000  0.4728960000000 1.0
C      1  0.5535360000000  0.5211720000000  0.4728960000000 1.0
C      1  0.5535360000000  0.4802360000000  0.5275120000000 1.0
C      1  0.4804400000000  0.5280120000000  0.4475760000000 1.0
C      1  0.4736000000000  0.4480760000000  0.5206720000000 1.0
C      1  0.5535360000000  0.5211720000000  0.5275120000000 1.0
C      1  0.4804400000000  0.4733960000000  0.5528320000000 1.0
C      1  0.5213770000000  0.5280120000000  0.5528320000000 1.0
C      1  0.5213770000000  0.4733960000000  0.4475760000000 1.0
C      1  0.4736000000000  0.5533320000000  0.4797360000000 1.0
C      1  0.5282160000000  0.4480760000000  0.4797360000000 1.0
C      1  0.5282160000000  0.5533320000000  0.5206720000000 1.0
C      1  0.5535360000000  0.4802360000000  0.4728960000000 1.0
C      1  0.4482800000000  0.5211720000000  0.4728960000000 1.0
C      1  0.4482800000000  0.4802360000000  0.5275120000000 1.0
C      1  0.5641010000000  0.5007040000000  0.5144710000000 1.0
C      1  0.5009080000000  0.5149710000000  0.5633960000000 1.0
C      1  0.5151750000000  0.5638960000000  0.5002040000000 1.0
C      1  0.5641010000000  0.5007040000000  0.4859370000000 1.0
C      1  0.4377160000000  0.5007040000000  0.4859370000000 1.0
C      1  0.4377160000000  0.5007040000000  0.5144710000000 1.0
C      1  0.5009080000000  0.4864370000000  0.4370120000000 1.0
C      1  0.5009080000000  0.5149710000000  0.4370120000000 1.0
C      1  0.5009080000000  0.4864370000000  0.5633960000000 1.0
C      1  0.5151750000000  0.4375120000000  0.5002040000000 1.0
C      1  0.4866410000000  0.5638960000000  0.5002040000000 1.0
C      1  0.4866410000000  0.4375120000000  0.5002040000000 1.0
C      1  0.5312610000000  0.4703520000000  0.4698520000000 1.0
C      1  0.4705560000000  0.5310570000000  0.4698520000000 1.0
C      1  0.4705560000000  0.4703520000000  0.5305570000000 1.0
C      1  0.4705560000000  0.5310570000000  0.5305570000000 1.0
C      1  0.5312610000000  0.5310570000000  0.4698520000000 1.0
C      1  0.5312610000000  0.4703520000000  0.5305570000000 1.0
C      1  0.5312610000000  0.5310570000000  0.5305570000000 1.0
C      1  0.4705560000000  0.4703520000000  0.4698520000000 1.0
END
