TITL C-2441161-5029-105 0.00320512336384368 125000 -3896.11296991633 0 0 29 (C1) n - 1
REM
REM in /home/bkarasulu/work/CARBON/AIRSS/Generating-Clusters/ReaxFF-fromJPCA2015/Units_Real/with-SteepDescent/Higher-Symm
REM
REM
REM
REM
REM
REM ./C.cell (1df0a924f5614ab8850e4351716899ee)
REM
REM compiler GCC version 9.2.1 20190827 (Red Hat 9.2.1-1)
REM options -cpp -mtune=generic -march=x86-64 -g -O0 -fpre-include=/usr/include/finclude/math-vector-fortran.h
REM seed -470268697 5974455 1818283827 -1227120215 605128184 791825612 987870257 834814767 1008231385 -310055074 -1936551548 1539683473 322084314 -2041222629 -1550351198 462019932 -947313537 -1288774088 -1741961511 -585620063 806062121 70779912 1441264408 -716851706 988010262 857765983 847278168 -560607530 1958438089 -1564509472 1756485109 -1962560419 -646799760
REM
CELL 1.54180   50.00000   50.00000   50.00000   90.00000   90.00000   90.00000
LATT -1
SFAC C  
C      1  0.5043010000000  0.4995540000000  0.5587670000000 1.0
C      1  0.4939780000000  0.4987430000000  0.4244040000000 1.0
C      1  0.4829560000000  0.5063660000000  0.4645550000000 1.0
C      1  0.5248960000000  0.4942280000000  0.5497350000000 1.0
C      1  0.5381960000000  0.5250530000000  0.5045620000000 1.0
C      1  0.4599220000000  0.4590140000000  0.4917470000000 1.0
C      1  0.4993680000000  0.4552820000000  0.4575440000000 1.0
C      1  0.4875310000000  0.5435730000000  0.5350560000000 1.0
C      1  0.5303900000000  0.5505980000000  0.4946460000000 1.0
C      1  0.4742030000000  0.4644100000000  0.5170070000000 1.0
C      1  0.4836710000000  0.4444560000000  0.4814240000000 1.0
C      1  0.4951020000000  0.5613170000000  0.5110640000000 1.0
C      1  0.5130410000000  0.4350470000000  0.4529580000000 1.0
C      1  0.4850140000000  0.5638450000000  0.5501880000000 1.0
C      1  0.5124780000000  0.5671960000000  0.4922730000000 1.0
C      1  0.4957930000000  0.4451180000000  0.5103680000000 1.0
C      1  0.4450590000000  0.4834680000000  0.4844570000000 1.0
C      1  0.5583160000000  0.5054360000000  0.5142670000000 1.0
C      1  0.4424790000000  0.5257510000000  0.4875250000000 1.0
C      1  0.5490130000000  0.4640640000000  0.5176550000000 1.0
C      1  0.4972980000000  0.4868180000000  0.4459760000000 1.0
C      1  0.4868890000000  0.5113890000000  0.5404840000000 1.0
C      1  0.4467460000000  0.5031010000000  0.5067540000000 1.0
C      1  0.5476370000000  0.4846240000000  0.4955390000000 1.0
C      1  0.5236270000000  0.5032980000000  0.4904020000000 1.0
C      1  0.4770260000000  0.4968130000000  0.5161780000000 1.0
C      1  0.4530960000000  0.5055970000000  0.4662580000000 1.0
C      1  0.5501250000000  0.4880920000000  0.5373370000000 1.0
C      1  0.4947740000000  0.5033360000000  0.4905830000000 1.0
END
