TITL C-2441168-9922-716 0.0375367422653188 125000 -20491.2358385451 0 0 142 (C1) n - 1
REM
REM in /home/bkarasulu/work/CARBON/AIRSS/Generating-Clusters/ReaxFF-fromJPCA2015/Units_Real/with-SteepDescent/Higher-Symm
REM
REM
REM
REM
REM
REM ./C.cell (1df0a924f5614ab8850e4351716899ee)
REM
REM compiler GCC version 9.2.1 20190827 (Red Hat 9.2.1-1)
REM options -cpp -mtune=generic -march=x86-64 -g -O0 -fpre-include=/usr/include/finclude/math-vector-fortran.h
REM seed -916210169 -1514693448 -793910775 -1806710559 -1349693542 1661232148 -1443389996 -146939221 772555108 -967543095 -311770381 933955586 1839840035 -325852226 -1266646106 1150332738 -923251577 -995696120 1946287930 570974258 1533198257 -545943418 819911204 -1271628166 2063256913 -292684545 1442792883 324402162 -1545815246 1457430008 -635986101 1381130266 -376237224
REM
CELL 1.54180   50.00000   50.00000   50.00000   90.00000   90.00000   90.00000
LATT -1
SFAC C  
C      1  0.5225590000000  0.4063400000000  0.5377440000000 1.0
C      1  0.5371900000000  0.5181760000000  0.4109280000000 1.0
C      1  0.4112980000000  0.5360570000000  0.5187440000000 1.0
C      1  0.4802180000000  0.4129290000000  0.4638640000000 1.0
C      1  0.5190870000000  0.5875330000000  0.4644770000000 1.0
C      1  0.4821400000000  0.5890860000000  0.5370000000000 1.0
C      1  0.4642340000000  0.5189370000000  0.5882000000000 1.0
C      1  0.5372210000000  0.4814220000000  0.5878410000000 1.0
C      1  0.4640210000000  0.4783260000000  0.4125220000000 1.0
C      1  0.5875910000000  0.5352870000000  0.4804040000000 1.0
C      1  0.4136420000000  0.4640690000000  0.4795820000000 1.0
C      1  0.5853480000000  0.4643190000000  0.5200860000000 1.0
C      1  0.5013840000000  0.5419330000000  0.5290020000000 1.0
C      1  0.5258890000000  0.4990300000000  0.5399670000000 1.0
C      1  0.5398360000000  0.5299090000000  0.5016600000000 1.0
C      1  0.4982930000000  0.5389820000000  0.4721190000000 1.0
C      1  0.5010060000000  0.4595710000000  0.4697390000000 1.0
C      1  0.5092460000000  0.4775480000000  0.5258190000000 1.0
C      1  0.4713840000000  0.5006810000000  0.4601800000000 1.0
C      1  0.5285440000000  0.4987790000000  0.4592190000000 1.0
C      1  0.4703750000000  0.5005770000000  0.5394910000000 1.0
C      1  0.4594250000000  0.5282470000000  0.5000470000000 1.0
C      1  0.5313390000000  0.4727060000000  0.5043020000000 1.0
C      1  0.4622770000000  0.4730810000000  0.5018380000000 1.0
C      1  0.5407950000000  0.5956610000000  0.4821400000000 1.0
C      1  0.4825980000000  0.5402220000000  0.5958140000000 1.0
C      1  0.5963650000000  0.4827720000000  0.5402060000000 1.0
C      1  0.4602020000000  0.5953490000000  0.5175580000000 1.0
C      1  0.5419130000000  0.4017580000000  0.5161210000000 1.0
C      1  0.4595810000000  0.4040430000000  0.4825160000000 1.0
C      1  0.5184190000000  0.5396860000000  0.4049190000000 1.0
C      1  0.4831810000000  0.4584590000000  0.4027100000000 1.0
C      1  0.5178840000000  0.4589510000000  0.5918380000000 1.0
C      1  0.4037670000000  0.4826920000000  0.4592570000000 1.0
C      1  0.5955680000000  0.5164510000000  0.4597560000000 1.0
C      1  0.4037760000000  0.5166330000000  0.5404530000000 1.0
C      1  0.5091130000000  0.4724210000000  0.4008400000000 1.0
C      1  0.4015570000000  0.5084850000000  0.4730860000000 1.0
C      1  0.4736290000000  0.4014000000000  0.5083750000000 1.0
C      1  0.4922000000000  0.4721830000000  0.5944010000000 1.0
C      1  0.5087540000000  0.5269060000000  0.5982740000000 1.0
C      1  0.4920470000000  0.5262530000000  0.4029430000000 1.0
C      1  0.5978510000000  0.5086850000000  0.5259730000000 1.0
C      1  0.4026810000000  0.4905660000000  0.5261860000000 1.0
C      1  0.5968320000000  0.4906740000000  0.4742820000000 1.0
C      1  0.5261020000000  0.4013790000000  0.4910630000000 1.0
C      1  0.4735530000000  0.5972130000000  0.4913110000000 1.0
C      1  0.5275470000000  0.5984970000000  0.5084370000000 1.0
C      1  0.5226400000000  0.5515610000000  0.5675840000000 1.0
C      1  0.5665520000000  0.5222140000000  0.5507790000000 1.0
C      1  0.5518150000000  0.5674160000000  0.5216660000000 1.0
C      1  0.4773470000000  0.5501540000000  0.4346020000000 1.0
C      1  0.5226370000000  0.4479140000000  0.4319230000000 1.0
C      1  0.4768630000000  0.4472560000000  0.5596100000000 1.0
C      1  0.4326340000000  0.5219240000000  0.4487750000000 1.0
C      1  0.5663950000000  0.4770220000000  0.4489500000000 1.0
C      1  0.4335930000000  0.4748660000000  0.5510990000000 1.0
C      1  0.4487090000000  0.5657180000000  0.4769210000000 1.0
C      1  0.5489830000000  0.4343370000000  0.4788600000000 1.0
C      1  0.4492720000000  0.4327280000000  0.5227680000000 1.0
C      1  0.5560100000000  0.4938340000000  0.5389090000000 1.0
C      1  0.5384950000000  0.5561500000000  0.4926290000000 1.0
C      1  0.4933430000000  0.5392280000000  0.5562020000000 1.0
C      1  0.4446970000000  0.4934090000000  0.4620010000000 1.0
C      1  0.5552430000000  0.5062070000000  0.4616480000000 1.0
C      1  0.4421450000000  0.5022000000000  0.5406850000000 1.0
C      1  0.4599570000000  0.5567140000000  0.5037680000000 1.0
C      1  0.5358000000000  0.4429790000000  0.5071840000000 1.0
C      1  0.4633500000000  0.4456750000000  0.4958070000000 1.0
C      1  0.5052250000000  0.5367160000000  0.4440700000000 1.0
C      1  0.4938550000000  0.4609840000000  0.4430480000000 1.0
C      1  0.5036870000000  0.4527850000000  0.5445730000000 1.0
C      1  0.5107290000000  0.5635640000000  0.4813820000000 1.0
C      1  0.4809400000000  0.5124660000000  0.5638930000000 1.0
C      1  0.5623250000000  0.4813460000000  0.5128960000000 1.0
C      1  0.4950040000000  0.5681520000000  0.5225090000000 1.0
C      1  0.5125310000000  0.4312160000000  0.5232100000000 1.0
C      1  0.4894520000000  0.4365330000000  0.4821990000000 1.0
C      1  0.5208230000000  0.5082470000000  0.4333190000000 1.0
C      1  0.4817370000000  0.4882460000000  0.4362090000000 1.0
C      1  0.5226080000000  0.4959230000000  0.5680410000000 1.0
C      1  0.4376630000000  0.4816370000000  0.4893680000000 1.0
C      1  0.5635430000000  0.5188910000000  0.4887330000000 1.0
C      1  0.4324280000000  0.5226590000000  0.5051100000000 1.0
C      1  0.4412690000000  0.5188270000000  0.4214630000000 1.0
C      1  0.4216060000000  0.4403880000000  0.5192240000000 1.0
C      1  0.5199070000000  0.4205020000000  0.4404780000000 1.0
C      1  0.5596930000000  0.5203700000000  0.5788170000000 1.0
C      1  0.4419150000000  0.4786560000000  0.5788760000000 1.0
C      1  0.5594130000000  0.4790040000000  0.4210800000000 1.0
C      1  0.5770330000000  0.4409800000000  0.4812690000000 1.0
C      1  0.4204090000000  0.5588880000000  0.4801980000000 1.0
C      1  0.5792430000000  0.5589490000000  0.5191910000000 1.0
C      1  0.4803810000000  0.4186060000000  0.5584200000000 1.0
C      1  0.5208940000000  0.5791300000000  0.5593960000000 1.0
C      1  0.4800530000000  0.5781830000000  0.4415750000000 1.0
C      1  0.5094630000000  0.5822430000000  0.4379240000000 1.0
C      1  0.4381340000000  0.5077310000000  0.5836320000000 1.0
C      1  0.5812570000000  0.4373490000000  0.5104570000000 1.0
C      1  0.4918330000000  0.5833290000000  0.5638300000000 1.0
C      1  0.5097380000000  0.4149640000000  0.5626630000000 1.0
C      1  0.4905690000000  0.4169850000000  0.4370350000000 1.0
C      1  0.5635370000000  0.5082080000000  0.4167930000000 1.0
C      1  0.4377170000000  0.4894710000000  0.4176830000000 1.0
C      1  0.5644240000000  0.4914170000000  0.5833430000000 1.0
C      1  0.4185660000000  0.4373720000000  0.4896470000000 1.0
C      1  0.5831900000000  0.5621620000000  0.4897710000000 1.0
C      1  0.4166600000000  0.5629090000000  0.5091200000000 1.0
C      1  0.5584070000000  0.5725680000000  0.4789290000000 1.0
C      1  0.4799510000000  0.5587250000000  0.5733270000000 1.0
C      1  0.5739100000000  0.4797110000000  0.5586410000000 1.0
C      1  0.4420090000000  0.5723460000000  0.5208220000000 1.0
C      1  0.5566040000000  0.4262930000000  0.5221180000000 1.0
C      1  0.4442800000000  0.4286580000000  0.4790930000000 1.0
C      1  0.5206100000000  0.5569360000000  0.4284360000000 1.0
C      1  0.4787470000000  0.4414320000000  0.4261090000000 1.0
C      1  0.5198260000000  0.4418590000000  0.5681140000000 1.0
C      1  0.4275970000000  0.4782180000000  0.4426990000000 1.0
C      1  0.5726280000000  0.5191360000000  0.4420400000000 1.0
C      1  0.4269000000000  0.5194370000000  0.5590230000000 1.0
C      1  0.5350580000000  0.4634520000000  0.4110250000000 1.0
C      1  0.4116280000000  0.5345390000000  0.4643970000000 1.0
C      1  0.4638990000000  0.4104590000000  0.5343220000000 1.0
C      1  0.4672980000000  0.4632450000000  0.5827490000000 1.0
C      1  0.5348350000000  0.5355600000000  0.5883470000000 1.0
C      1  0.4659880000000  0.5347440000000  0.4128990000000 1.0
C      1  0.5876990000000  0.5344720000000  0.5350210000000 1.0
C      1  0.4115330000000  0.4643940000000  0.5346650000000 1.0
C      1  0.5869020000000  0.4647150000000  0.4652260000000 1.0
C      1  0.5349680000000  0.4125170000000  0.4656590000000 1.0
C      1  0.4646720000000  0.5877970000000  0.4654690000000 1.0
C      1  0.5363130000000  0.5882280000000  0.5343290000000 1.0
C      1  0.5004120000000  0.4987810000000  0.4156760000000 1.0
C      1  0.5003610000000  0.5002320000000  0.5830750000000 1.0
C      1  0.4168930000000  0.5003410000000  0.4998910000000 1.0
C      1  0.5001410000000  0.4158450000000  0.5014220000000 1.0
C      1  0.5823650000000  0.4993960000000  0.5004180000000 1.0
C      1  0.5005750000000  0.5836990000000  0.5005950000000 1.0
C      1  0.4786080000000  0.5203110000000  0.4794830000000 1.0
C      1  0.5190900000000  0.4791250000000  0.4776350000000 1.0
C      1  0.4813890000000  0.4859160000000  0.5188710000000 1.0
C      1  0.5219550000000  0.5237750000000  0.5217250000000 1.0
END
