TITL C-2441160-1326-800 0.0757853666628258 125000 -21198.8712199798 0 0 160 (C1) n - 1
REM
REM in /home/bkarasulu/work/CARBON/AIRSS/Generating-Clusters/ReaxFF-fromJPCA2015/Units_Real/with-SteepDescent/Higher-Symm
REM
REM
REM
REM
REM
REM ./C.cell (1df0a924f5614ab8850e4351716899ee)
REM
REM compiler GCC version 9.2.1 20190827 (Red Hat 9.2.1-1)
REM options -cpp -mtune=generic -march=x86-64 -g -O0 -fpre-include=/usr/include/finclude/math-vector-fortran.h
REM seed 256363370 -2059609566 939592565 -1438119500 1079673707 -1146653802 -1940064162 619513361 -659356369 -1873037374 -1526658233 -335029600 887214229 826170867 -1801285189 522334036 -1651469237 278643484 1253772610 -437882123 1230062281 -1124493261 928425499 814567156 807487417 1355633110 -1396374155 323676374 360397342 1220099783 97482509 -1472376666 -1381449068
REM
CELL 1.54180   50.00000   50.00000   50.00000   90.00000   90.00000   90.00000
LATT -1
SFAC C  
C      1  0.5239990000000  0.4751610000000  0.4099090000000 1.0
C      1  0.5849200000000  0.4790150000000  0.4624160000000 1.0
C      1  0.5841080000000  0.4785120000000  0.5443400000000 1.0
C      1  0.5174910000000  0.4767350000000  0.5924910000000 1.0
C      1  0.4425090000000  0.4795020000000  0.5709020000000 1.0
C      1  0.4073370000000  0.4787390000000  0.4969160000000 1.0
C      1  0.4421150000000  0.4793620000000  0.4225580000000 1.0
C      1  0.4182920000000  0.4734610000000  0.4423780000000 1.0
C      1  0.4955300000000  0.4733820000000  0.3978050000000 1.0
C      1  0.5761480000000  0.4742990000000  0.4335240000000 1.0
C      1  0.5983300000000  0.4758720000000  0.5183020000000 1.0
C      1  0.5479770000000  0.4743660000000  0.5896640000000 1.0
C      1  0.4622600000000  0.4743980000000  0.5932720000000 1.0
C      1  0.4033610000000  0.4756320000000  0.5271600000000 1.0
C      1  0.5466600000000  0.5746030000000  0.4619760000000 1.0
C      1  0.5565740000000  0.5697100000000  0.5120490000000 1.0
C      1  0.5294570000000  0.5687310000000  0.5503580000000 1.0
C      1  0.4799590000000  0.5693780000000  0.5516680000000 1.0
C      1  0.4386360000000  0.5670920000000  0.5182420000000 1.0
C      1  0.4503310000000  0.5738700000000  0.4667760000000 1.0
C      1  0.4905490000000  0.5741610000000  0.4435970000000 1.0
C      1  0.4497240000000  0.5305750000000  0.5886820000000 1.0
C      1  0.4011170000000  0.5317680000000  0.5132220000000 1.0
C      1  0.4292510000000  0.5238840000000  0.4359070000000 1.0
C      1  0.5070200000000  0.5288650000000  0.4061430000000 1.0
C      1  0.5830670000000  0.5267340000000  0.4422850000000 1.0
C      1  0.5964040000000  0.5277460000000  0.5299860000000 1.0
C      1  0.5340570000000  0.5271210000000  0.5836550000000 1.0
C      1  0.5341170000000  0.5890680000000  0.5050960000000 1.0
C      1  0.5186110000000  0.5891090000000  0.5297900000000 1.0
C      1  0.4902740000000  0.5912640000000  0.5334930000000 1.0
C      1  0.4746010000000  0.6006640000000  0.5083840000000 1.0
C      1  0.4713000000000  0.5914020000000  0.4788160000000 1.0
C      1  0.4975190000000  0.5923090000000  0.4661480000000 1.0
C      1  0.5258880000000  0.5894890000000  0.4770600000000 1.0
C      1  0.5401700000000  0.4572280000000  0.4679210000000 1.0
C      1  0.5506580000000  0.4542690000000  0.5067760000000 1.0
C      1  0.5295680000000  0.4572620000000  0.5480240000000 1.0
C      1  0.4805950000000  0.4542180000000  0.5470480000000 1.0
C      1  0.4476480000000  0.4562400000000  0.5122870000000 1.0
C      1  0.4583030000000  0.4508530000000  0.4675840000000 1.0
C      1  0.4960280000000  0.4583630000000  0.4453630000000 1.0
C      1  0.5316200000000  0.4309660000000  0.5821210000000 1.0
C      1  0.4554690000000  0.4322820000000  0.5768430000000 1.0
C      1  0.4114870000000  0.4326010000000  0.5125200000000 1.0
C      1  0.4421890000000  0.4312380000000  0.4361300000000 1.0
C      1  0.4897400000000  0.4221220000000  0.4212790000000 1.0
C      1  0.5733180000000  0.4301750000000  0.4570100000000 1.0
C      1  0.5879190000000  0.4346110000000  0.5272980000000 1.0
C      1  0.5342770000000  0.5258190000000  0.3985370000000 1.0
C      1  0.6027750000000  0.5266130000000  0.4631970000000 1.0
C      1  0.5943270000000  0.5259160000000  0.5581240000000 1.0
C      1  0.5152630000000  0.5255550000000  0.6051290000000 1.0
C      1  0.4228320000000  0.5264070000000  0.5794460000000 1.0
C      1  0.3926760000000  0.5276080000000  0.4863210000000 1.0
C      1  0.4413540000000  0.5260640000000  0.4102410000000 1.0
C      1  0.4800680000000  0.4893040000000  0.6078860000000 1.0
C      1  0.4056330000000  0.4890550000000  0.5503420000000 1.0
C      1  0.4009290000000  0.4890010000000  0.4559140000000 1.0
C      1  0.4731150000000  0.4886680000000  0.3936080000000 1.0
C      1  0.5648130000000  0.4890620000000  0.4135660000000 1.0
C      1  0.6081660000000  0.4893390000000  0.4969500000000 1.0
C      1  0.5708830000000  0.4884100000000  0.5834330000000 1.0
C      1  0.5344830000000  0.5620320000000  0.4379830000000 1.0
C      1  0.5671440000000  0.5618110000000  0.4792990000000 1.0
C      1  0.5593320000000  0.5660170000000  0.5436110000000 1.0
C      1  0.5019490000000  0.5628160000000  0.5695110000000 1.0
C      1  0.4453560000000  0.5605180000000  0.5463250000000 1.0
C      1  0.4306120000000  0.5645860000000  0.4876070000000 1.0
C      1  0.4637050000000  0.5643480000000  0.4396870000000 1.0
C      1  0.5566500000000  0.4509890000000  0.4389520000000 1.0
C      1  0.5808970000000  0.4526500000000  0.5038870000000 1.0
C      1  0.5489220000000  0.4512850000000  0.5689130000000 1.0
C      1  0.4775560000000  0.4505780000000  0.5789520000000 1.0
C      1  0.4246050000000  0.4529800000000  0.5313640000000 1.0
C      1  0.4296860000000  0.4492660000000  0.4579350000000 1.0
C      1  0.4836120000000  0.4517350000000  0.4171610000000 1.0
C      1  0.4236800000000  0.5435900000000  0.5559140000000 1.0
C      1  0.4137260000000  0.5446100000000  0.4759120000000 1.0
C      1  0.4628720000000  0.5433440000000  0.4196860000000 1.0
C      1  0.5449590000000  0.5419820000000  0.4200120000000 1.0
C      1  0.5910000000000  0.5457120000000  0.4821160000000 1.0
C      1  0.5711990000000  0.5443010000000  0.5594190000000 1.0
C      1  0.4969300000000  0.5440290000000  0.5909000000000 1.0
C      1  0.5172280000000  0.4325490000000  0.5374940000000 1.0
C      1  0.4726450000000  0.4304250000000  0.5313070000000 1.0
C      1  0.4590320000000  0.4308430000000  0.5028030000000 1.0
C      1  0.4754480000000  0.4272020000000  0.4675410000000 1.0
C      1  0.5057040000000  0.4336480000000  0.4583950000000 1.0
C      1  0.5287950000000  0.4301170000000  0.4805290000000 1.0
C      1  0.5434360000000  0.4302140000000  0.5210660000000 1.0
C      1  0.4820630000000  0.5204420000000  0.4173460000000 1.0
C      1  0.5545500000000  0.5205000000000  0.4369050000000 1.0
C      1  0.5853400000000  0.5229590000000  0.5020220000000 1.0
C      1  0.5545850000000  0.5208690000000  0.5655510000000 1.0
C      1  0.4773100000000  0.5230460000000  0.5821250000000 1.0
C      1  0.4179680000000  0.5251050000000  0.5343650000000 1.0
C      1  0.4275450000000  0.5181180000000  0.4646440000000 1.0
C      1  0.5651060000000  0.4231760000000  0.5387540000000 1.0
C      1  0.5102950000000  0.4242440000000  0.5662470000000 1.0
C      1  0.4513060000000  0.4235650000000  0.5501550000000 1.0
C      1  0.4313580000000  0.4235360000000  0.4946800000000 1.0
C      1  0.4677320000000  0.4168350000000  0.4405060000000 1.0
C      1  0.5170200000000  0.4265190000000  0.4292870000000 1.0
C      1  0.5552160000000  0.4201600000000  0.4757310000000 1.0
C      1  0.5847550000000  0.4509450000000  0.4732090000000 1.0
C      1  0.5793480000000  0.4468940000000  0.5525310000000 1.0
C      1  0.5061660000000  0.4434990000000  0.5894660000000 1.0
C      1  0.4346250000000  0.4466720000000  0.5623280000000 1.0
C      1  0.4114610000000  0.4455360000000  0.4862880000000 1.0
C      1  0.4523650000000  0.4514410000000  0.4192820000000 1.0
C      1  0.5340980000000  0.4481580000000  0.4198100000000 1.0
C      1  0.5144780000000  0.5153040000000  0.5656680000000 1.0
C      1  0.4597590000000  0.5273980000000  0.5618840000000 1.0
C      1  0.4276870000000  0.5195330000000  0.5085110000000 1.0
C      1  0.4531610000000  0.5175400000000  0.4512570000000 1.0
C      1  0.5092310000000  0.5162370000000  0.4329770000000 1.0
C      1  0.5623610000000  0.5272650000000  0.4615890000000 1.0
C      1  0.5701770000000  0.5190340000000  0.5264380000000 1.0
C      1  0.4286450000000  0.4979230000000  0.4898740000000 1.0
C      1  0.4673180000000  0.4964030000000  0.4375460000000 1.0
C      1  0.5283590000000  0.4936280000000  0.4369360000000 1.0
C      1  0.5663820000000  0.5046800000000  0.4798750000000 1.0
C      1  0.5557390000000  0.5001930000000  0.5440390000000 1.0
C      1  0.4998360000000  0.4918410000000  0.5712280000000 1.0
C      1  0.4520710000000  0.5012430000000  0.5522790000000 1.0
C      1  0.4768230000000  0.5223010000000  0.4750410000000 1.0
C      1  0.5028540000000  0.5261630000000  0.4590380000000 1.0
C      1  0.5188300000000  0.5202360000000  0.4836460000000 1.0
C      1  0.5422340000000  0.5059180000000  0.4954110000000 1.0
C      1  0.5126980000000  0.5211720000000  0.5397210000000 1.0
C      1  0.4894880000000  0.5171100000000  0.5228540000000 1.0
C      1  0.4671730000000  0.4986390000000  0.5276580000000 1.0
C      1  0.4477960000000  0.4992700000000  0.3989900000000 1.0
C      1  0.5439770000000  0.4974440000000  0.3979530000000 1.0
C      1  0.6080610000000  0.4980580000000  0.4707760000000 1.0
C      1  0.5918480000000  0.4973990000000  0.5669070000000 1.0
C      1  0.5065210000000  0.4980330000000  0.6117400000000 1.0
C      1  0.4166610000000  0.4976460000000  0.5742800000000 1.0
C      1  0.3890060000000  0.4986670000000  0.4790540000000 1.0
C      1  0.4828430000000  0.5477360000000  0.5249220000000 1.0
C      1  0.4582580000000  0.5480840000000  0.5112690000000 1.0
C      1  0.4713370000000  0.5492680000000  0.4860980000000 1.0
C      1  0.5099120000000  0.5535260000000  0.4516770000000 1.0
C      1  0.5208300000000  0.5476560000000  0.4895020000000 1.0
C      1  0.5416960000000  0.5436300000000  0.5081750000000 1.0
C      1  0.5271080000000  0.5434310000000  0.5324360000000 1.0
C      1  0.5350660000000  0.4799240000000  0.5080140000000 1.0
C      1  0.5283310000000  0.4821130000000  0.5362520000000 1.0
C      1  0.4948860000000  0.4793280000000  0.5448230000000 1.0
C      1  0.4614590000000  0.4790780000000  0.5067840000000 1.0
C      1  0.4677620000000  0.4740400000000  0.4796370000000 1.0
C      1  0.4831900000000  0.4808560000000  0.4563410000000 1.0
C      1  0.5268850000000  0.4809720000000  0.4631660000000 1.0
C      1  0.4954360000000  0.5082710000000  0.4954750000000 1.0
C      1  0.5051810000000  0.4300560000000  0.5069870000000 1.0
C      1  0.5075090000000  0.4807230000000  0.4905210000000 1.0
C      1  0.5017100000000  0.4551710000000  0.5003390000000 1.0
C      1  0.4950710000000  0.6169550000000  0.5005970000000 1.0
C      1  0.4961020000000  0.5576650000000  0.5002600000000 1.0
END
