TITL C-2441154-10-1324 0.0823947345149205 125000 -21588.1598911392 0 0 160 (C1) n - 1
REM
REM in /home/bkarasulu/work/CARBON/AIRSS/Generating-Clusters/ReaxFF-fromJPCA2015/Units_Real/with-SteepDescent/Higher-Symm
REM
REM
REM
REM
REM
REM ./C.cell (1df0a924f5614ab8850e4351716899ee)
REM
REM compiler GCC version 9.2.1 20190827 (Red Hat 9.2.1-1)
REM options -cpp -mtune=generic -march=x86-64 -g -O0 -fpre-include=/usr/include/finclude/math-vector-fortran.h
REM seed 710497799 -1863102187 1465694649 -786621494 1321053226 1647651929 106964551 297888825 -150298576 669916393 1034236133 768672318 1982160530 1687139914 -120471302 1569455143 1088521140 143744 1275438236 815718913 1922661686 -1146585169 -467162277 -184602087 -1224022012 -438961442 -1719864729 1834128153 1718725541 1591062406 -238536932 -230556951 965799251
REM
CELL 1.54180   50.00000   50.00000   50.00000   90.00000   90.00000   90.00000
LATT -1
SFAC C  
C      1  0.5198850000000  0.4230740000000  0.4896130000000 1.0
C      1  0.5680550000000  0.5709360000000  0.4896560000000 1.0
C      1  0.4199610000000  0.5178500000000  0.4883980000000 1.0
C      1  0.5178180000000  0.5204530000000  0.4885270000000 1.0
C      1  0.4942530000000  0.5057820000000  0.4811160000000 1.0
C      1  0.5058260000000  0.4753420000000  0.4880560000000 1.0
C      1  0.4580020000000  0.4926730000000  0.5295130000000 1.0
C      1  0.5298830000000  0.4699330000000  0.5299700000000 1.0
C      1  0.5102620000000  0.5384870000000  0.5330370000000 1.0
C      1  0.5134950000000  0.5989990000000  0.5027000000000 1.0
C      1  0.4089060000000  0.4647200000000  0.5008690000000 1.0
C      1  0.5804730000000  0.4419200000000  0.5014330000000 1.0
C      1  0.5753690000000  0.5296550000000  0.5118710000000 1.0
C      1  0.4359680000000  0.5541530000000  0.5211990000000 1.0
C      1  0.4846810000000  0.4188740000000  0.5230020000000 1.0
C      1  0.4525600000000  0.5205180000000  0.4553390000000 1.0
C      1  0.5048120000000  0.4456690000000  0.4558150000000 1.0
C      1  0.5472240000000  0.5314800000000  0.4587140000000 1.0
C      1  0.5275430000000  0.4883290000000  0.4538150000000 1.0
C      1  0.4962240000000  0.5180530000000  0.4524200000000 1.0
C      1  0.4762490000000  0.4740270000000  0.4496080000000 1.0
C      1  0.4580920000000  0.4912940000000  0.4061480000000 1.0
C      1  0.5300200000000  0.4671370000000  0.4105500000000 1.0
C      1  0.5116930000000  0.5401500000000  0.4096960000000 1.0
C      1  0.5009010000000  0.4600740000000  0.4040590000000 1.0
C      1  0.5345370000000  0.5201990000000  0.4043090000000 1.0
C      1  0.4636960000000  0.5213420000000  0.4036100000000 1.0
C      1  0.5305030000000  0.5554340000000  0.5432630000000 1.0
C      1  0.4346630000000  0.4972630000000  0.5473220000000 1.0
C      1  0.5349340000000  0.4403510000000  0.5387680000000 1.0
C      1  0.4532990000000  0.4922230000000  0.5864690000000 1.0
C      1  0.5323490000000  0.4626820000000  0.5873260000000 1.0
C      1  0.5146390000000  0.5476310000000  0.5863310000000 1.0
C      1  0.4350630000000  0.4026000000000  0.5254730000000 1.0
C      1  0.6117510000000  0.4949630000000  0.5223110000000 1.0
C      1  0.4492950000000  0.6049550000000  0.5233770000000 1.0
C      1  0.4293480000000  0.5282610000000  0.4355700000000 1.0
C      1  0.5095290000000  0.4232720000000  0.4346190000000 1.0
C      1  0.5605340000000  0.5474720000000  0.4350880000000 1.0
C      1  0.4913460000000  0.5198050000000  0.5467740000000 1.0
C      1  0.4857770000000  0.4906080000000  0.5440220000000 1.0
C      1  0.5336970000000  0.4912840000000  0.5489770000000 1.0
C      1  0.5567320000000  0.5823600000000  0.4651620000000 1.0
C      1  0.3982340000000  0.5097920000000  0.4661780000000 1.0
C      1  0.5348710000000  0.4046850000000  0.4699820000000 1.0
C      1  0.5754010000000  0.4733460000000  0.4296730000000 1.0
C      1  0.4865870000000  0.5795890000000  0.4258080000000 1.0
C      1  0.4358920000000  0.4507790000000  0.4265040000000 1.0
C      1  0.4405310000000  0.5021020000000  0.4743450000000 1.0
C      1  0.5226230000000  0.4521430000000  0.4777240000000 1.0
C      1  0.5275380000000  0.5433460000000  0.4757460000000 1.0
C      1  0.4162000000000  0.5383810000000  0.5307900000000 1.0
C      1  0.5097060000000  0.4074100000000  0.5306060000000 1.0
C      1  0.5736670000000  0.5512440000000  0.5307910000000 1.0
C      1  0.5040090000000  0.6001520000000  0.4721630000000 1.0
C      1  0.4115790000000  0.4562010000000  0.4730940000000 1.0
C      1  0.5933100000000  0.4613710000000  0.4817110000000 1.0
C      1  0.5457820000000  0.4810330000000  0.5068730000000 1.0
C      1  0.4915660000000  0.5489670000000  0.5101860000000 1.0
C      1  0.4592940000000  0.4683690000000  0.5106250000000 1.0
C      1  0.6143640000000  0.5112540000000  0.4974460000000 1.0
C      1  0.4420370000000  0.5916770000000  0.4989640000000 1.0
C      1  0.4502860000000  0.4059730000000  0.5009520000000 1.0
C      1  0.4944710000000  0.4469170000000  0.5245020000000 1.0
C      1  0.5465350000000  0.5237950000000  0.5165220000000 1.0
C      1  0.4567600000000  0.5221980000000  0.5160200000000 1.0
C      1  0.5106790000000  0.4022230000000  0.4542200000000 1.0
C      1  0.5767170000000  0.5659440000000  0.4496680000000 1.0
C      1  0.4076010000000  0.5339260000000  0.4534940000000 1.0
C      1  0.4921120000000  0.4092200000000  0.4776340000000 1.0
C      1  0.5895670000000  0.5574100000000  0.4757830000000 1.0
C      1  0.4252840000000  0.5493860000000  0.4765510000000 1.0
C      1  0.4805350000000  0.4010210000000  0.5025640000000 1.0
C      1  0.5977940000000  0.5349300000000  0.4931830000000 1.0
C      1  0.4238070000000  0.5660430000000  0.5008840000000 1.0
C      1  0.5342330000000  0.4174800000000  0.5154920000000 1.0
C      1  0.5628670000000  0.5757180000000  0.5179560000000 1.0
C      1  0.4061730000000  0.5177600000000  0.5129870000000 1.0
C      1  0.5114080000000  0.4252540000000  0.5539490000000 1.0
C      1  0.5583120000000  0.5411030000000  0.5544950000000 1.0
C      1  0.4344810000000  0.5266250000000  0.5537890000000 1.0
C      1  0.5624120000000  0.4397030000000  0.5515430000000 1.0
C      1  0.5217970000000  0.5824940000000  0.5499500000000 1.0
C      1  0.4118290000000  0.4809800000000  0.5401850000000 1.0
C      1  0.4584640000000  0.5673410000000  0.4257120000000 1.0
C      1  0.4660310000000  0.4461780000000  0.4327400000000 1.0
C      1  0.5771800000000  0.5033970000000  0.4276300000000 1.0
C      1  0.4905650000000  0.4359220000000  0.4172240000000 1.0
C      1  0.5620050000000  0.5256680000000  0.4163440000000 1.0
C      1  0.4462050000000  0.5422280000000  0.4167850000000 1.0
C      1  0.4456950000000  0.5459270000000  0.5761580000000 1.0
C      1  0.4889040000000  0.4308200000000  0.5730800000000 1.0
C      1  0.5680490000000  0.5218740000000  0.5766480000000 1.0
C      1  0.5498420000000  0.4859820000000  0.4735360000000 1.0
C      1  0.4829830000000  0.5634620000000  0.4817620000000 1.0
C      1  0.4586500000000  0.4550430000000  0.4818010000000 1.0
C      1  0.4423700000000  0.4326190000000  0.4897750000000 1.0
C      1  0.6068160000000  0.4826210000000  0.4957890000000 1.0
C      1  0.4699520000000  0.5877950000000  0.4905480000000 1.0
C      1  0.4741040000000  0.5024610000000  0.4448980000000 1.0
C      1  0.5042620000000  0.4719390000000  0.4479630000000 1.0
C      1  0.5237810000000  0.5153550000000  0.4462520000000 1.0
C      1  0.5429490000000  0.5164170000000  0.5422080000000 1.0
C      1  0.4645800000000  0.5311670000000  0.5427750000000 1.0
C      1  0.4960610000000  0.4635760000000  0.5471450000000 1.0
C      1  0.5583600000000  0.4226290000000  0.4682040000000 1.0
C      1  0.5274240000000  0.5871280000000  0.4611310000000 1.0
C      1  0.4022210000000  0.4813560000000  0.4599010000000 1.0
C      1  0.4917450000000  0.5212510000000  0.4034760000000 1.0
C      1  0.4854000000000  0.4847260000000  0.4022100000000 1.0
C      1  0.5263320000000  0.4934900000000  0.4040670000000 1.0
C      1  0.5788550000000  0.4512340000000  0.5298770000000 1.0
C      1  0.5011520000000  0.5923780000000  0.5294250000000 1.0
C      1  0.4179070000000  0.4544120000000  0.5273840000000 1.0
C      1  0.4548500000000  0.5748480000000  0.5376630000000 1.0
C      1  0.4546280000000  0.4239340000000  0.5394440000000 1.0
C      1  0.5885580000000  0.4973710000000  0.5400610000000 1.0
C      1  0.5653410000000  0.5101640000000  0.4729560000000 1.0
C      1  0.4552610000000  0.5513160000000  0.4689750000000 1.0
C      1  0.4785910000000  0.4350620000000  0.4691420000000 1.0
C      1  0.5831770000000  0.4980150000000  0.5695130000000 1.0
C      1  0.4578610000000  0.5705860000000  0.5674760000000 1.0
C      1  0.4595340000000  0.4279840000000  0.5691630000000 1.0
C      1  0.4822120000000  0.5712500000000  0.5277930000000 1.0
C      1  0.4460160000000  0.4497610000000  0.5283620000000 1.0
C      1  0.5721940000000  0.4791040000000  0.5245380000000 1.0
C      1  0.3990670000000  0.4898410000000  0.5154490000000 1.0
C      1  0.5624950000000  0.4205800000000  0.4968070000000 1.0
C      1  0.5383880000000  0.5900580000000  0.5116200000000 1.0
C      1  0.4794250000000  0.5240180000000  0.4997190000000 1.0
C      1  0.4882350000000  0.4666880000000  0.5071610000000 1.0
C      1  0.5320590000000  0.5071040000000  0.5049140000000 1.0
C      1  0.4877560000000  0.5467980000000  0.5807790000000 1.0
C      1  0.4606510000000  0.4685580000000  0.5739450000000 1.0
C      1  0.5451390000000  0.4862460000000  0.5792540000000 1.0
C      1  0.5876980000000  0.5038780000000  0.4554970000000 1.0
C      1  0.4556600000000  0.5763440000000  0.4529130000000 1.0
C      1  0.4562280000000  0.4266180000000  0.4521820000000 1.0
C      1  0.4373820000000  0.4794690000000  0.4248200000000 1.0
C      1  0.5507790000000  0.4576570000000  0.4307650000000 1.0
C      1  0.5087890000000  0.5615220000000  0.4298610000000 1.0
C      1  0.5736410000000  0.4720100000000  0.5784350000000 1.0
C      1  0.4843480000000  0.5746190000000  0.5794350000000 1.0
C      1  0.4396750000000  0.4459890000000  0.5794620000000 1.0
C      1  0.5101630000000  0.5608840000000  0.4605900000000 1.0
C      1  0.4305750000000  0.4863500000000  0.4526920000000 1.0
C      1  0.5489990000000  0.4494820000000  0.4589530000000 1.0
C      1  0.4668260000000  0.5337610000000  0.5920470000000 1.0
C      1  0.4849080000000  0.4552590000000  0.5877350000000 1.0
C      1  0.5468630000000  0.5120270000000  0.5924610000000 1.0
C      1  0.5210590000000  0.5213430000000  0.5958820000000 1.0
C      1  0.4733550000000  0.5073690000000  0.5970810000000 1.0
C      1  0.5067550000000  0.4719170000000  0.5949810000000 1.0
C      1  0.5568070000000  0.4485260000000  0.5788030000000 1.0
C      1  0.5136470000000  0.5760590000000  0.5773310000000 1.0
C      1  0.4351610000000  0.4715180000000  0.5888120000000 1.0
C      1  0.4293540000000  0.4389890000000  0.4525970000000 1.0
C      1  0.5907720000000  0.4739690000000  0.4553090000000 1.0
C      1  0.4806850000000  0.5931700000000  0.4517840000000 1.0
C      1  0.5011680000000  0.5005660000000  0.5975110000000 1.0
END
