TITL C-2441161-5029-636 0.131529298753001 125000 -22619.3924561882 0 0 175 (C1) n - 1
REM
REM in /home/bkarasulu/work/CARBON/AIRSS/Generating-Clusters/ReaxFF-fromJPCA2015/Units_Real/with-SteepDescent/Higher-Symm
REM
REM
REM
REM
REM
REM ./C.cell (1df0a924f5614ab8850e4351716899ee)
REM
REM compiler GCC version 9.2.1 20190827 (Red Hat 9.2.1-1)
REM options -cpp -mtune=generic -march=x86-64 -g -O0 -fpre-include=/usr/include/finclude/math-vector-fortran.h
REM seed 109884920 687377022 179325311 837069191 -1045336020 -1284880850 1672738529 -1373799009 1725527696 545411498 -1046640990 1194223997 -947249518 -1281407736 1866217200 -383350926 -2848652 1077321605 540734427 1254727150 1632653111 16651772 -490291714 733158721 37776374 -1836429479 -1931755225 339366110 1193974726 -36742033 -233846622 -247215874 311557312
REM
CELL 1.54180   50.00000   50.00000   50.00000   90.00000   90.00000   90.00000
LATT -1
SFAC C  
C      1  0.4761960000000  0.5080460000000  0.4806170000000 1.0
C      1  0.5022190000000  0.5196960000000  0.4848640000000 1.0
C      1  0.5227280000000  0.4979460000000  0.4846070000000 1.0
C      1  0.5081000000000  0.4688400000000  0.4789130000000 1.0
C      1  0.4815760000000  0.4803370000000  0.4779920000000 1.0
C      1  0.4819000000000  0.4889590000000  0.5223920000000 1.0
C      1  0.5022600000000  0.4674780000000  0.5198660000000 1.0
C      1  0.5329410000000  0.5041210000000  0.5145670000000 1.0
C      1  0.5124190000000  0.5211930000000  0.5200920000000 1.0
C      1  0.4877230000000  0.5152770000000  0.5206240000000 1.0
C      1  0.4779580000000  0.4869170000000  0.4011740000000 1.0
C      1  0.4802060000000  0.5183910000000  0.3980910000000 1.0
C      1  0.5097090000000  0.5228280000000  0.3995500000000 1.0
C      1  0.5255350000000  0.4989470000000  0.3967890000000 1.0
C      1  0.5072400000000  0.4746750000000  0.3982480000000 1.0
C      1  0.4770520000000  0.5087960000000  0.5997250000000 1.0
C      1  0.4826080000000  0.4800670000000  0.6021970000000 1.0
C      1  0.5119970000000  0.4791900000000  0.6016140000000 1.0
C      1  0.5256060000000  0.5038620000000  0.5990330000000 1.0
C      1  0.5021260000000  0.5227510000000  0.5985220000000 1.0
C      1  0.3968710000000  0.5122140000000  0.4950150000000 1.0
C      1  0.4807360000000  0.6030170000000  0.4986300000000 1.0
C      1  0.5933080000000  0.5510020000000  0.4966980000000 1.0
C      1  0.5786390000000  0.4264090000000  0.4963940000000 1.0
C      1  0.4522780000000  0.4015520000000  0.4963570000000 1.0
C      1  0.3963510000000  0.4839440000000  0.5045420000000 1.0
C      1  0.4798950000000  0.3949580000000  0.4988160000000 1.0
C      1  0.5925360000000  0.4505530000000  0.5038790000000 1.0
C      1  0.5774880000000  0.5737120000000  0.5000900000000 1.0
C      1  0.4544070000000  0.5937420000000  0.5042500000000 1.0
C      1  0.4548000000000  0.5868940000000  0.5358120000000 1.0
C      1  0.5666900000000  0.5744460000000  0.5380340000000 1.0
C      1  0.5868950000000  0.4573570000000  0.5332650000000 1.0
C      1  0.4915310000000  0.4051130000000  0.5384400000000 1.0
C      1  0.4031660000000  0.4840670000000  0.5347000000000 1.0
C      1  0.4544110000000  0.4108660000000  0.4655700000000 1.0
C      1  0.5665690000000  0.4189940000000  0.4682720000000 1.0
C      1  0.5821130000000  0.5412450000000  0.4661160000000 1.0
C      1  0.4905660000000  0.5955800000000  0.4593970000000 1.0
C      1  0.4041200000000  0.5152380000000  0.4656830000000 1.0
C      1  0.5771260000000  0.5271540000000  0.5645410000000 1.0
C      1  0.5531700000000  0.4386050000000  0.5642000000000 1.0
C      1  0.4528980000000  0.4331920000000  0.5642140000000 1.0
C      1  0.4173230000000  0.5238670000000  0.5634490000000 1.0
C      1  0.4953130000000  0.5855650000000  0.5651380000000 1.0
C      1  0.5782130000000  0.4747260000000  0.4348420000000 1.0
C      1  0.5533920000000  0.5629990000000  0.4347850000000 1.0
C      1  0.4529130000000  0.5673460000000  0.4349060000000 1.0
C      1  0.4191000000000  0.4769290000000  0.4337620000000 1.0
C      1  0.4964730000000  0.4203030000000  0.4325340000000 1.0
C      1  0.4868360000000  0.4287850000000  0.5004940000000 1.0
C      1  0.4382950000000  0.4930330000000  0.5089200000000 1.0
C      1  0.4744560000000  0.5551870000000  0.5189780000000 1.0
C      1  0.5449560000000  0.5450990000000  0.5197320000000 1.0
C      1  0.5583230000000  0.4769190000000  0.5020460000000 1.0
C      1  0.4904500000000  0.5606890000000  0.4826210000000 1.0
C      1  0.4429560000000  0.5085450000000  0.4880030000000 1.0
C      1  0.4643160000000  0.4447110000000  0.4940830000000 1.0
C      1  0.5422240000000  0.4413210000000  0.4968590000000 1.0
C      1  0.5556760000000  0.5313430000000  0.4793860000000 1.0
C      1  0.5313000000000  0.5805740000000  0.4412250000000 1.0
C      1  0.5909580000000  0.4990820000000  0.4429380000000 1.0
C      1  0.5243890000000  0.4151220000000  0.4424740000000 1.0
C      1  0.4228810000000  0.4488470000000  0.4420220000000 1.0
C      1  0.4296000000000  0.5517960000000  0.4434810000000 1.0
C      1  0.5300970000000  0.4213810000000  0.5563640000000 1.0
C      1  0.5889080000000  0.5018240000000  0.5554550000000 1.0
C      1  0.5243390000000  0.5834030000000  0.5564460000000 1.0
C      1  0.4274420000000  0.5501780000000  0.5540940000000 1.0
C      1  0.4304970000000  0.4493860000000  0.5542050000000 1.0
C      1  0.5511620000000  0.5049410000000  0.4072030000000 1.0
C      1  0.5104880000000  0.4482660000000  0.4048450000000 1.0
C      1  0.4577660000000  0.4718690000000  0.4092860000000 1.0
C      1  0.4670320000000  0.5398800000000  0.4087990000000 1.0
C      1  0.5267930000000  0.5369060000000  0.4189700000000 1.0
C      1  0.5521520000000  0.5042630000000  0.5878400000000 1.0
C      1  0.4984310000000  0.5474980000000  0.5833120000000 1.0
C      1  0.4537120000000  0.5145770000000  0.5827030000000 1.0
C      1  0.4663530000000  0.4580720000000  0.5936650000000 1.0
C      1  0.5299530000000  0.4656440000000  0.5840290000000 1.0
C      1  0.4611600000000  0.5861470000000  0.4559960000000 1.0
C      1  0.5719430000000  0.5671530000000  0.4553790000000 1.0
C      1  0.5775170000000  0.4597590000000  0.4595210000000 1.0
C      1  0.4811910000000  0.4069410000000  0.4533210000000 1.0
C      1  0.4067500000000  0.4864590000000  0.4592680000000 1.0
C      1  0.4621230000000  0.4140820000000  0.5428400000000 1.0
C      1  0.5709640000000  0.4351100000000  0.5411770000000 1.0
C      1  0.5821080000000  0.5481430000000  0.5436030000000 1.0
C      1  0.4801760000000  0.5978940000000  0.5430850000000 1.0
C      1  0.4002590000000  0.5117480000000  0.5423330000000 1.0
C      1  0.5578840000000  0.5207980000000  0.5082910000000 1.0
C      1  0.5358250000000  0.4629840000000  0.5144460000000 1.0
C      1  0.4797450000000  0.4499670000000  0.5163040000000 1.0
C      1  0.4382610000000  0.5200840000000  0.5141660000000 1.0
C      1  0.5004170000000  0.5640530000000  0.5097430000000 1.0
C      1  0.5556480000000  0.4612820000000  0.4783840000000 1.0
C      1  0.5385440000000  0.5520400000000  0.4926840000000 1.0
C      1  0.4650280000000  0.5523210000000  0.4924150000000 1.0
C      1  0.4347260000000  0.4813600000000  0.4835660000000 1.0
C      1  0.5061880000000  0.4383750000000  0.4824580000000 1.0
C      1  0.5051790000000  0.4619050000000  0.5460160000000 1.0
C      1  0.4663620000000  0.4851190000000  0.5459360000000 1.0
C      1  0.4756400000000  0.5329290000000  0.5395500000000 1.0
C      1  0.5215360000000  0.5373010000000  0.5394430000000 1.0
C      1  0.5374300000000  0.4947930000000  0.5426900000000 1.0
C      1  0.5033270000000  0.5411560000000  0.4646700000000 1.0
C      1  0.4671970000000  0.5194810000000  0.4553600000000 1.0
C      1  0.4693800000000  0.4725120000000  0.4543480000000 1.0
C      1  0.5172770000000  0.4671030000000  0.4511960000000 1.0
C      1  0.5376960000000  0.5094220000000  0.4600510000000 1.0
C      1  0.5341780000000  0.5197090000000  0.5562100000000 1.0
C      1  0.5242680000000  0.4745280000000  0.5572160000000 1.0
C      1  0.4810800000000  0.4631320000000  0.5572170000000 1.0
C      1  0.4620020000000  0.5119250000000  0.5546250000000 1.0
C      1  0.4984570000000  0.5412690000000  0.5548630000000 1.0
C      1  0.5370340000000  0.4848860000000  0.4429460000000 1.0
C      1  0.5236880000000  0.5313240000000  0.4468040000000 1.0
C      1  0.4832850000000  0.5385860000000  0.4471220000000 1.0
C      1  0.4578000000000  0.4965110000000  0.4424790000000 1.0
C      1  0.4917500000000  0.4617910000000  0.4406370000000 1.0
C      1  0.5143980000000  0.6005410000000  0.4783310000000 1.0
C      1  0.6026560000000  0.5038120000000  0.4884360000000 1.0
C      1  0.5448770000000  0.4018140000000  0.4786160000000 1.0
C      1  0.4178490000000  0.4310050000000  0.4879920000000 1.0
C      1  0.4110970000000  0.5594670000000  0.4879690000000 1.0
C      1  0.5141190000000  0.4016250000000  0.5183740000000 1.0
C      1  0.6068540000000  0.4930480000000  0.5135190000000 1.0
C      1  0.5472050000000  0.5904410000000  0.5193990000000 1.0
C      1  0.4210240000000  0.5707580000000  0.5119850000000 1.0
C      1  0.4054570000000  0.4436850000000  0.5112600000000 1.0
C      1  0.4211380000000  0.4321300000000  0.5320160000000 1.0
C      1  0.4094670000000  0.5532020000000  0.5311090000000 1.0
C      1  0.5250220000000  0.6014100000000  0.5330780000000 1.0
C      1  0.6062810000000  0.5117850000000  0.5342990000000 1.0
C      1  0.5385390000000  0.4070730000000  0.5312350000000 1.0
C      1  0.4213110000000  0.5707890000000  0.4644430000000 1.0
C      1  0.4044470000000  0.4440980000000  0.4654750000000 1.0
C      1  0.5223020000000  0.3939830000000  0.4634230000000 1.0
C      1  0.6064830000000  0.4887210000000  0.4656690000000 1.0
C      1  0.5396720000000  0.5965270000000  0.4654850000000 1.0
C      1  0.5456760000000  0.5640780000000  0.5549080000000 1.0
C      1  0.5777440000000  0.4749660000000  0.5550720000000 1.0
C      1  0.5019410000000  0.4197950000000  0.5597870000000 1.0
C      1  0.4225930000000  0.4774100000000  0.5554590000000 1.0
C      1  0.4518900000000  0.5667570000000  0.5564160000000 1.0
C      1  0.5494360000000  0.4267210000000  0.4475430000000 1.0
C      1  0.5788960000000  0.5246620000000  0.4409470000000 1.0
C      1  0.5027080000000  0.5809450000000  0.4385520000000 1.0
C      1  0.4216690000000  0.5239180000000  0.4441330000000 1.0
C      1  0.4411060000000  0.4300180000000  0.4519910000000 1.0
C      1  0.5990010000000  0.5384680000000  0.5227750000000 1.0
C      1  0.5642230000000  0.4171660000000  0.5197400000000 1.0
C      1  0.4425660000000  0.4114000000000  0.5224200000000 1.0
C      1  0.3961500000000  0.5289740000000  0.5194820000000 1.0
C      1  0.4972930000000  0.6075480000000  0.5212630000000 1.0
C      1  0.5991140000000  0.4632460000000  0.4779150000000 1.0
C      1  0.5653020000000  0.5858300000000  0.4767210000000 1.0
C      1  0.4423830000000  0.5877230000000  0.4765760000000 1.0
C      1  0.3950850000000  0.4678010000000  0.4800140000000 1.0
C      1  0.4950670000000  0.3915310000000  0.4736030000000 1.0
C      1  0.5517920000000  0.5303600000000  0.5755950000000 1.0
C      1  0.5584170000000  0.4652780000000  0.5763550000000 1.0
C      1  0.4779850000000  0.4396690000000  0.5750950000000 1.0
C      1  0.4288680000000  0.4999360000000  0.5756500000000 1.0
C      1  0.4761560000000  0.5667460000000  0.5762710000000 1.0
C      1  0.5538810000000  0.4797430000000  0.4201560000000 1.0
C      1  0.5582350000000  0.5312010000000  0.4200040000000 1.0
C      1  0.4797530000000  0.5583620000000  0.4272040000000 1.0
C      1  0.4338040000000  0.5007650000000  0.4269200000000 1.0
C      1  0.4853750000000  0.4442280000000  0.4177640000000 1.0
C      1  0.4362800000000  0.5465840000000  0.4989660000000 1.0
C      1  0.5780400000000  0.4985600000000  0.5067220000000 1.0
C      1  0.5259410000000  0.4199440000000  0.4935640000000 1.0
C      1  0.4386950000000  0.4536300000000  0.4906980000000 1.0
C      1  0.5255830000000  0.5789910000000  0.4992560000000 1.0
END
