TITL C-2441168-9922-125 0.0512941438896412 125000 -9813.69100869521 0 0 77 (C1) n - 1
REM
REM in /home/bkarasulu/work/CARBON/AIRSS/Generating-Clusters/ReaxFF-fromJPCA2015/Units_Real/with-SteepDescent/Higher-Symm
REM
REM
REM
REM
REM
REM ./C.cell (1df0a924f5614ab8850e4351716899ee)
REM
REM compiler GCC version 9.2.1 20190827 (Red Hat 9.2.1-1)
REM options -cpp -mtune=generic -march=x86-64 -g -O0 -fpre-include=/usr/include/finclude/math-vector-fortran.h
REM seed 708375478 -1166065864 -773675305 -958305416 110717539 301308210 -484975624 1736815802 1312854249 1158988504 -1306715867 1781635693 762627838 606052212 -1432663832 -119228724 845674429 1222440508 -484540642 1241535986 -1613857658 -1975793423 99285591 2008151169 1538597219 -1836699816 -137605067 -1332749890 -861995699 -135753612 1597407533 -1328775110 -667814190
REM
CELL 1.54180   50.00000   50.00000   50.00000   90.00000   90.00000   90.00000
LATT -1
SFAC C  
C      1  0.4219840000000  0.4883160000000  0.5024560000000 1.0
C      1  0.5061770000000  0.5743660000000  0.4856870000000 1.0
C      1  0.4848200000000  0.5117660000000  0.4365380000000 1.0
C      1  0.5193910000000  0.5583870000000  0.5516370000000 1.0
C      1  0.4838550000000  0.4415110000000  0.4461410000000 1.0
C      1  0.5627010000000  0.4604480000000  0.4875280000000 1.0
C      1  0.5124850000000  0.4789240000000  0.4936650000000 1.0
C      1  0.5566750000000  0.4563300000000  0.4586730000000 1.0
C      1  0.5176910000000  0.5268340000000  0.4533580000000 1.0
C      1  0.4677250000000  0.4293990000000  0.4711880000000 1.0
C      1  0.5049430000000  0.5150790000000  0.5684350000000 1.0
C      1  0.5221280000000  0.4739850000000  0.5201780000000 1.0
C      1  0.4761480000000  0.5196040000000  0.5703540000000 1.0
C      1  0.5295780000000  0.4899100000000  0.5455720000000 1.0
C      1  0.5750550000000  0.4848980000000  0.4966910000000 1.0
C      1  0.5002600000000  0.5242220000000  0.4741220000000 1.0
C      1  0.4476190000000  0.4782280000000  0.4487670000000 1.0
C      1  0.4668350000000  0.5485020000000  0.5601830000000 1.0
C      1  0.5525420000000  0.5448220000000  0.4485280000000 1.0
C      1  0.5235950000000  0.5195440000000  0.5194510000000 1.0
C      1  0.5485660000000  0.5496130000000  0.4813360000000 1.0
C      1  0.4449100000000  0.5600390000000  0.5075270000000 1.0
C      1  0.5235590000000  0.5293590000000  0.5477710000000 1.0
C      1  0.4897310000000  0.5510370000000  0.4741330000000 1.0
C      1  0.4816000000000  0.4290370000000  0.4966230000000 1.0
C      1  0.4440820000000  0.4998570000000  0.4321880000000 1.0
C      1  0.5355500000000  0.4499050000000  0.5301950000000 1.0
C      1  0.5043040000000  0.4629700000000  0.4411540000000 1.0
C      1  0.4863990000000  0.4822260000000  0.5438060000000 1.0
C      1  0.4900370000000  0.4996280000000  0.4879240000000 1.0
C      1  0.4250650000000  0.5155770000000  0.5123250000000 1.0
C      1  0.4724500000000  0.4605520000000  0.5347230000000 1.0
C      1  0.4575780000000  0.5601910000000  0.5346880000000 1.0
C      1  0.4702390000000  0.4515600000000  0.5095760000000 1.0
C      1  0.4378590000000  0.5227930000000  0.4468210000000 1.0
C      1  0.5154690000000  0.4871960000000  0.5713280000000 1.0
C      1  0.4605880000000  0.5213260000000  0.4284810000000 1.0
C      1  0.4597880000000  0.4546150000000  0.4414610000000 1.0
C      1  0.5052750000000  0.4604060000000  0.5575850000000 1.0
C      1  0.4741850000000  0.5218520000000  0.5290990000000 1.0
C      1  0.4588750000000  0.4979960000000  0.4855670000000 1.0
C      1  0.5346770000000  0.4236450000000  0.4898600000000 1.0
C      1  0.5296190000000  0.5632660000000  0.4987420000000 1.0
C      1  0.4652120000000  0.4929470000000  0.5633330000000 1.0
C      1  0.4805620000000  0.5481260000000  0.5216520000000 1.0
C      1  0.4827040000000  0.4411910000000  0.5560450000000 1.0
C      1  0.5805790000000  0.5295270000000  0.5152880000000 1.0
C      1  0.5703600000000  0.4858400000000  0.5253620000000 1.0
C      1  0.5379040000000  0.4726640000000  0.4434080000000 1.0
C      1  0.5431240000000  0.5228380000000  0.4957760000000 1.0
C      1  0.4413150000000  0.4894110000000  0.5467860000000 1.0
C      1  0.4936850000000  0.5558030000000  0.5627650000000 1.0
C      1  0.4958030000000  0.5059550000000  0.5204560000000 1.0
C      1  0.4699610000000  0.5515370000000  0.4952110000000 1.0
C      1  0.4989500000000  0.5871680000000  0.5130970000000 1.0
C      1  0.5695900000000  0.5124850000000  0.5385450000000 1.0
C      1  0.5581790000000  0.5378760000000  0.5311740000000 1.0
C      1  0.5518090000000  0.5198370000000  0.4355790000000 1.0
C      1  0.4389850000000  0.4766610000000  0.4773150000000 1.0
C      1  0.5120720000000  0.5129410000000  0.4297480000000 1.0
C      1  0.5513180000000  0.4814260000000  0.5614680000000 1.0
C      1  0.5128270000000  0.4563000000000  0.4749000000000 1.0
C      1  0.4450580000000  0.5215890000000  0.4751170000000 1.0
C      1  0.5515630000000  0.4935830000000  0.4417080000000 1.0
C      1  0.4453310000000  0.5152910000000  0.5342880000000 1.0
C      1  0.5270030000000  0.5537160000000  0.4569410000000 1.0
C      1  0.5089110000000  0.4350230000000  0.4956670000000 1.0
C      1  0.5515130000000  0.4409040000000  0.5067810000000 1.0
C      1  0.4309330000000  0.4720090000000  0.5242770000000 1.0
C      1  0.5227650000000  0.5739710000000  0.5256370000000 1.0
C      1  0.4956860000000  0.4877360000000  0.4291990000000 1.0
C      1  0.5352500000000  0.4368410000000  0.4643210000000 1.0
C      1  0.4301670000000  0.5378200000000  0.4946250000000 1.0
C      1  0.4443890000000  0.4453090000000  0.4793130000000 1.0
C      1  0.4427520000000  0.4498850000000  0.5082150000000 1.0
C      1  0.5707870000000  0.5137230000000  0.4921890000000 1.0
C      1  0.5603430000000  0.4623450000000  0.5417510000000 1.0
END
