TITL C-2441169-1362-1131 0.00520007831170938 125000 -6807.59067999887 0 0 49 (C1) n - 1
REM
REM in /home/bkarasulu/work/CARBON/AIRSS/Generating-Clusters/ReaxFF-fromJPCA2015/Units_Real/with-SteepDescent/Higher-Symm
REM
REM
REM
REM
REM
REM ./C.cell (1df0a924f5614ab8850e4351716899ee)
REM
REM compiler GCC version 9.2.1 20190827 (Red Hat 9.2.1-1)
REM options -cpp -mtune=generic -march=x86-64 -g -O0 -fpre-include=/usr/include/finclude/math-vector-fortran.h
REM seed -1841523029 -277367369 2016439647 1139928493 241962951 -1836924598 250288287 242553262 1767674516 1881214310 1684135183 182477406 -1784625527 1068998886 1519028175 -528240749 1087199505 -449211552 -856148746 1848959904 44642529 -1018911798 576750311 1263757102 1183821654 -1276560580 -1964744302 1565097439 -450305099 -1946976793 -854921826 -594466261 -1835098440
REM
CELL 1.54180   50.00000   50.00000   50.00000   90.00000   90.00000   90.00000
LATT -1
SFAC C  
C      1  0.4327180000000  0.4911000000000  0.5073080000000 1.0
C      1  0.4747440000000  0.4967550000000  0.4471170000000 1.0
C      1  0.5474050000000  0.4929380000000  0.4564810000000 1.0
C      1  0.5583830000000  0.4955850000000  0.5315650000000 1.0
C      1  0.4880390000000  0.4937490000000  0.5612940000000 1.0
C      1  0.5450970000000  0.4564530000000  0.5008010000000 1.0
C      1  0.5235870000000  0.4559140000000  0.5489030000000 1.0
C      1  0.4603210000000  0.4518300000000  0.5213760000000 1.0
C      1  0.4604260000000  0.4506970000000  0.4645930000000 1.0
C      1  0.5151660000000  0.4504560000000  0.4601540000000 1.0
C      1  0.4893750000000  0.4523570000000  0.5250450000000 1.0
C      1  0.4568400000000  0.4580080000000  0.4934580000000 1.0
C      1  0.4879930000000  0.4477860000000  0.4599890000000 1.0
C      1  0.5260660000000  0.4408760000000  0.4883800000000 1.0
C      1  0.5270610000000  0.4369590000000  0.5305160000000 1.0
C      1  0.5126100000000  0.5073590000000  0.4849440000000 1.0
C      1  0.5144950000000  0.4998560000000  0.5132900000000 1.0
C      1  0.4932670000000  0.4810240000000  0.5191220000000 1.0
C      1  0.4757510000000  0.4803370000000  0.4964750000000 1.0
C      1  0.4885130000000  0.4949030000000  0.4748830000000 1.0
C      1  0.4474760000000  0.4768570000000  0.5301580000000 1.0
C      1  0.4509950000000  0.4781960000000  0.4581690000000 1.0
C      1  0.5238830000000  0.4766650000000  0.4487520000000 1.0
C      1  0.5606380000000  0.4785560000000  0.5060430000000 1.0
C      1  0.5160030000000  0.4798200000000  0.5610190000000 1.0
C      1  0.5038120000000  0.4931960000000  0.4355050000000 1.0
C      1  0.5633390000000  0.4947720000000  0.4809230000000 1.0
C      1  0.5394550000000  0.4972380000000  0.5534850000000 1.0
C      1  0.4625840000000  0.4953980000000  0.5473420000000 1.0
C      1  0.4368900000000  0.4945170000000  0.4773270000000 1.0
C      1  0.4413400000000  0.5229270000000  0.4689410000000 1.0
C      1  0.5168420000000  0.5185670000000  0.4295330000000 1.0
C      1  0.5681570000000  0.5213500000000  0.4918450000000 1.0
C      1  0.5290180000000  0.5224730000000  0.5645680000000 1.0
C      1  0.4532150000000  0.5244810000000  0.5411810000000 1.0
C      1  0.4991950000000  0.5192230000000  0.5695620000000 1.0
C      1  0.4375860000000  0.5156940000000  0.5194090000000 1.0
C      1  0.4632780000000  0.5254670000000  0.4496990000000 1.0
C      1  0.5437060000000  0.5188750000000  0.4427380000000 1.0
C      1  0.5662370000000  0.5214710000000  0.5211780000000 1.0
C      1  0.4631030000000  0.5419010000000  0.4726700000000 1.0
C      1  0.5246640000000  0.5416340000000  0.4479290000000 1.0
C      1  0.5469050000000  0.5369830000000  0.5050450000000 1.0
C      1  0.5101230000000  0.5428320000000  0.5533090000000 1.0
C      1  0.4677370000000  0.5437950000000  0.5248830000000 1.0
C      1  0.5194450000000  0.5277930000000  0.5048180000000 1.0
C      1  0.4972750000000  0.5718770000000  0.4971370000000 1.0
C      1  0.5071740000000  0.4335780000000  0.5105250000000 1.0
C      1  0.4814140000000  0.5503910000000  0.4983990000000 1.0
END
