TITL C-2441163-1170-1019 0.000828639576713424 125000 -3782.24616916357 0 0 27 (C1) n - 1
REM
REM in /home/bkarasulu/work/CARBON/AIRSS/Generating-Clusters/ReaxFF-fromJPCA2015/Units_Real/with-SteepDescent/Higher-Symm
REM
REM
REM
REM
REM
REM ./C.cell (1df0a924f5614ab8850e4351716899ee)
REM
REM compiler GCC version 9.2.1 20190827 (Red Hat 9.2.1-1)
REM options -cpp -mtune=generic -march=x86-64 -g -O0 -fpre-include=/usr/include/finclude/math-vector-fortran.h
REM seed 574356699 -755120119 -1068999525 219726267 283554809 -486263245 1850928522 970361685 -1454773266 1435818385 764446369 -1087856975 -953298838 -537115561 1867816955 1227771424 256992447 -1846640234 1087278161 -279794906 -1186708357 1276825423 956966186 371979502 1414547491 1134717506 -880778319 -1963003911 250857411 -609022224 -143473742 1757393799 170499000
REM
CELL 1.54180   50.00000   50.00000   50.00000   90.00000   90.00000   90.00000
LATT -1
SFAC C  
C      1  0.5354650000000  0.5273990000000  0.5079150000000 1.0
C      1  0.5039230000000  0.5196750000000  0.5482780000000 1.0
C      1  0.4582980000000  0.5203910000000  0.5171610000000 1.0
C      1  0.4720820000000  0.5207910000000  0.4637730000000 1.0
C      1  0.5270510000000  0.5186200000000  0.4584310000000 1.0
C      1  0.5222330000000  0.4940930000000  0.5510720000000 1.0
C      1  0.4583370000000  0.4957160000000  0.5350540000000 1.0
C      1  0.4542850000000  0.4962310000000  0.4699970000000 1.0
C      1  0.5148170000000  0.4948870000000  0.4448790000000 1.0
C      1  0.5523740000000  0.4929900000000  0.4925870000000 1.0
C      1  0.5457110000000  0.5173090000000  0.4814400000000 1.0
C      1  0.5300230000000  0.5194610000000  0.5365270000000 1.0
C      1  0.4762760000000  0.5203990000000  0.5399100000000 1.0
C      1  0.4564600000000  0.5205180000000  0.4881560000000 1.0
C      1  0.4988760000000  0.5206820000000  0.4530300000000 1.0
C      1  0.4784190000000  0.4506160000000  0.4854680000000 1.0
C      1  0.5069780000000  0.4500680000000  0.4744140000000 1.0
C      1  0.5262660000000  0.4489010000000  0.4975360000000 1.0
C      1  0.5102810000000  0.4497670000000  0.5229590000000 1.0
C      1  0.4804190000000  0.4504610000000  0.5157980000000 1.0
C      1  0.5433340000000  0.4703280000000  0.4957850000000 1.0
C      1  0.5166970000000  0.4714880000000  0.5380610000000 1.0
C      1  0.4685560000000  0.4724490000000  0.5261630000000 1.0
C      1  0.4652600000000  0.4727330000000  0.4770530000000 1.0
C      1  0.5111650000000  0.4717000000000  0.4582680000000 1.0
C      1  0.5124260000000  0.5421030000000  0.5033340000000 1.0
C      1  0.4928780000000  0.5549220000000  0.4979460000000 1.0
END
