TITL C-2441164-471-117 0.0104229224602025 125000 -5337.15189361646 0 0 38 (Cs) n - 1
REM
REM in /home/bkarasulu/work/CARBON/AIRSS/Generating-Clusters/ReaxFF-fromJPCA2015/Units_Real/with-SteepDescent/Higher-Symm
REM
REM
REM
REM
REM
REM ./C.cell (1df0a924f5614ab8850e4351716899ee)
REM
REM compiler GCC version 9.2.1 20190827 (Red Hat 9.2.1-1)
REM options -cpp -mtune=generic -march=x86-64 -g -O0 -fpre-include=/usr/include/finclude/math-vector-fortran.h
REM seed -816968041 -1342228157 404287035 1353800850 377330000 1105634304 -1499074309 1365555114 1217587390 -1079279092 1429313714 2142849595 1823534661 -1942298342 461548958 -1976933467 1471495908 1210831933 299221391 -483322518 99118730 1281950642 763995295 -1551788951 -1169437250 -607365287 29818176 1633309392 1546434716 -841244798 -574119229 -838407440 -1185599860
REM
CELL 1.54180   50.00000   50.00000   50.00000   90.00000   90.00000   90.00000
LATT -1
SFAC C  
C      1  0.5571540000000  0.5270740000000  0.5145100000000 1.0
C      1  0.5570510000000  0.5269720000000  0.4855480000000 1.0
C      1  0.5046750000000  0.4740180000000  0.5520360000000 1.0
C      1  0.5045860000000  0.4741010000000  0.4480780000000 1.0
C      1  0.4936890000000  0.4415590000000  0.5204590000000 1.0
C      1  0.4938030000000  0.4413910000000  0.4794420000000 1.0
C      1  0.4637260000000  0.4496870000000  0.4729570000000 1.0
C      1  0.4636780000000  0.4496350000000  0.5274040000000 1.0
C      1  0.5685570000000  0.5001070000000  0.4852430000000 1.0
C      1  0.5685940000000  0.5001660000000  0.5148590000000 1.0
C      1  0.4630120000000  0.4982720000000  0.5408780000000 1.0
C      1  0.4629690000000  0.4984170000000  0.4587220000000 1.0
C      1  0.5045690000000  0.5645130000000  0.5114480000000 1.0
C      1  0.5045520000000  0.5644950000000  0.4885260000000 1.0
C      1  0.4506910000000  0.5243770000000  0.4626950000000 1.0
C      1  0.4507170000000  0.5243490000000  0.5373140000000 1.0
C      1  0.4871100000000  0.4505630000000  0.5469110000000 1.0
C      1  0.4869140000000  0.4507090000000  0.4531750000000 1.0
C      1  0.5494340000000  0.4925490000000  0.5359660000000 1.0
C      1  0.5494720000000  0.4924420000000  0.4641110000000 1.0
C      1  0.5085660000000  0.5225050000000  0.4623520000000 1.0
C      1  0.5087030000000  0.5223630000000  0.5374910000000 1.0
C      1  0.4964320000000  0.5489800000000  0.4655780000000 1.0
C      1  0.4964110000000  0.5487780000000  0.5342670000000 1.0
C      1  0.4928830000000  0.4994720000000  0.5453180000000 1.0
C      1  0.4928070000000  0.4996100000000  0.4544550000000 1.0
C      1  0.4673500000000  0.5468270000000  0.4637540000000 1.0
C      1  0.4673170000000  0.5468100000000  0.5362350000000 1.0
C      1  0.5376370000000  0.5194120000000  0.4649170000000 1.0
C      1  0.5379330000000  0.5196580000000  0.5353540000000 1.0
C      1  0.5180520000000  0.4569100000000  0.4854850000000 1.0
C      1  0.5177700000000  0.4573330000000  0.5143320000000 1.0
C      1  0.4544090000000  0.4741740000000  0.4689020000000 1.0
C      1  0.4540370000000  0.4740990000000  0.5309710000000 1.0
C      1  0.5298960000000  0.4709030000000  0.5373020000000 1.0
C      1  0.5299040000000  0.4708470000000  0.4625600000000 1.0
C      1  0.4531670000000  0.5374580000000  0.4862270000000 1.0
C      1  0.4517730000000  0.5384630000000  0.5142190000000 1.0
END
