TITL C-2441160-1326-1112 0.00929557879120731 125000 -7808.22241756316 0 0 58 (C1) n - 1
REM
REM in /home/bkarasulu/work/CARBON/AIRSS/Generating-Clusters/ReaxFF-fromJPCA2015/Units_Real/with-SteepDescent/Higher-Symm
REM
REM
REM
REM
REM
REM ./C.cell (1df0a924f5614ab8850e4351716899ee)
REM
REM compiler GCC version 9.2.1 20190827 (Red Hat 9.2.1-1)
REM options -cpp -mtune=generic -march=x86-64 -g -O0 -fpre-include=/usr/include/finclude/math-vector-fortran.h
REM seed 1189986135 368803484 81283454 -974032469 -719128398 -2136078726 368781921 -2009355156 -940055550 1936358887 -1036983185 -402929405 -1126139193 -1650662562 1797324676 2018219093 1597845619 94976568 -1473519362 172973373 616517214 1220332972 343455409 -1278041762 -1944516918 1870499358 1833057088 -1533901105 633323049 1005002113 1862687704 -1110629691 1824174343
REM
CELL 1.54180   50.00000   50.00000   50.00000   90.00000   90.00000   90.00000
LATT -1
SFAC C  
C      1  0.5237910000000  0.4564410000000  0.4498020000000 1.0
C      1  0.4656310000000  0.4612200000000  0.4483760000000 1.0
C      1  0.4494480000000  0.5166300000000  0.4460540000000 1.0
C      1  0.5069830000000  0.5485050000000  0.4513250000000 1.0
C      1  0.5494080000000  0.5090660000000  0.4485730000000 1.0
C      1  0.5238980000000  0.4569360000000  0.5483780000000 1.0
C      1  0.4657360000000  0.4612340000000  0.5499090000000 1.0
C      1  0.4495020000000  0.5166180000000  0.5522110000000 1.0
C      1  0.5070390000000  0.5484380000000  0.5469850000000 1.0
C      1  0.5495920000000  0.5090790000000  0.5499640000000 1.0
C      1  0.4885260000000  0.5809670000000  0.4874670000000 1.0
C      1  0.5739600000000  0.5354920000000  0.4870950000000 1.0
C      1  0.5576030000000  0.4396140000000  0.4874390000000 1.0
C      1  0.4595960000000  0.4253460000000  0.4873830000000 1.0
C      1  0.4180520000000  0.5118910000000  0.4874390000000 1.0
C      1  0.4885070000000  0.5809480000000  0.5108170000000 1.0
C      1  0.5741030000000  0.5353700000000  0.5107540000000 1.0
C      1  0.5576480000000  0.4396040000000  0.5108900000000 1.0
C      1  0.4596120000000  0.4253630000000  0.5108960000000 1.0
C      1  0.4180410000000  0.5118980000000  0.5108360000000 1.0
C      1  0.5325010000000  0.4380900000000  0.5246600000000 1.0
C      1  0.4507390000000  0.4487380000000  0.5245170000000 1.0
C      1  0.4371980000000  0.5283480000000  0.5247960000000 1.0
C      1  0.5108590000000  0.5687130000000  0.5246700000000 1.0
C      1  0.5676830000000  0.5125940000000  0.5257650000000 1.0
C      1  0.5324340000000  0.4380360000000  0.4735250000000 1.0
C      1  0.4506770000000  0.4487020000000  0.4737410000000 1.0
C      1  0.4372180000000  0.5283250000000  0.4734420000000 1.0
C      1  0.5109520000000  0.5688650000000  0.4736240000000 1.0
C      1  0.5672520000000  0.5125770000000  0.4738400000000 1.0
C      1  0.4566810000000  0.4884500000000  0.5454820000000 1.0
C      1  0.4684820000000  0.5365910000000  0.5521790000000 1.0
C      1  0.5300630000000  0.5303680000000  0.5446460000000 1.0
C      1  0.5400420000000  0.4809770000000  0.5464800000000 1.0
C      1  0.4948040000000  0.4552710000000  0.5456480000000 1.0
C      1  0.4567380000000  0.4885270000000  0.4526820000000 1.0
C      1  0.4683730000000  0.5366630000000  0.4459940000000 1.0
C      1  0.5301140000000  0.5304420000000  0.4534060000000 1.0
C      1  0.5398590000000  0.4807690000000  0.4517810000000 1.0
C      1  0.4947300000000  0.4551380000000  0.4524870000000 1.0
C      1  0.4869920000000  0.5374830000000  0.5318420000000 1.0
C      1  0.5201170000000  0.5137900000000  0.5231260000000 1.0
C      1  0.5345120000000  0.4896220000000  0.5184260000000 1.0
C      1  0.4928930000000  0.4682900000000  0.5196510000000 1.0
C      1  0.4753420000000  0.4909710000000  0.5230810000000 1.0
C      1  0.4867920000000  0.5375100000000  0.4663510000000 1.0
C      1  0.5198880000000  0.5139510000000  0.4753370000000 1.0
C      1  0.5311140000000  0.4883940000000  0.4787260000000 1.0
C      1  0.4926710000000  0.4681480000000  0.4784690000000 1.0
C      1  0.4754130000000  0.4909660000000  0.4750650000000 1.0
C      1  0.4472130000000  0.5366870000000  0.4991340000000 1.0
C      1  0.4441900000000  0.4604030000000  0.4991330000000 1.0
C      1  0.5623280000000  0.4979300000000  0.5007350000000 1.0
C      1  0.5201780000000  0.4320910000000  0.4991550000000 1.0
C      1  0.5221910000000  0.5628530000000  0.4991530000000 1.0
C      1  0.4924560000000  0.5132230000000  0.4761220000000 1.0
C      1  0.4927270000000  0.5130090000000  0.5220630000000 1.0
C      1  0.5150640000000  0.4728160000000  0.4989380000000 1.0
END
