TITL C-2441166-8118-185 -0.000551707607314297 125000 -20479.9246275735 0 0 133 (C1) n - 1
REM
REM in /home/bkarasulu/work/CARBON/AIRSS/Generating-Clusters/ReaxFF-fromJPCA2015/Units_Real/with-SteepDescent/Higher-Symm
REM
REM
REM
REM
REM
REM ./C.cell (1df0a924f5614ab8850e4351716899ee)
REM
REM compiler GCC version 9.2.1 20190827 (Red Hat 9.2.1-1)
REM options -cpp -mtune=generic -march=x86-64 -g -O0 -fpre-include=/usr/include/finclude/math-vector-fortran.h
REM seed 2060785867 625258726 -773447641 1989265525 1739242120 -1746461973 -1901977821 429289211 -462032602 -18230397 -1921711554 -850614895 -1175588102 -584898467 1733827204 1348417612 996223624 432297767 257135354 550656044 -1245880874 1718118962 -1663520245 -1431514919 -355858735 2123599035 -2101406162 -1095478778 -1643287259 -668294329 -348185137 -610346599 -630708900
REM
CELL 1.54180   50.00000   50.00000   50.00000   90.00000   90.00000   90.00000
LATT -1
SFAC C  
C      1  0.5435700000000  0.5648630000000  0.4734120000000 1.0
C      1  0.5005230000000  0.5641610000000  0.5510650000000 1.0
C      1  0.4550140000000  0.5640480000000  0.4751040000000 1.0
C      1  0.5475890000000  0.4272520000000  0.4706660000000 1.0
C      1  0.4998790000000  0.4348350000000  0.5510620000000 1.0
C      1  0.4546170000000  0.4350460000000  0.4748610000000 1.0
C      1  0.5435790000000  0.5640820000000  0.5261260000000 1.0
C      1  0.5006040000000  0.5640700000000  0.4489470000000 1.0
C      1  0.4549640000000  0.5647280000000  0.5247790000000 1.0
C      1  0.5436620000000  0.4349930000000  0.5257810000000 1.0
C      1  0.5004400000000  0.4348430000000  0.4485000000000 1.0
C      1  0.4500100000000  0.4268790000000  0.5264290000000 1.0
C      1  0.5826580000000  0.4565320000000  0.5277210000000 1.0
C      1  0.4352820000000  0.4567930000000  0.5565410000000 1.0
C      1  0.4832670000000  0.4562130000000  0.4141360000000 1.0
C      1  0.5824890000000  0.5424410000000  0.5278740000000 1.0
C      1  0.4336660000000  0.5446230000000  0.5570160000000 1.0
C      1  0.4828070000000  0.5427430000000  0.4144810000000 1.0
C      1  0.5821330000000  0.4564660000000  0.4723420000000 1.0
C      1  0.4335700000000  0.4565210000000  0.4427660000000 1.0
C      1  0.4824410000000  0.4552620000000  0.5864490000000 1.0
C      1  0.5820810000000  0.5434990000000  0.4716410000000 1.0
C      1  0.4338890000000  0.5425270000000  0.4423040000000 1.0
C      1  0.4833200000000  0.5434020000000  0.5853500000000 1.0
C      1  0.5110820000000  0.4596850000000  0.5913840000000 1.0
C      1  0.4162550000000  0.4599160000000  0.4648160000000 1.0
C      1  0.5719890000000  0.4602690000000  0.4453880000000 1.0
C      1  0.5106940000000  0.5396920000000  0.5902790000000 1.0
C      1  0.4159120000000  0.5391490000000  0.4645750000000 1.0
C      1  0.5727100000000  0.5402330000000  0.4451490000000 1.0
C      1  0.5110240000000  0.4596510000000  0.4102500000000 1.0
C      1  0.4164340000000  0.4601800000000  0.5350640000000 1.0
C      1  0.5731270000000  0.4598590000000  0.5552460000000 1.0
C      1  0.5106860000000  0.5393860000000  0.4097430000000 1.0
C      1  0.4156750000000  0.5406450000000  0.5357460000000 1.0
C      1  0.5722380000000  0.5391910000000  0.5547570000000 1.0
C      1  0.5194980000000  0.5152930000000  0.6057270000000 1.0
C      1  0.3983000000000  0.5148880000000  0.4647300000000 1.0
C      1  0.5810670000000  0.5154440000000  0.4301930000000 1.0
C      1  0.5201240000000  0.4846340000000  0.6059800000000 1.0
C      1  0.3984050000000  0.4842030000000  0.4644640000000 1.0
C      1  0.5805690000000  0.4846500000000  0.4303130000000 1.0
C      1  0.5195180000000  0.5148260000000  0.3947050000000 1.0
C      1  0.3989720000000  0.5155280000000  0.5355340000000 1.0
C      1  0.5810820000000  0.5152320000000  0.5703340000000 1.0
C      1  0.5195240000000  0.4841480000000  0.3948020000000 1.0
C      1  0.3994690000000  0.4846870000000  0.5348820000000 1.0
C      1  0.5816940000000  0.4844010000000  0.5704940000000 1.0
C      1  0.4735300000000  0.4799480000000  0.4248710000000 1.0
C      1  0.5745390000000  0.4801750000000  0.5152840000000 1.0
C      1  0.4520930000000  0.4773240000000  0.5548740000000 1.0
C      1  0.4737160000000  0.5201550000000  0.4270950000000 1.0
C      1  0.5746800000000  0.5202120000000  0.5143450000000 1.0
C      1  0.4491350000000  0.5219870000000  0.5583900000000 1.0
C      1  0.4741440000000  0.4795180000000  0.5722070000000 1.0
C      1  0.5727210000000  0.4799000000000  0.4867300000000 1.0
C      1  0.4477260000000  0.4801770000000  0.4396870000000 1.0
C      1  0.4741750000000  0.5202490000000  0.5730660000000 1.0
C      1  0.5760650000000  0.5204490000000  0.4857320000000 1.0
C      1  0.4493630000000  0.5201500000000  0.4415940000000 1.0
C      1  0.3856990000000  0.4756460000000  0.4872000000000 1.0
C      1  0.5674940000000  0.4758970000000  0.4077490000000 1.0
C      1  0.5462240000000  0.4761780000000  0.6051440000000 1.0
C      1  0.3857110000000  0.5235360000000  0.4875760000000 1.0
C      1  0.5675110000000  0.5237240000000  0.4079070000000 1.0
C      1  0.5455080000000  0.5239800000000  0.6052260000000 1.0
C      1  0.3860920000000  0.4758090000000  0.5125270000000 1.0
C      1  0.5683100000000  0.4757430000000  0.5928110000000 1.0
C      1  0.5456080000000  0.4757090000000  0.3950780000000 1.0
C      1  0.3859730000000  0.5238950000000  0.5129670000000 1.0
C      1  0.5674910000000  0.5238260000000  0.5925410000000 1.0
C      1  0.5455700000000  0.5234120000000  0.3951570000000 1.0
C      1  0.4998270000000  0.5828070000000  0.5281860000000 1.0
C      1  0.4751500000000  0.5828190000000  0.4858430000000 1.0
C      1  0.5241410000000  0.5832320000000  0.4856770000000 1.0
C      1  0.4992340000000  0.4171850000000  0.5276190000000 1.0
C      1  0.4752640000000  0.4170630000000  0.4861190000000 1.0
C      1  0.5248050000000  0.4163970000000  0.4850790000000 1.0
C      1  0.4998050000000  0.5829130000000  0.4716190000000 1.0
C      1  0.4751960000000  0.5830730000000  0.5139370000000 1.0
C      1  0.5241680000000  0.5828570000000  0.5141240000000 1.0
C      1  0.4998770000000  0.4170010000000  0.4720250000000 1.0
C      1  0.4740000000000  0.4162800000000  0.5141820000000 1.0
C      1  0.5236820000000  0.4172370000000  0.5136000000000 1.0
C      1  0.4552250000000  0.4863160000000  0.4682350000000 1.0
C      1  0.5454330000000  0.4879610000000  0.4773930000000 1.0
C      1  0.4975540000000  0.4862870000000  0.5543510000000 1.0
C      1  0.4561360000000  0.5141970000000  0.4699040000000 1.0
C      1  0.5475710000000  0.5156120000000  0.4766110000000 1.0
C      1  0.4958220000000  0.5142650000000  0.5526580000000 1.0
C      1  0.4571190000000  0.4875980000000  0.5288640000000 1.0
C      1  0.5481320000000  0.4864790000000  0.5249440000000 1.0
C      1  0.4946080000000  0.4859970000000  0.4456100000000 1.0
C      1  0.4553570000000  0.5154070000000  0.5303020000000 1.0
C      1  0.5471900000000  0.5143410000000  0.5226540000000 1.0
C      1  0.4951390000000  0.5140400000000  0.4472860000000 1.0
C      1  0.5476840000000  0.4428900000000  0.4460000000000 1.0
C      1  0.5238860000000  0.4438680000000  0.5697220000000 1.0
C      1  0.4287160000000  0.4443180000000  0.4862690000000 1.0
C      1  0.5471910000000  0.5550260000000  0.4454140000000 1.0
C      1  0.5230540000000  0.5544300000000  0.5680680000000 1.0
C      1  0.4288120000000  0.5544610000000  0.4860690000000 1.0
C      1  0.5480340000000  0.4438700000000  0.5557950000000 1.0
C      1  0.5233990000000  0.4442120000000  0.4318930000000 1.0
C      1  0.4287260000000  0.4427180000000  0.5143670000000 1.0
C      1  0.5471260000000  0.5542870000000  0.5542500000000 1.0
C      1  0.5231340000000  0.5545360000000  0.4317040000000 1.0
C      1  0.4288320000000  0.5551120000000  0.5137690000000 1.0
C      1  0.4995740000000  0.5342400000000  0.4688090000000 1.0
C      1  0.5264720000000  0.5343260000000  0.5154850000000 1.0
C      1  0.4724560000000  0.5349880000000  0.5155000000000 1.0
C      1  0.4974500000000  0.4649660000000  0.4662190000000 1.0
C      1  0.5282440000000  0.4652560000000  0.5194760000000 1.0
C      1  0.4791380000000  0.4760350000000  0.5117050000000 1.0
C      1  0.4996540000000  0.5342610000000  0.5309670000000 1.0
C      1  0.5264950000000  0.5352950000000  0.4842170000000 1.0
C      1  0.4725830000000  0.5341770000000  0.4845690000000 1.0
C      1  0.5023520000000  0.4650880000000  0.5342710000000 1.0
C      1  0.5198260000000  0.4758820000000  0.4881960000000 1.0
C      1  0.4712730000000  0.4652140000000  0.4812640000000 1.0
C      1  0.4761380000000  0.4340650000000  0.5679920000000 1.0
C      1  0.4514270000000  0.4352520000000  0.4451410000000 1.0
C      1  0.5708510000000  0.4338730000000  0.4851670000000 1.0
C      1  0.4767080000000  0.5649190000000  0.5687190000000 1.0
C      1  0.4518650000000  0.5643050000000  0.4457290000000 1.0
C      1  0.5708740000000  0.5651110000000  0.4854680000000 1.0
C      1  0.4763090000000  0.4350330000000  0.4308220000000 1.0
C      1  0.4510120000000  0.4333940000000  0.5542670000000 1.0
C      1  0.5702800000000  0.4347820000000  0.5132850000000 1.0
C      1  0.4766780000000  0.5645310000000  0.4312950000000 1.0
C      1  0.4516140000000  0.5659220000000  0.5543700000000 1.0
C      1  0.5705310000000  0.5643890000000  0.5141680000000 1.0
C      1  0.4994800000000  0.4950930000000  0.5000420000000 1.0
END
