TITL C-2441164-471-1479 0.00247317280371976 125000 -6396.77583727417 0 0 50 (C1) n - 1
REM
REM in /home/bkarasulu/work/CARBON/AIRSS/Generating-Clusters/ReaxFF-fromJPCA2015/Units_Real/with-SteepDescent/Higher-Symm
REM
REM
REM
REM
REM
REM ./C.cell (1df0a924f5614ab8850e4351716899ee)
REM
REM compiler GCC version 9.2.1 20190827 (Red Hat 9.2.1-1)
REM options -cpp -mtune=generic -march=x86-64 -g -O0 -fpre-include=/usr/include/finclude/math-vector-fortran.h
REM seed 377561527 1187698064 -1410196817 -1128083051 -1842863558 572499391 436696436 130951282 1919154048 608299765 372904190 1961173437 -1841110532 2088024275 -866305508 -1011497967 1405493937 -75831080 -353620812 1858927581 -1077425407 -332255514 232529905 -429479545 294710008 489184484 -185497879 1786431535 -226462060 -433728729 1105178675 2007785863 767850627
REM
CELL 1.54180   50.00000   50.00000   50.00000   90.00000   90.00000   90.00000
LATT -1
SFAC C  
C      1  0.4470910000000  0.4760040000000  0.5161310000000 1.0
C      1  0.4487500000000  0.4766190000000  0.4849160000000 1.0
C      1  0.4495570000000  0.5071500000000  0.4737200000000 1.0
C      1  0.4492110000000  0.5265160000000  0.4983820000000 1.0
C      1  0.4508000000000  0.5076340000000  0.5243430000000 1.0
C      1  0.5529790000000  0.5239790000000  0.5160860000000 1.0
C      1  0.5511170000000  0.5233110000000  0.4848970000000 1.0
C      1  0.5506940000000  0.4928170000000  0.4736800000000 1.0
C      1  0.5508500000000  0.4734350000000  0.4983510000000 1.0
C      1  0.5489670000000  0.4922880000000  0.5242850000000 1.0
C      1  0.5294900000000  0.4790010000000  0.5523830000000 1.0
C      1  0.5297790000000  0.4448580000000  0.4963900000000 1.0
C      1  0.5299460000000  0.4865690000000  0.4463580000000 1.0
C      1  0.5299340000000  0.5469070000000  0.4703430000000 1.0
C      1  0.5299370000000  0.5422240000000  0.5352660000000 1.0
C      1  0.4705840000000  0.5210420000000  0.5521920000000 1.0
C      1  0.4702310000000  0.5552190000000  0.4964550000000 1.0
C      1  0.4701540000000  0.5133560000000  0.4464540000000 1.0
C      1  0.4700580000000  0.4531820000000  0.4703290000000 1.0
C      1  0.4698680000000  0.4575470000000  0.5354510000000 1.0
C      1  0.5162080000000  0.5242960000000  0.5045880000000 1.0
C      1  0.5213820000000  0.5031920000000  0.5235300000000 1.0
C      1  0.5113280000000  0.4779910000000  0.5126840000000 1.0
C      1  0.5140860000000  0.4826180000000  0.4825530000000 1.0
C      1  0.5147490000000  0.5123520000000  0.4782620000000 1.0
C      1  0.4838630000000  0.4758120000000  0.5046740000000 1.0
C      1  0.4788690000000  0.4964530000000  0.5237270000000 1.0
C      1  0.4885680000000  0.5219630000000  0.5124910000000 1.0
C      1  0.4859120000000  0.5175240000000  0.4825460000000 1.0
C      1  0.4850020000000  0.4880410000000  0.4784160000000 1.0
C      1  0.5039870000000  0.4736990000000  0.4394570000000 1.0
C      1  0.5039340000000  0.5497600000000  0.4560810000000 1.0
C      1  0.5040300000000  0.5570520000000  0.5337570000000 1.0
C      1  0.5040220000000  0.4852830000000  0.5651620000000 1.0
C      1  0.5036740000000  0.4344650000000  0.5062990000000 1.0
C      1  0.4961140000000  0.5262600000000  0.4394970000000 1.0
C      1  0.4960860000000  0.4501670000000  0.4560580000000 1.0
C      1  0.4959190000000  0.4430480000000  0.5337500000000 1.0
C      1  0.4959920000000  0.5146860000000  0.5650910000000 1.0
C      1  0.4962800000000  0.5657020000000  0.5063210000000 1.0
C      1  0.4769790000000  0.4449190000000  0.4967280000000 1.0
C      1  0.4770210000000  0.4856630000000  0.4457340000000 1.0
C      1  0.4769020000000  0.5472440000000  0.4698400000000 1.0
C      1  0.4774790000000  0.5428290000000  0.5352410000000 1.0
C      1  0.4773060000000  0.4797980000000  0.5517900000000 1.0
C      1  0.5230040000000  0.5552070000000  0.4967350000000 1.0
C      1  0.5230870000000  0.5142770000000  0.4457730000000 1.0
C      1  0.5230440000000  0.4525360000000  0.4697100000000 1.0
C      1  0.5225170000000  0.4573710000000  0.5352370000000 1.0
C      1  0.5226560000000  0.5201350000000  0.5518560000000 1.0
END
