TITL C-2441161-5029-1200 0.21230799512062 125000 -23850.2179360532 0 0 194 (C1) n - 1
REM
REM in /home/bkarasulu/work/CARBON/AIRSS/Generating-Clusters/ReaxFF-fromJPCA2015/Units_Real/with-SteepDescent/Higher-Symm
REM
REM
REM
REM
REM
REM ./C.cell (1df0a924f5614ab8850e4351716899ee)
REM
REM compiler GCC version 9.2.1 20190827 (Red Hat 9.2.1-1)
REM options -cpp -mtune=generic -march=x86-64 -g -O0 -fpre-include=/usr/include/finclude/math-vector-fortran.h
REM seed 1657636032 587096338 922453290 1468299191 1266365074 -803508922 1475160365 -491336862 1448874246 52178545 1975822224 -1040271799 1179902059 -1604002760 -1203515504 1908863503 348225901 -1159121134 620661151 -83119751 1062854522 -711819962 -1184869676 749826880 -1899460885 1080843468 -1234091095 309844867 -744633408 -1309919645 -1946813310 1851662681 -381897804
REM
CELL 1.54180   50.00000   50.00000   50.00000   90.00000   90.00000   90.00000
LATT -1
SFAC C  
C      1  0.4008120000000  0.5104990000000  0.4404830000000 1.0
C      1  0.3980450000000  0.4452620000000  0.5191430000000 1.0
C      1  0.4023910000000  0.5432840000000  0.5415100000000 1.0
C      1  0.4557890000000  0.4137860000000  0.5529880000000 1.0
C      1  0.4482290000000  0.5937040000000  0.5482250000000 1.0
C      1  0.4583720000000  0.4963150000000  0.3953870000000 1.0
C      1  0.4639560000000  0.5175650000000  0.4469370000000 1.0
C      1  0.4636570000000  0.4342360000000  0.5067690000000 1.0
C      1  0.4781820000000  0.5444180000000  0.5495230000000 1.0
C      1  0.4385660000000  0.5339030000000  0.4388270000000 1.0
C      1  0.4358840000000  0.4394890000000  0.5027320000000 1.0
C      1  0.4474420000000  0.5380230000000  0.5472210000000 1.0
C      1  0.5957680000000  0.5395160000000  0.5305650000000 1.0
C      1  0.5953940000000  0.5032620000000  0.4510000000000 1.0
C      1  0.5953560000000  0.4550460000000  0.5191410000000 1.0
C      1  0.5513480000000  0.5924260000000  0.5085880000000 1.0
C      1  0.5501920000000  0.4596880000000  0.4134050000000 1.0
C      1  0.5520160000000  0.4466340000000  0.5738090000000 1.0
C      1  0.4874550000000  0.4920850000000  0.3955620000000 1.0
C      1  0.4838910000000  0.4185970000000  0.5575980000000 1.0
C      1  0.5031910000000  0.5920370000000  0.5466450000000 1.0
C      1  0.4053250000000  0.4456670000000  0.4591230000000 1.0
C      1  0.4081150000000  0.4749610000000  0.5601870000000 1.0
C      1  0.4054530000000  0.5625340000000  0.4776380000000 1.0
C      1  0.5877950000000  0.4423970000000  0.4801550000000 1.0
C      1  0.5917660000000  0.5094650000000  0.5583440000000 1.0
C      1  0.5894870000000  0.5483930000000  0.4653430000000 1.0
C      1  0.5341340000000  0.4929660000000  0.5266990000000 1.0
C      1  0.5335140000000  0.5267140000000  0.4945490000000 1.0
C      1  0.5329070000000  0.4825090000000  0.4785360000000 1.0
C      1  0.5453140000000  0.5699170000000  0.4209480000000 1.0
C      1  0.5494540000000  0.3995070000000  0.4774130000000 1.0
C      1  0.5441370000000  0.5319750000000  0.5891560000000 1.0
C      1  0.4672700000000  0.4986370000000  0.4902000000000 1.0
C      1  0.4692690000000  0.4747170000000  0.5064010000000 1.0
C      1  0.4540330000000  0.5149560000000  0.5091720000000 1.0
C      1  0.5618520000000  0.4893570000000  0.5276170000000 1.0
C      1  0.5612060000000  0.5250270000000  0.4910510000000 1.0
C      1  0.5614140000000  0.4795690000000  0.4824430000000 1.0
C      1  0.4426370000000  0.5773980000000  0.4543890000000 1.0
C      1  0.4449160000000  0.4248790000000  0.4576490000000 1.0
C      1  0.4436300000000  0.5006580000000  0.5849730000000 1.0
C      1  0.4516820000000  0.5415430000000  0.5156870000000 1.0
C      1  0.4487790000000  0.4984110000000  0.4656940000000 1.0
C      1  0.4499080000000  0.4674430000000  0.5289820000000 1.0
C      1  0.5242160000000  0.5203190000000  0.5219020000000 1.0
C      1  0.5221910000000  0.5077750000000  0.4749530000000 1.0
C      1  0.5197700000000  0.4766930000000  0.5060000000000 1.0
C      1  0.5293730000000  0.4806270000000  0.5510770000000 1.0
C      1  0.5275260000000  0.5536940000000  0.4909120000000 1.0
C      1  0.5267310000000  0.4682220000000  0.4566410000000 1.0
C      1  0.5252860000000  0.4838850000000  0.6004510000000 1.0
C      1  0.5267000000000  0.5969040000000  0.4638760000000 1.0
C      1  0.5284160000000  0.4228050000000  0.4377840000000 1.0
C      1  0.5605680000000  0.5639810000000  0.5509860000000 1.0
C      1  0.5604560000000  0.5109740000000  0.4176480000000 1.0
C      1  0.5624040000000  0.4250380000000  0.5300320000000 1.0
C      1  0.4621440000000  0.5174430000000  0.5996120000000 1.0
C      1  0.4657110000000  0.5757910000000  0.4374910000000 1.0
C      1  0.4659320000000  0.4074540000000  0.4643270000000 1.0
C      1  0.3924130000000  0.5393390000000  0.4879370000000 1.0
C      1  0.3892190000000  0.4671800000000  0.4699760000000 1.0
C      1  0.3895550000000  0.4887180000000  0.5439360000000 1.0
C      1  0.5927240000000  0.4595690000000  0.5484270000000 1.0
C      1  0.5919120000000  0.5629930000000  0.5121400000000 1.0
C      1  0.5926150000000  0.4764570000000  0.4403870000000 1.0
C      1  0.4905920000000  0.5209530000000  0.3991170000000 1.0
C      1  0.4958130000000  0.4062270000000  0.5334390000000 1.0
C      1  0.4878550000000  0.5697720000000  0.5619650000000 1.0
C      1  0.6050470000000  0.4860500000000  0.5469400000000 1.0
C      1  0.6040270000000  0.5478950000000  0.4910100000000 1.0
C      1  0.6014600000000  0.4651350000000  0.4657400000000 1.0
C      1  0.4892260000000  0.5777320000000  0.4529150000000 1.0
C      1  0.4895180000000  0.4180940000000  0.4562250000000 1.0
C      1  0.4868910000000  0.5024760000000  0.5986380000000 1.0
C      1  0.5578890000000  0.4229720000000  0.5585140000000 1.0
C      1  0.5541750000000  0.5887050000000  0.5368040000000 1.0
C      1  0.5562050000000  0.4861480000000  0.4026170000000 1.0
C      1  0.5626100000000  0.5344820000000  0.4638540000000 1.0
C      1  0.5629170000000  0.4527800000000  0.4900060000000 1.0
C      1  0.5638060000000  0.5118710000000  0.5473040000000 1.0
C      1  0.5694500000000  0.5140200000000  0.4449080000000 1.0
C      1  0.5660420000000  0.4510850000000  0.5173480000000 1.0
C      1  0.5678950000000  0.5393710000000  0.5370230000000 1.0
C      1  0.4973220000000  0.4762540000000  0.5999420000000 1.0
C      1  0.4984580000000  0.5963250000000  0.4720540000000 1.0
C      1  0.4995020000000  0.4254630000000  0.4310870000000 1.0
C      1  0.5274800000000  0.5116190000000  0.4459490000000 1.0
C      1  0.5134680000000  0.4476140000000  0.5091710000000 1.0
C      1  0.5195230000000  0.5415650000000  0.5425270000000 1.0
C      1  0.5030050000000  0.6063360000000  0.5211480000000 1.0
C      1  0.4976080000000  0.4611360000000  0.3934780000000 1.0
C      1  0.4978130000000  0.4299350000000  0.5806660000000 1.0
C      1  0.5410220000000  0.5718010000000  0.5722890000000 1.0
C      1  0.5370780000000  0.5223740000000  0.4046780000000 1.0
C      1  0.5398560000000  0.4074460000000  0.5253480000000 1.0
C      1  0.4987760000000  0.5513010000000  0.5891070000000 1.0
C      1  0.4979540000000  0.5485810000000  0.4063270000000 1.0
C      1  0.5023240000000  0.3964120000000  0.5060270000000 1.0
C      1  0.5205170000000  0.4694210000000  0.4118470000000 1.0
C      1  0.5217870000000  0.4383050000000  0.5675200000000 1.0
C      1  0.5228800000000  0.5893330000000  0.5089990000000 1.0
C      1  0.6122710000000  0.4796670000000  0.5187750000000 1.0
C      1  0.6106710000000  0.5265230000000  0.5087610000000 1.0
C      1  0.6081560000000  0.4922650000000  0.4747060000000 1.0
C      1  0.5143520000000  0.4554060000000  0.5438400000000 1.0
C      1  0.5138620000000  0.5619480000000  0.5152850000000 1.0
C      1  0.5133890000000  0.4832820000000  0.4377320000000 1.0
C      1  0.4395050000000  0.4713740000000  0.4578430000000 1.0
C      1  0.4312920000000  0.4902560000000  0.5438160000000 1.0
C      1  0.4405650000000  0.5592320000000  0.4965410000000 1.0
C      1  0.4474710000000  0.5436560000000  0.4125310000000 1.0
C      1  0.4509190000000  0.3962630000000  0.5001920000000 1.0
C      1  0.4439490000000  0.5598670000000  0.5810880000000 1.0
C      1  0.5098630000000  0.5628850000000  0.4407080000000 1.0
C      1  0.5090930000000  0.4132520000000  0.4757870000000 1.0
C      1  0.5046660000000  0.5227920000000  0.5930610000000 1.0
C      1  0.4243060000000  0.4516670000000  0.5656980000000 1.0
C      1  0.4183690000000  0.5759480000000  0.5006760000000 1.0
C      1  0.4177930000000  0.4638950000000  0.4411720000000 1.0
C      1  0.5288920000000  0.4875740000000  0.5739120000000 1.0
C      1  0.5365560000000  0.5726580000000  0.4731570000000 1.0
C      1  0.5305250000000  0.4433890000000  0.4591170000000 1.0
C      1  0.3852340000000  0.4692440000000  0.5243090000000 1.0
C      1  0.3919180000000  0.5372110000000  0.5156450000000 1.0
C      1  0.3890800000000  0.4929690000000  0.4584530000000 1.0
C      1  0.4015610000000  0.5162340000000  0.5317670000000 1.0
C      1  0.4029010000000  0.5178950000000  0.4693030000000 1.0
C      1  0.4008830000000  0.4674360000000  0.4975640000000 1.0
C      1  0.4295190000000  0.5031680000000  0.5200490000000 1.0
C      1  0.4250110000000  0.5057040000000  0.4786030000000 1.0
C      1  0.4207060000000  0.4878930000000  0.4986020000000 1.0
C      1  0.5288560000000  0.5128920000000  0.6054670000000 1.0
C      1  0.5269840000000  0.5872850000000  0.4361350000000 1.0
C      1  0.5291600000000  0.4008780000000  0.4574980000000 1.0
C      1  0.5782160000000  0.5090630000000  0.5885660000000 1.0
C      1  0.5649240000000  0.5717840000000  0.4414090000000 1.0
C      1  0.5722730000000  0.4194350000000  0.4671930000000 1.0
C      1  0.4869200000000  0.4488120000000  0.5989210000000 1.0
C      1  0.4873250000000  0.6087490000000  0.4957520000000 1.0
C      1  0.4896990000000  0.4357550000000  0.4061530000000 1.0
C      1  0.5274530000000  0.5491650000000  0.4069620000000 1.0
C      1  0.5329020000000  0.3943370000000  0.5012490000000 1.0
C      1  0.5277710000000  0.5562850000000  0.5922990000000 1.0
C      1  0.5785560000000  0.5754610000000  0.4659760000000 1.0
C      1  0.5671360000000  0.4347000000000  0.4448470000000 1.0
C      1  0.5710850000000  0.4819600000000  0.5822150000000 1.0
C      1  0.5705220000000  0.5748090000000  0.4957510000000 1.0
C      1  0.5677620000000  0.4614630000000  0.4362260000000 1.0
C      1  0.5663040000000  0.4657450000000  0.5593710000000 1.0
C      1  0.4228220000000  0.5580420000000  0.4545040000000 1.0
C      1  0.4244740000000  0.4308020000000  0.4762160000000 1.0
C      1  0.4374040000000  0.5132670000000  0.5605420000000 1.0
C      1  0.4752880000000  0.3917060000000  0.4882970000000 1.0
C      1  0.4646090000000  0.5454160000000  0.5937340000000 1.0
C      1  0.4708070000000  0.5608440000000  0.4136060000000 1.0
C      1  0.4583810000000  0.5731860000000  0.4790790000000 1.0
C      1  0.4574470000000  0.4509010000000  0.4499630000000 1.0
C      1  0.4605070000000  0.4801410000000  0.5732900000000 1.0
C      1  0.4377110000000  0.4876880000000  0.4142070000000 1.0
C      1  0.4291690000000  0.4254050000000  0.5532600000000 1.0
C      1  0.4276090000000  0.5795600000000  0.5319350000000 1.0
C      1  0.5290300000000  0.4947740000000  0.3959690000000 1.0
C      1  0.5309060000000  0.4118660000000  0.5534250000000 1.0
C      1  0.5308140000000  0.5935630000000  0.5547760000000 1.0
C      1  0.4805640000000  0.4913710000000  0.5566930000000 1.0
C      1  0.4793800000000  0.5501820000000  0.4804340000000 1.0
C      1  0.4810090000000  0.4594220000000  0.4648960000000 1.0
C      1  0.4614840000000  0.5977620000000  0.4980340000000 1.0
C      1  0.4688960000000  0.4525380000000  0.4003530000000 1.0
C      1  0.4620250000000  0.4394640000000  0.5977950000000 1.0
C      1  0.4838360000000  0.4503770000000  0.4936870000000 1.0
C      1  0.4860750000000  0.5172390000000  0.5453400000000 1.0
C      1  0.4858170000000  0.5313550000000  0.4596780000000 1.0
C      1  0.4247570000000  0.5119950000000  0.4253840000000 1.0
C      1  0.4206050000000  0.4306020000000  0.5258770000000 1.0
C      1  0.4259220000000  0.5570570000000  0.5521360000000 1.0
C      1  0.4872540000000  0.4844830000000  0.4524720000000 1.0
C      1  0.4913920000000  0.4714800000000  0.5400770000000 1.0
C      1  0.4890370000000  0.5454900000000  0.5066930000000 1.0
C      1  0.4519140000000  0.4587780000000  0.5567220000000 1.0
C      1  0.4564660000000  0.5853550000000  0.5229870000000 1.0
C      1  0.4516870000000  0.4630350000000  0.4200750000000 1.0
C      1  0.4920920000000  0.5049310000000  0.4736520000000 1.0
C      1  0.4936030000000  0.4854310000000  0.5160830000000 1.0
C      1  0.4957600000000  0.5171740000000  0.5180840000000 1.0
C      1  0.5362980000000  0.5278840000000  0.5605970000000 1.0
C      1  0.5250510000000  0.5391280000000  0.4493660000000 1.0
C      1  0.5282640000000  0.4348780000000  0.4872360000000 1.0
C      1  0.4632490000000  0.5218170000000  0.4044950000000 1.0
C      1  0.4651360000000  0.4088650000000  0.5234070000000 1.0
C      1  0.4600870000000  0.5812260000000  0.5715400000000 1.0
C      1  0.5699840000000  0.4994660000000  0.5010790000000 1.0
C      1  0.6130320000000  0.5000400000000  0.4999730000000 1.0
END
