TITL C-2441156-4686-842 0.0841498699747601 125000 -17600.2938151424 0 0 133 (C1) n - 1
REM
REM in /home/bkarasulu/work/CARBON/AIRSS/Generating-Clusters/ReaxFF-fromJPCA2015/Units_Real/with-SteepDescent/Higher-Symm
REM
REM
REM
REM
REM
REM ./C.cell (1df0a924f5614ab8850e4351716899ee)
REM
REM compiler GCC version 9.2.1 20190827 (Red Hat 9.2.1-1)
REM options -cpp -mtune=generic -march=x86-64 -g -O0 -fpre-include=/usr/include/finclude/math-vector-fortran.h
REM seed 1574903385 1727728481 957676791 -636540709 -954172141 1525264746 -608499667 -1011249036 359555398 532015836 124462585 2025967346 -461313465 -494734539 -1568562656 1826125613 -1546575783 1544153388 -1120872637 -423143196 222161977 1112092816 449663400 110261448 969456591 -1103854468 -1796797289 -183166658 -811558420 -35249720 -1461404419 1366986855 -1792170565
REM
CELL 1.54180   50.00000   50.00000   50.00000   90.00000   90.00000   90.00000
LATT -1
SFAC C  
C      1  0.4617550000000  0.4716490000000  0.5788050000000 1.0
C      1  0.4581160000000  0.5303110000000  0.4226380000000 1.0
C      1  0.4599930000000  0.5278010000000  0.5797870000000 1.0
C      1  0.4599910000000  0.4714170000000  0.4225040000000 1.0
C      1  0.4615590000000  0.4279530000000  0.5504620000000 1.0
C      1  0.4623570000000  0.5717900000000  0.4523200000000 1.0
C      1  0.4588310000000  0.5708050000000  0.5523660000000 1.0
C      1  0.4620110000000  0.4293430000000  0.4501640000000 1.0
C      1  0.4103000000000  0.5265810000000  0.4702910000000 1.0
C      1  0.4154430000000  0.4663570000000  0.5276430000000 1.0
C      1  0.4115030000000  0.4763910000000  0.4738930000000 1.0
C      1  0.4204250000000  0.5455840000000  0.5223200000000 1.0
C      1  0.5613590000000  0.4773330000000  0.4809310000000 1.0
C      1  0.5876280000000  0.5243420000000  0.5278320000000 1.0
C      1  0.5758630000000  0.5226500000000  0.4781580000000 1.0
C      1  0.5818770000000  0.4749370000000  0.5254950000000 1.0
C      1  0.5520680000000  0.5549890000000  0.4470070000000 1.0
C      1  0.5501080000000  0.4377350000000  0.5498510000000 1.0
C      1  0.5436680000000  0.4365430000000  0.4603670000000 1.0
C      1  0.5419970000000  0.5646410000000  0.5440140000000 1.0
C      1  0.5078700000000  0.4202550000000  0.5544730000000 1.0
C      1  0.5115560000000  0.5772780000000  0.4425120000000 1.0
C      1  0.5060570000000  0.5823530000000  0.5553400000000 1.0
C      1  0.5087280000000  0.4224320000000  0.4435110000000 1.0
C      1  0.5071150000000  0.4764880000000  0.5632810000000 1.0
C      1  0.5029960000000  0.5255400000000  0.4343490000000 1.0
C      1  0.5041870000000  0.5282420000000  0.5703980000000 1.0
C      1  0.5061690000000  0.4767970000000  0.4345920000000 1.0
C      1  0.4865430000000  0.4577990000000  0.5734370000000 1.0
C      1  0.4836590000000  0.5432270000000  0.4245020000000 1.0
C      1  0.4832740000000  0.5452460000000  0.5808170000000 1.0
C      1  0.4845350000000  0.4572750000000  0.4237380000000 1.0
C      1  0.5580460000000  0.4723270000000  0.5678810000000 1.0
C      1  0.5636150000000  0.5291120000000  0.4385710000000 1.0
C      1  0.5539320000000  0.5261390000000  0.5608200000000 1.0
C      1  0.5572640000000  0.4810140000000  0.4300990000000 1.0
C      1  0.5162120000000  0.4858000000000  0.5362700000000 1.0
C      1  0.5230070000000  0.5127330000000  0.4646440000000 1.0
C      1  0.5166270000000  0.5128290000000  0.5268770000000 1.0
C      1  0.5133800000000  0.4856310000000  0.4627910000000 1.0
C      1  0.4330660000000  0.5304880000000  0.5420990000000 1.0
C      1  0.4390130000000  0.4713110000000  0.4644060000000 1.0
C      1  0.4412960000000  0.4715600000000  0.5406050000000 1.0
C      1  0.4374040000000  0.5318000000000  0.4601500000000 1.0
C      1  0.4321230000000  0.5705630000000  0.5149560000000 1.0
C      1  0.4386890000000  0.4310420000000  0.4879210000000 1.0
C      1  0.4373380000000  0.4336890000000  0.5170520000000 1.0
C      1  0.4432760000000  0.5672090000000  0.4893340000000 1.0
C      1  0.5379900000000  0.5821360000000  0.5223010000000 1.0
C      1  0.5388390000000  0.4160760000000  0.4792200000000 1.0
C      1  0.5414400000000  0.4224570000000  0.5274290000000 1.0
C      1  0.5440270000000  0.5734620000000  0.4698110000000 1.0
C      1  0.4852670000000  0.4312450000000  0.5644280000000 1.0
C      1  0.4842040000000  0.5706560000000  0.4347510000000 1.0
C      1  0.4823570000000  0.5713480000000  0.5675750000000 1.0
C      1  0.4843450000000  0.4310590000000  0.4338150000000 1.0
C      1  0.5055800000000  0.5839570000000  0.5251060000000 1.0
C      1  0.5084200000000  0.4174600000000  0.4731470000000 1.0
C      1  0.5112080000000  0.4194500000000  0.5258240000000 1.0
C      1  0.5152940000000  0.5769310000000  0.4713300000000 1.0
C      1  0.4472740000000  0.5458320000000  0.5601150000000 1.0
C      1  0.4474600000000  0.4532370000000  0.4420910000000 1.0
C      1  0.4476530000000  0.4521900000000  0.5612000000000 1.0
C      1  0.4470130000000  0.5501550000000  0.4406330000000 1.0
C      1  0.4753430000000  0.4623300000000  0.5111320000000 1.0
C      1  0.4859570000000  0.5337900000000  0.4908200000000 1.0
C      1  0.4929930000000  0.5298100000000  0.5199810000000 1.0
C      1  0.4854310000000  0.4636540000000  0.4826850000000 1.0
C      1  0.5729280000000  0.4824320000000  0.4541290000000 1.0
C      1  0.5795740000000  0.5142990000000  0.5528540000000 1.0
C      1  0.5807550000000  0.5105740000000  0.4521820000000 1.0
C      1  0.5787430000000  0.4848230000000  0.5523120000000 1.0
C      1  0.5064480000000  0.4455300000000  0.5134370000000 1.0
C      1  0.5034310000000  0.5570790000000  0.4904090000000 1.0
C      1  0.5074190000000  0.5550050000000  0.5183240000000 1.0
C      1  0.5086210000000  0.4456220000000  0.4825950000000 1.0
C      1  0.5831880000000  0.5502720000000  0.5145870000000 1.0
C      1  0.5864100000000  0.4622790000000  0.4864210000000 1.0
C      1  0.5936720000000  0.4537570000000  0.5109080000000 1.0
C      1  0.5889920000000  0.5430070000000  0.4881600000000 1.0
C      1  0.5330630000000  0.4670680000000  0.4239930000000 1.0
C      1  0.5322630000000  0.5394430000000  0.5755280000000 1.0
C      1  0.5216620000000  0.5353700000000  0.4143260000000 1.0
C      1  0.5319910000000  0.4622960000000  0.5761220000000 1.0
C      1  0.4627620000000  0.4180660000000  0.5223990000000 1.0
C      1  0.4649090000000  0.5840940000000  0.4810250000000 1.0
C      1  0.4567270000000  0.5822590000000  0.5257100000000 1.0
C      1  0.4624440000000  0.4172700000000  0.4775240000000 1.0
C      1  0.5311320000000  0.5592940000000  0.4286190000000 1.0
C      1  0.5304120000000  0.4333280000000  0.5689840000000 1.0
C      1  0.5315740000000  0.4403880000000  0.4351350000000 1.0
C      1  0.5292220000000  0.5685070000000  0.5679360000000 1.0
C      1  0.4807140000000  0.4140960000000  0.5002050000000 1.0
C      1  0.4776560000000  0.5880120000000  0.5071810000000 1.0
C      1  0.4557570000000  0.4997250000000  0.5738050000000 1.0
C      1  0.4596600000000  0.5008600000000  0.4268890000000 1.0
C      1  0.4988630000000  0.5012830000000  0.5813200000000 1.0
C      1  0.4996910000000  0.5010120000000  0.4210070000000 1.0
C      1  0.5519240000000  0.4310850000000  0.5012300000000 1.0
C      1  0.5527150000000  0.5740590000000  0.4980780000000 1.0
C      1  0.5482520000000  0.4998480000000  0.5745860000000 1.0
C      1  0.5530010000000  0.5080530000000  0.4218170000000 1.0
C      1  0.4061900000000  0.4905170000000  0.5422600000000 1.0
C      1  0.4105780000000  0.5009000000000  0.4574760000000 1.0
C      1  0.4760970000000  0.4915420000000  0.5232380000000 1.0
C      1  0.4768290000000  0.4903430000000  0.4783010000000 1.0
C      1  0.4540900000000  0.5395300000000  0.4843540000000 1.0
C      1  0.4472760000000  0.4564870000000  0.4997240000000 1.0
C      1  0.4135430000000  0.5265030000000  0.5003870000000 1.0
C      1  0.4081060000000  0.4774750000000  0.5020740000000 1.0
C      1  0.5265900000000  0.5072010000000  0.4080450000000 1.0
C      1  0.5253310000000  0.5002400000000  0.5908550000000 1.0
C      1  0.5542100000000  0.5465850000000  0.5088400000000 1.0
C      1  0.5476260000000  0.4602910000000  0.5010040000000 1.0
C      1  0.5391770000000  0.5208780000000  0.5097630000000 1.0
C      1  0.5258620000000  0.4661690000000  0.5184630000000 1.0
C      1  0.4332040000000  0.5007950000000  0.5516430000000 1.0
C      1  0.4398780000000  0.4989810000000  0.4495130000000 1.0
C      1  0.6356190000000  0.5002140000000  0.4960920000000 1.0
C      1  0.6127420000000  0.4999460000000  0.5016670000000 1.0
C      1  0.4419520000000  0.5201420000000  0.4996860000000 1.0
C      1  0.5007700000000  0.5041080000000  0.4817010000000 1.0
C      1  0.4589610000000  0.4985900000000  0.4996230000000 1.0
C      1  0.6604240000000  0.5005930000000  0.4963130000000 1.0
C      1  0.5463340000000  0.5098840000000  0.4837120000000 1.0
C      1  0.3727550000000  0.5000480000000  0.5062130000000 1.0
C      1  0.3512780000000  0.4989820000000  0.4988320000000 1.0
C      1  0.7096720000000  0.5005970000000  0.5011070000000 1.0
C      1  0.3010460000000  0.5007140000000  0.4984190000000 1.0
C      1  0.6855250000000  0.5006580000000  0.4986320000000 1.0
C      1  0.3982530000000  0.5014620000000  0.5155080000000 1.0
C      1  0.3248110000000  0.4994520000000  0.4970300000000 1.0
C      1  0.5876920000000  0.5005150000000  0.5111930000000 1.0
END
