TITL C-2441160-1326-1342 0.0365268384970726 125000 -12768.0848415697 0 0 91 (C1) n - 1
REM
REM in /home/bkarasulu/work/CARBON/AIRSS/Generating-Clusters/ReaxFF-fromJPCA2015/Units_Real/with-SteepDescent/Higher-Symm
REM
REM
REM
REM
REM
REM ./C.cell (1df0a924f5614ab8850e4351716899ee)
REM
REM compiler GCC version 9.2.1 20190827 (Red Hat 9.2.1-1)
REM options -cpp -mtune=generic -march=x86-64 -g -O0 -fpre-include=/usr/include/finclude/math-vector-fortran.h
REM seed 1665876546 710580317 202425684 777597834 -1316660178 -1908262281 -1853868873 212690061 105947240 -1377117375 -148890797 -1299175993 1352419750 -1541980527 42017142 -1014905822 170500528 -1117370052 -1256424363 848651948 -1626802245 427241200 576986582 1826590450 151394901 125122571 554466265 -1221185220 -885343809 672059684 1898708406 -63833992 1871384487
REM
CELL 1.54180   50.00000   50.00000   50.00000   90.00000   90.00000   90.00000
LATT -1
SFAC C  
C      1  0.4922040000000  0.5226710000000  0.5236950000000 1.0
C      1  0.4908570000000  0.5218050000000  0.4770040000000 1.0
C      1  0.5345960000000  0.5521760000000  0.4797490000000 1.0
C      1  0.5341140000000  0.5520330000000  0.5193430000000 1.0
C      1  0.4925540000000  0.5905400000000  0.4872900000000 1.0
C      1  0.4944250000000  0.5932190000000  0.5170440000000 1.0
C      1  0.5714980000000  0.5199570000000  0.4709540000000 1.0
C      1  0.5701980000000  0.5214320000000  0.5294630000000 1.0
C      1  0.5856050000000  0.5005550000000  0.5166030000000 1.0
C      1  0.5879690000000  0.5003630000000  0.4857280000000 1.0
C      1  0.5036300000000  0.4531860000000  0.4861340000000 1.0
C      1  0.5038560000000  0.4525350000000  0.5144000000000 1.0
C      1  0.5414390000000  0.4564980000000  0.5276470000000 1.0
C      1  0.5462590000000  0.4456280000000  0.4766220000000 1.0
C      1  0.5042960000000  0.4777670000000  0.4721900000000 1.0
C      1  0.4942520000000  0.4779960000000  0.5253070000000 1.0
C      1  0.4637970000000  0.4629830000000  0.4856310000000 1.0
C      1  0.4683630000000  0.4707560000000  0.5116880000000 1.0
C      1  0.4858470000000  0.5397240000000  0.4332380000000 1.0
C      1  0.4856160000000  0.5389020000000  0.5678170000000 1.0
C      1  0.4799700000000  0.5671320000000  0.4416870000000 1.0
C      1  0.4797760000000  0.5648330000000  0.5562620000000 1.0
C      1  0.4987160000000  0.4826300000000  0.5593100000000 1.0
C      1  0.4983580000000  0.4838890000000  0.4415750000000 1.0
C      1  0.4398810000000  0.5227110000000  0.5509700000000 1.0
C      1  0.4363730000000  0.5256430000000  0.4547150000000 1.0
C      1  0.5471650000000  0.5666410000000  0.4552370000000 1.0
C      1  0.5468760000000  0.5684020000000  0.5419390000000 1.0
C      1  0.5346600000000  0.4447040000000  0.4348970000000 1.0
C      1  0.5338590000000  0.4413750000000  0.5652420000000 1.0
C      1  0.5277500000000  0.4288270000000  0.4590460000000 1.0
C      1  0.5287610000000  0.4303300000000  0.5379580000000 1.0
C      1  0.5621970000000  0.5255050000000  0.5567660000000 1.0
C      1  0.5620600000000  0.5212160000000  0.4431790000000 1.0
C      1  0.5062150000000  0.5481600000000  0.5263080000000 1.0
C      1  0.5054670000000  0.5468720000000  0.4755480000000 1.0
C      1  0.4640500000000  0.5121650000000  0.4867740000000 1.0
C      1  0.4640850000000  0.5148900000000  0.5148770000000 1.0
C      1  0.4604740000000  0.4422420000000  0.5562950000000 1.0
C      1  0.4619900000000  0.4447230000000  0.4480240000000 1.0
C      1  0.4400910000000  0.4536090000000  0.5187120000000 1.0
C      1  0.4367550000000  0.4512440000000  0.4841860000000 1.0
C      1  0.5085760000000  0.4557850000000  0.5721230000000 1.0
C      1  0.5089550000000  0.4579630000000  0.4273540000000 1.0
C      1  0.5443700000000  0.5242000000000  0.5141310000000 1.0
C      1  0.5507340000000  0.5297610000000  0.4873860000000 1.0
C      1  0.4304380000000  0.4759170000000  0.4656950000000 1.0
C      1  0.4334310000000  0.4762220000000  0.5364140000000 1.0
C      1  0.4854390000000  0.4381180000000  0.5731880000000 1.0
C      1  0.4863380000000  0.4402250000000  0.4298660000000 1.0
C      1  0.4657020000000  0.5808570000000  0.4915100000000 1.0
C      1  0.4662330000000  0.5854430000000  0.5188020000000 1.0
C      1  0.4303760000000  0.5441590000000  0.4787420000000 1.0
C      1  0.4306870000000  0.5383520000000  0.5066770000000 1.0
C      1  0.5415600000000  0.5459510000000  0.5607070000000 1.0
C      1  0.5421420000000  0.5428840000000  0.4387060000000 1.0
C      1  0.5100440000000  0.5014880000000  0.4864970000000 1.0
C      1  0.5135060000000  0.5046690000000  0.5158580000000 1.0
C      1  0.4704140000000  0.4902360000000  0.5670440000000 1.0
C      1  0.4679380000000  0.4928420000000  0.4365100000000 1.0
C      1  0.5598550000000  0.4514110000000  0.5555200000000 1.0
C      1  0.5595560000000  0.4543650000000  0.4478420000000 1.0
C      1  0.4640370000000  0.5183200000000  0.5671180000000 1.0
C      1  0.4621990000000  0.5205130000000  0.4388430000000 1.0
C      1  0.5138510000000  0.5317240000000  0.5661010000000 1.0
C      1  0.5136320000000  0.5318200000000  0.4340160000000 1.0
C      1  0.4382530000000  0.5463730000000  0.5331440000000 1.0
C      1  0.4523670000000  0.5619200000000  0.4759730000000 1.0
C      1  0.4493950000000  0.4719690000000  0.4437520000000 1.0
C      1  0.4508450000000  0.4701390000000  0.5586930000000 1.0
C      1  0.5595550000000  0.4803950000000  0.4409340000000 1.0
C      1  0.5574330000000  0.4759150000000  0.5652500000000 1.0
C      1  0.4569940000000  0.5684850000000  0.5392100000000 1.0
C      1  0.4528960000000  0.5601210000000  0.4477850000000 1.0
C      1  0.4382460000000  0.5030560000000  0.4730380000000 1.0
C      1  0.4379190000000  0.5041700000000  0.5285790000000 1.0
C      1  0.5661790000000  0.4817220000000  0.4859600000000 1.0
C      1  0.5651040000000  0.4795650000000  0.5132680000000 1.0
C      1  0.4979610000000  0.5730610000000  0.4648240000000 1.0
C      1  0.5004400000000  0.5738330000000  0.5381250000000 1.0
C      1  0.5010570000000  0.4269380000000  0.5283480000000 1.0
C      1  0.5014160000000  0.4271660000000  0.4720670000000 1.0
C      1  0.4554770000000  0.4308420000000  0.5298940000000 1.0
C      1  0.4530870000000  0.4276260000000  0.4707350000000 1.0
C      1  0.5191520000000  0.5044330000000  0.5657710000000 1.0
C      1  0.5164120000000  0.5050210000000  0.4345540000000 1.0
C      1  0.5449530000000  0.5015960000000  0.4340670000000 1.0
C      1  0.5488180000000  0.5016160000000  0.5696790000000 1.0
C      1  0.4767380000000  0.4171320000000  0.5145860000000 1.0
C      1  0.4766820000000  0.4165460000000  0.4848760000000 1.0
C      1  0.5414770000000  0.4466280000000  0.5019930000000 1.0
END
