TITL C-2441163-1170-472 0.0508287637824048 125000 -15740.1184197515 0 0 116 (C1) n - 1
REM
REM in /home/bkarasulu/work/CARBON/AIRSS/Generating-Clusters/ReaxFF-fromJPCA2015/Units_Real/with-SteepDescent/Higher-Symm
REM
REM
REM
REM
REM
REM ./C.cell (1df0a924f5614ab8850e4351716899ee)
REM
REM compiler GCC version 9.2.1 20190827 (Red Hat 9.2.1-1)
REM options -cpp -mtune=generic -march=x86-64 -g -O0 -fpre-include=/usr/include/finclude/math-vector-fortran.h
REM seed 1717270654 -1592123886 -1201185716 -1384869376 1051744713 850727616 1371018783 -416346271 926959338 6880040 -1027304673 534366050 -1628156556 846122314 1695833440 821776964 360308223 1338450305 -1039026578 -1680449712 -701147018 -1869138046 1270685742 -1341692940 -954172461 1364217360 880497379 1287240689 -1332837180 -1722286871 1639281419 -1112514257 -1692514763
REM
CELL 1.54180   50.00000   50.00000   50.00000   90.00000   90.00000   90.00000
LATT -1
SFAC C  
C      1  0.4773920000000  0.5016650000000  0.4863800000000 1.0
C      1  0.4831430000000  0.5250260000000  0.5306070000000 1.0
C      1  0.5045240000000  0.5041590000000  0.4837800000000 1.0
C      1  0.5185720000000  0.4962780000000  0.5259760000000 1.0
C      1  0.5153040000000  0.4789450000000  0.4865390000000 1.0
C      1  0.4912390000000  0.4825750000000  0.5263890000000 1.0
C      1  0.4565570000000  0.5529480000000  0.5489570000000 1.0
C      1  0.5089590000000  0.5801400000000  0.4599150000000 1.0
C      1  0.5703110000000  0.5335290000000  0.5402320000000 1.0
C      1  0.5653110000000  0.4525360000000  0.4603900000000 1.0
C      1  0.4923560000000  0.4225990000000  0.5409150000000 1.0
C      1  0.4267870000000  0.4680910000000  0.4601470000000 1.0
C      1  0.5099240000000  0.4714920000000  0.4092260000000 1.0
C      1  0.4669760000000  0.4684710000000  0.5895570000000 1.0
C      1  0.4711970000000  0.5049740000000  0.4089900000000 1.0
C      1  0.4930840000000  0.5385320000000  0.5953790000000 1.0
C      1  0.5191310000000  0.5221610000000  0.4098120000000 1.0
C      1  0.5309130000000  0.4925770000000  0.5924490000000 1.0
C      1  0.4272990000000  0.4888320000000  0.4794850000000 1.0
C      1  0.4461920000000  0.5568420000000  0.5228530000000 1.0
C      1  0.5262590000000  0.5681650000000  0.4791250000000 1.0
C      1  0.5695310000000  0.5167310000000  0.5158660000000 1.0
C      1  0.5485640000000  0.4414040000000  0.4802740000000 1.0
C      1  0.4801750000000  0.4327410000000  0.5151410000000 1.0
C      1  0.5476280000000  0.5018710000000  0.4851180000000 1.0
C      1  0.5317610000000  0.4536960000000  0.5162140000000 1.0
C      1  0.4762970000000  0.4593680000000  0.4843330000000 1.0
C      1  0.4453050000000  0.4956620000000  0.5156580000000 1.0
C      1  0.4768830000000  0.5414750000000  0.4834060000000 1.0
C      1  0.5214350000000  0.5390340000000  0.5097710000000 1.0
C      1  0.5028680000000  0.5764970000000  0.5349240000000 1.0
C      1  0.5724240000000  0.5346790000000  0.4667980000000 1.0
C      1  0.5693740000000  0.4573640000000  0.5364350000000 1.0
C      1  0.4929230000000  0.4181170000000  0.4672200000000 1.0
C      1  0.4283330000000  0.4615910000000  0.5360260000000 1.0
C      1  0.4318800000000  0.5474180000000  0.4626370000000 1.0
C      1  0.5664290000000  0.4945330000000  0.4392170000000 1.0
C      1  0.5291100000000  0.4399230000000  0.5611340000000 1.0
C      1  0.4623790000000  0.4462160000000  0.4392300000000 1.0
C      1  0.4276260000000  0.5083750000000  0.5652230000000 1.0
C      1  0.4729300000000  0.5601100000000  0.4388500000000 1.0
C      1  0.5371520000000  0.5576820000000  0.5550930000000 1.0
C      1  0.5285480000000  0.5249930000000  0.4837380000000 1.0
C      1  0.5371260000000  0.4812070000000  0.5054170000000 1.0
C      1  0.5042010000000  0.4546270000000  0.4797340000000 1.0
C      1  0.4698370000000  0.4804800000000  0.5053100000000 1.0
C      1  0.4585520000000  0.5204790000000  0.4797040000000 1.0
C      1  0.4924620000000  0.5394840000000  0.5079010000000 1.0
C      1  0.5099280000000  0.4053130000000  0.5241150000000 1.0
C      1  0.4251910000000  0.4466100000000  0.4807410000000 1.0
C      1  0.4214480000000  0.5420600000000  0.5153400000000 1.0
C      1  0.4910480000000  0.5916750000000  0.4804510000000 1.0
C      1  0.5775740000000  0.5567910000000  0.5236180000000 1.0
C      1  0.5848440000000  0.4620550000000  0.4807010000000 1.0
C      1  0.4404470000000  0.4643470000000  0.4328860000000 1.0
C      1  0.4466820000000  0.5278670000000  0.5622010000000 1.0
C      1  0.4995520000000  0.5700880000000  0.4325980000000 1.0
C      1  0.5506140000000  0.5353620000000  0.5636420000000 1.0
C      1  0.5602950000000  0.4664800000000  0.4337940000000 1.0
C      1  0.5010830000000  0.4363470000000  0.5653890000000 1.0
C      1  0.5555420000000  0.5763820000000  0.5207150000000 1.0
C      1  0.5931900000000  0.4904190000000  0.4786000000000 1.0
C      1  0.5383610000000  0.4127950000000  0.5208590000000 1.0
C      1  0.4450190000000  0.4244950000000  0.4782220000000 1.0
C      1  0.4090690000000  0.5149250000000  0.5200610000000 1.0
C      1  0.4618990000000  0.5851580000000  0.4783770000000 1.0
C      1  0.5725920000000  0.5417380000000  0.4962310000000 1.0
C      1  0.5800790000000  0.4660490000000  0.5109440000000 1.0
C      1  0.4989200000000  0.4164630000000  0.4972440000000 1.0
C      1  0.4309360000000  0.4478820000000  0.5106710000000 1.0
C      1  0.4174790000000  0.5392450000000  0.4866930000000 1.0
C      1  0.4900610000000  0.5833220000000  0.5097120000000 1.0
C      1  0.5009630000000  0.5267520000000  0.5529500000000 1.0
C      1  0.5169690000000  0.4973280000000  0.4445810000000 1.0
C      1  0.5306250000000  0.4863190000000  0.5480350000000 1.0
C      1  0.4905100000000  0.4872510000000  0.4448590000000 1.0
C      1  0.4739030000000  0.4813570000000  0.5484490000000 1.0
C      1  0.4948720000000  0.5151520000000  0.4440010000000 1.0
C      1  0.4655580000000  0.4231400000000  0.4572600000000 1.0
C      1  0.4232090000000  0.4924710000000  0.5358200000000 1.0
C      1  0.4510770000000  0.5689710000000  0.4564810000000 1.0
C      1  0.5324710000000  0.5798700000000  0.5401280000000 1.0
C      1  0.5840180000000  0.5089430000000  0.4576900000000 1.0
C      1  0.5501040000000  0.4336950000000  0.5393080000000 1.0
C      1  0.5358490000000  0.4606210000000  0.4178910000000 1.0
C      1  0.4923940000000  0.4609250000000  0.5835250000000 1.0
C      1  0.4481830000000  0.4886520000000  0.4176230000000 1.0
C      1  0.4927340000000  0.5149420000000  0.5799580000000 1.0
C      1  0.5154800000000  0.5502230000000  0.4171010000000 1.0
C      1  0.5466190000000  0.5140430000000  0.5846280000000 1.0
C      1  0.4856460000000  0.5395480000000  0.4558650000000 1.0
C      1  0.5233170000000  0.5227070000000  0.5342150000000 1.0
C      1  0.5429520000000  0.4950660000000  0.4572370000000 1.0
C      1  0.5218940000000  0.4608700000000  0.5420610000000 1.0
C      1  0.4732320000000  0.4673950000000  0.4568880000000 1.0
C      1  0.4603650000000  0.5085100000000  0.5377270000000 1.0
C      1  0.5342040000000  0.4208350000000  0.4928440000000 1.0
C      1  0.4519000000000  0.4275030000000  0.5069330000000 1.0
C      1  0.4105730000000  0.5092610000000  0.4910100000000 1.0
C      1  0.4617590000000  0.5761160000000  0.5066100000000 1.0
C      1  0.5507770000000  0.5674650000000  0.4932920000000 1.0
C      1  0.5875650000000  0.4943730000000  0.5075440000000 1.0
C      1  0.5558850000000  0.4874460000000  0.5802080000000 1.0
C      1  0.5114460000000  0.4477220000000  0.4273390000000 1.0
C      1  0.4464890000000  0.4639230000000  0.5735850000000 1.0
C      1  0.4505520000000  0.5160160000000  0.4272270000000 1.0
C      1  0.4905590000000  0.5563950000000  0.5804490000000 1.0
C      1  0.5381930000000  0.5362170000000  0.4293350000000 1.0
C      1  0.4546910000000  0.4583150000000  0.5478690000000 1.0
C      1  0.4416920000000  0.5204940000000  0.4552660000000 1.0
C      1  0.4829610000000  0.5658670000000  0.5542280000000 1.0
C      1  0.5453760000000  0.5392410000000  0.4573100000000 1.0
C      1  0.5592250000000  0.4798370000000  0.5523580000000 1.0
C      1  0.5099820000000  0.4385740000000  0.4553430000000 1.0
C      1  0.5003720000000  0.4995220000000  0.4068500000000 1.0
C      1  0.5029910000000  0.4877620000000  0.5888380000000 1.0
END
