TITL C-2441168-9922-468 0.00465810137092221 125000 -6671.13553798337 0 0 47 (C1) n - 1
REM
REM in /home/bkarasulu/work/CARBON/AIRSS/Generating-Clusters/ReaxFF-fromJPCA2015/Units_Real/with-SteepDescent/Higher-Symm
REM
REM
REM
REM
REM
REM ./C.cell (1df0a924f5614ab8850e4351716899ee)
REM
REM compiler GCC version 9.2.1 20190827 (Red Hat 9.2.1-1)
REM options -cpp -mtune=generic -march=x86-64 -g -O0 -fpre-include=/usr/include/finclude/math-vector-fortran.h
REM seed -301459584 -277959982 -1592398499 223374190 628809292 481946689 298761155 -1137371418 -211016051 154615120 1928005677 78496033 713129170 380366321 2048488856 1011150097 2095255371 486231433 -302935385 -173115072 -791932085 1908392732 310225943 -1592042203 -166817316 432231733 -1597770302 -1586619403 1422185306 1884683439 -2131099716 1673833580 195083915
REM
CELL 1.54180   50.00000   50.00000   50.00000   90.00000   90.00000   90.00000
LATT -1
SFAC C  
C      1  0.5228570000000  0.4468960000000  0.4771130000000 1.0
C      1  0.5464140000000  0.4586460000000  0.4685320000000 1.0
C      1  0.4622340000000  0.4944400000000  0.4749540000000 1.0
C      1  0.4593470000000  0.5156290000000  0.4955500000000 1.0
C      1  0.5469760000000  0.5198930000000  0.4610780000000 1.0
C      1  0.4937140000000  0.4937490000000  0.5244900000000 1.0
C      1  0.4985080000000  0.5144900000000  0.4404270000000 1.0
C      1  0.5032300000000  0.4502070000000  0.4957490000000 1.0
C      1  0.5037460000000  0.5260120000000  0.5541330000000 1.0
C      1  0.4818420000000  0.5509250000000  0.5207880000000 1.0
C      1  0.5151710000000  0.5381840000000  0.4892080000000 1.0
C      1  0.4728740000000  0.5023030000000  0.4485760000000 1.0
C      1  0.5600870000000  0.5580070000000  0.4920970000000 1.0
C      1  0.4876680000000  0.5413470000000  0.4464590000000 1.0
C      1  0.5341230000000  0.4796930000000  0.4543670000000 1.0
C      1  0.4762200000000  0.4390710000000  0.5277420000000 1.0
C      1  0.5508230000000  0.5076010000000  0.4890270000000 1.0
C      1  0.4606230000000  0.5296610000000  0.4507750000000 1.0
C      1  0.4529330000000  0.4484760000000  0.4865100000000 1.0
C      1  0.5497510000000  0.4718870000000  0.5286610000000 1.0
C      1  0.4230140000000  0.4914830000000  0.5044990000000 1.0
C      1  0.4743290000000  0.4564700000000  0.5503340000000 1.0
C      1  0.5610970000000  0.5322550000000  0.5075500000000 1.0
C      1  0.5557620000000  0.4610520000000  0.4996040000000 1.0
C      1  0.4403750000000  0.5108960000000  0.5179180000000 1.0
C      1  0.4711430000000  0.5558150000000  0.4928180000000 1.0
C      1  0.5030710000000  0.4573420000000  0.5518980000000 1.0
C      1  0.5266980000000  0.4727070000000  0.5504470000000 1.0
C      1  0.5249940000000  0.5406370000000  0.5399390000000 1.0
C      1  0.4525130000000  0.5383640000000  0.4781270000000 1.0
C      1  0.5104110000000  0.5505750000000  0.5169800000000 1.0
C      1  0.5272560000000  0.5049390000000  0.4443420000000 1.0
C      1  0.5403570000000  0.5459940000000  0.4724170000000 1.0
C      1  0.5116140000000  0.4985400000000  0.5482240000000 1.0
C      1  0.5212990000000  0.5042240000000  0.4939540000000 1.0
C      1  0.5731970000000  0.4829280000000  0.4950680000000 1.0
C      1  0.4930010000000  0.5516500000000  0.4737560000000 1.0
C      1  0.4336650000000  0.4872150000000  0.4767860000000 1.0
C      1  0.4700770000000  0.4850890000000  0.5404060000000 1.0
C      1  0.5053690000000  0.4816690000000  0.5004000000000 1.0
C      1  0.4564650000000  0.5107990000000  0.5425780000000 1.0
C      1  0.5516520000000  0.5287530000000  0.5349040000000 1.0
C      1  0.4769610000000  0.5324250000000  0.5431310000000 1.0
C      1  0.4274090000000  0.4651380000000  0.4936060000000 1.0
C      1  0.4781480000000  0.4338860000000  0.5005030000000 1.0
C      1  0.4541900000000  0.4328670000000  0.4669660000000 1.0
C      1  0.5567900000000  0.4991710000000  0.5366080000000 1.0
END
