TITL C-2441167-4473-928 0.156999402394484 125000 -8752.2453208647 0 0 95 (C1) n - 1
REM
REM in /home/bkarasulu/work/CARBON/AIRSS/Generating-Clusters/ReaxFF-fromJPCA2015/Units_Real/with-SteepDescent/Higher-Symm
REM
REM
REM
REM
REM
REM ./C.cell (1df0a924f5614ab8850e4351716899ee)
REM
REM compiler GCC version 9.2.1 20190827 (Red Hat 9.2.1-1)
REM options -cpp -mtune=generic -march=x86-64 -g -O0 -fpre-include=/usr/include/finclude/math-vector-fortran.h
REM seed 1681090782 -2120297861 -2081867704 -1747354946 2130912276 1470782535 270570736 1659453754 -1779781430 1941576234 -1447524190 1307179913 2122677718 -967144902 -1501822520 544004620 -142252574 79034805 2065496662 1226403882 1549627515 504879482 -1960634631 549752165 -82854661 1675210333 -1595206932 -860607800 487439704 -265423686 -531084662 -1436230437 -114886154
REM
CELL 1.54180   50.00000   50.00000   50.00000   90.00000   90.00000   90.00000
LATT -1
SFAC C  
C      1  0.5133150000000  0.4258500000000  0.5288520000000 1.0
C      1  0.5720870000000  0.5121870000000  0.5306810000000 1.0
C      1  0.4882790000000  0.5724460000000  0.5292180000000 1.0
C      1  0.4279880000000  0.4884340000000  0.5288900000000 1.0
C      1  0.4873880000000  0.4276450000000  0.4704470000000 1.0
C      1  0.4290810000000  0.5120980000000  0.4718220000000 1.0
C      1  0.5121470000000  0.5730620000000  0.4720240000000 1.0
C      1  0.5720010000000  0.4860480000000  0.4675910000000 1.0
C      1  0.5215440000000  0.4489620000000  0.4900120000000 1.0
C      1  0.5510670000000  0.5237880000000  0.4914590000000 1.0
C      1  0.4753350000000  0.5515200000000  0.4900770000000 1.0
C      1  0.4479280000000  0.4743550000000  0.4907050000000 1.0
C      1  0.4756330000000  0.4488760000000  0.5109320000000 1.0
C      1  0.4468360000000  0.5294280000000  0.5112910000000 1.0
C      1  0.5287640000000  0.5536380000000  0.5107490000000 1.0
C      1  0.5497630000000  0.4733720000000  0.5115830000000 1.0
C      1  0.5058430000000  0.4700150000000  0.5232090000000 1.0
C      1  0.5259000000000  0.5090500000000  0.5223590000000 1.0
C      1  0.4905070000000  0.5270250000000  0.5229240000000 1.0
C      1  0.4724730000000  0.4915270000000  0.5239940000000 1.0
C      1  0.4940220000000  0.4729370000000  0.4783030000000 1.0
C      1  0.4800040000000  0.5095520000000  0.4763630000000 1.0
C      1  0.5035980000000  0.5290790000000  0.4758720000000 1.0
C      1  0.5301430000000  0.4954760000000  0.4759550000000 1.0
C      1  0.4247090000000  0.4599430000000  0.5198770000000 1.0
C      1  0.5421790000000  0.4284350000000  0.5225020000000 1.0
C      1  0.5740460000000  0.5399350000000  0.5205070000000 1.0
C      1  0.4596710000000  0.5735980000000  0.5216550000000 1.0
C      1  0.5764740000000  0.4631510000000  0.4849390000000 1.0
C      1  0.4590560000000  0.4270560000000  0.4793120000000 1.0
C      1  0.4262640000000  0.5400250000000  0.4790680000000 1.0
C      1  0.5408320000000  0.5715700000000  0.4777310000000 1.0
C      1  0.5569610000000  0.5333550000000  0.5441780000000 1.0
C      1  0.4674100000000  0.5579280000000  0.5449790000000 1.0
C      1  0.4412840000000  0.4668280000000  0.5430540000000 1.0
C      1  0.5321620000000  0.4424680000000  0.5455690000000 1.0
C      1  0.4415790000000  0.5315480000000  0.4535540000000 1.0
C      1  0.5312420000000  0.5631500000000  0.4517520000000 1.0
C      1  0.5562460000000  0.4696180000000  0.4501320000000 1.0
C      1  0.4673140000000  0.4427660000000  0.4563940000000 1.0
C      1  0.5351390000000  0.4754730000000  0.4301820000000 1.0
C      1  0.5276440000000  0.5405000000000  0.4339230000000 1.0
C      1  0.4640420000000  0.5258140000000  0.4319180000000 1.0
C      1  0.4793920000000  0.4701020000000  0.4296790000000 1.0
C      1  0.4693240000000  0.4778960000000  0.5696400000000 1.0
C      1  0.4794420000000  0.5282430000000  0.5701650000000 1.0
C      1  0.5273750000000  0.5219550000000  0.5694490000000 1.0
C      1  0.5230610000000  0.4721210000000  0.5696200000000 1.0
C      1  0.4976070000000  0.5325440000000  0.5483060000000 1.0
C      1  0.4674770000000  0.4976760000000  0.5499630000000 1.0
C      1  0.5020190000000  0.4688250000000  0.5512910000000 1.0
C      1  0.5315230000000  0.5024490000000  0.5487110000000 1.0
C      1  0.5037430000000  0.5334710000000  0.4483420000000 1.0
C      1  0.5255440000000  0.4983770000000  0.4463120000000 1.0
C      1  0.4979970000000  0.4655370000000  0.4516440000000 1.0
C      1  0.4711700000000  0.5031590000000  0.4483300000000 1.0
C      1  0.4544030000000  0.4805210000000  0.4451420000000 1.0
C      1  0.5203150000000  0.4526960000000  0.4443450000000 1.0
C      1  0.5471930000000  0.5210930000000  0.4444960000000 1.0
C      1  0.4792700000000  0.5482280000000  0.4427150000000 1.0
C      1  0.5466650000000  0.4795900000000  0.5550400000000 1.0
C      1  0.4792450000000  0.4531240000000  0.5573500000000 1.0
C      1  0.4525380000000  0.5194720000000  0.5556610000000 1.0
C      1  0.5201110000000  0.5475530000000  0.5556700000000 1.0
C      1  0.4196750000000  0.5268350000000  0.5154040000000 1.0
C      1  0.4742010000000  0.4207250000000  0.5154080000000 1.0
C      1  0.5789920000000  0.4733540000000  0.5122850000000 1.0
C      1  0.5266590000000  0.5807130000000  0.5149490000000 1.0
C      1  0.5791220000000  0.5255900000000  0.4868760000000 1.0
C      1  0.5264210000000  0.4187550000000  0.4848850000000 1.0
C      1  0.4198930000000  0.4744600000000  0.4865230000000 1.0
C      1  0.4737100000000  0.5798650000000  0.4857110000000 1.0
C      1  0.4667330000000  0.5348130000000  0.4697440000000 1.0
C      1  0.4648010000000  0.4701350000000  0.4698820000000 1.0
C      1  0.5329410000000  0.4667510000000  0.4697570000000 1.0
C      1  0.5332270000000  0.5249180000000  0.4728330000000 1.0
C      1  0.5308720000000  0.5358120000000  0.5303170000000 1.0
C      1  0.5340360000000  0.4684240000000  0.5322370000000 1.0
C      1  0.4679850000000  0.4646280000000  0.5325220000000 1.0
C      1  0.4641020000000  0.5312980000000  0.5312830000000 1.0
C      1  0.4864870000000  0.4251620000000  0.5402580000000 1.0
C      1  0.5755050000000  0.4849040000000  0.5385810000000 1.0
C      1  0.5150900000000  0.5758010000000  0.5401450000000 1.0
C      1  0.4245580000000  0.5147210000000  0.5405690000000 1.0
C      1  0.5139260000000  0.4251190000000  0.4582500000000 1.0
C      1  0.4249700000000  0.4854470000000  0.4608480000000 1.0
C      1  0.4855520000000  0.5753990000000  0.4606470000000 1.0
C      1  0.5739220000000  0.5150490000000  0.4613380000000 1.0
C      1  0.4490860000000  0.5521150000000  0.4991100000000 1.0
C      1  0.4501100000000  0.4490060000000  0.5002350000000 1.0
C      1  0.5490420000000  0.4488980000000  0.5004170000000 1.0
C      1  0.5508960000000  0.5507620000000  0.4981720000000 1.0
C      1  0.4983670000000  0.4948280000000  0.4266950000000 1.0
C      1  0.5007520000000  0.5065900000000  0.5759370000000 1.0
C      1  0.5002630000000  0.4981340000000  0.5095650000000 1.0
END
