TITL C-2441154-10-675 0.0116897490219056 125000 -6681.35194491597 0 0 49 (C1) n - 1
REM
REM in /home/bkarasulu/work/CARBON/AIRSS/Generating-Clusters/ReaxFF-fromJPCA2015/Units_Real/with-SteepDescent/Higher-Symm
REM
REM
REM
REM
REM
REM ./C.cell (1df0a924f5614ab8850e4351716899ee)
REM
REM compiler GCC version 9.2.1 20190827 (Red Hat 9.2.1-1)
REM options -cpp -mtune=generic -march=x86-64 -g -O0 -fpre-include=/usr/include/finclude/math-vector-fortran.h
REM seed 2096302170 -38737304 -1212102195 2137313974 -1010038365 1695223680 2093516892 -454280191 -7762660 861212165 -1834608726 -1683643205 1022464570 11050040 2136567769 -1953078909 1404191048 919017593 -1921652000 -201819666 -570194918 -1509085423 -88442795 658639300 1340756052 158484031 -2114001718 -1751555549 -450043333 -1928730772 -353308977 -1436003374 902149706
REM
CELL 1.54180   50.00000   50.00000   50.00000   90.00000   90.00000   90.00000
LATT -1
SFAC C  
C      1  0.5346300000000  0.5054910000000  0.4817420000000 1.0
C      1  0.4877810000000  0.5049800000000  0.4629470000000 1.0
C      1  0.4468740000000  0.5080080000000  0.4920060000000 1.0
C      1  0.4796420000000  0.5080950000000  0.5431750000000 1.0
C      1  0.5361320000000  0.5050460000000  0.5305370000000 1.0
C      1  0.4432240000000  0.4918530000000  0.4680070000000 1.0
C      1  0.4547120000000  0.4913840000000  0.5385990000000 1.0
C      1  0.5232250000000  0.4896370000000  0.5524920000000 1.0
C      1  0.5653170000000  0.4805900000000  0.4939390000000 1.0
C      1  0.5010630000000  0.4937420000000  0.4380340000000 1.0
C      1  0.5510840000000  0.4682520000000  0.4702910000000 1.0
C      1  0.4895370000000  0.4675980000000  0.4443640000000 1.0
C      1  0.4528070000000  0.4610890000000  0.4944060000000 1.0
C      1  0.4732940000000  0.4682070000000  0.5520770000000 1.0
C      1  0.5365810000000  0.4635300000000  0.5377010000000 1.0
C      1  0.5515560000000  0.4829060000000  0.5202110000000 1.0
C      1  0.5440800000000  0.4931370000000  0.4571240000000 1.0
C      1  0.4696630000000  0.4796540000000  0.4627870000000 1.0
C      1  0.4487440000000  0.4854890000000  0.5093940000000 1.0
C      1  0.4951130000000  0.4879020000000  0.5530540000000 1.0
C      1  0.5344580000000  0.5335100000000  0.5239010000000 1.0
C      1  0.5395170000000  0.5323130000000  0.4753680000000 1.0
C      1  0.4814070000000  0.5341480000000  0.4564960000000 1.0
C      1  0.4584770000000  0.5350390000000  0.4955850000000 1.0
C      1  0.4873510000000  0.5352990000000  0.5373520000000 1.0
C      1  0.5318670000000  0.4456910000000  0.4679070000000 1.0
C      1  0.5054850000000  0.4443650000000  0.4543240000000 1.0
C      1  0.4661790000000  0.4369540000000  0.4949780000000 1.0
C      1  0.4822920000000  0.4442470000000  0.5394120000000 1.0
C      1  0.5228690000000  0.4411070000000  0.5265950000000 1.0
C      1  0.4315840000000  0.5108670000000  0.4449240000000 1.0
C      1  0.4329760000000  0.5152470000000  0.5474070000000 1.0
C      1  0.5263320000000  0.5113670000000  0.5788360000000 1.0
C      1  0.5743080000000  0.5073680000000  0.4964260000000 1.0
C      1  0.5263050000000  0.5082390000000  0.4391130000000 1.0
C      1  0.5133140000000  0.5452970000000  0.5405640000000 1.0
C      1  0.5447770000000  0.5467590000000  0.4999290000000 1.0
C      1  0.5048700000000  0.5494890000000  0.4633810000000 1.0
C      1  0.4603160000000  0.5478640000000  0.4696100000000 1.0
C      1  0.4671450000000  0.5476230000000  0.5205110000000 1.0
C      1  0.5692950000000  0.5333030000000  0.5020660000000 1.0
C      1  0.5269120000000  0.5351790000000  0.4503930000000 1.0
C      1  0.4417030000000  0.5362040000000  0.4519280000000 1.0
C      1  0.4449610000000  0.5361730000000  0.5340080000000 1.0
C      1  0.5169480000000  0.5327390000000  0.5648820000000 1.0
C      1  0.4946500000000  0.5525740000000  0.4904440000000 1.0
C      1  0.4955510000000  0.4478170000000  0.5099950000000 1.0
C      1  0.5072940000000  0.4975300000000  0.4885120000000 1.0
C      1  0.5016300000000  0.4736160000000  0.4988460000000 1.0
END
