TITL C-2441156-4686-619 0.0915618475992183 125000 -14446.4793454308 0 0 115 (C1) n - 1
REM
REM in /home/bkarasulu/work/CARBON/AIRSS/Generating-Clusters/ReaxFF-fromJPCA2015/Units_Real/with-SteepDescent/Higher-Symm
REM
REM
REM
REM
REM
REM ./C.cell (1df0a924f5614ab8850e4351716899ee)
REM
REM compiler GCC version 9.2.1 20190827 (Red Hat 9.2.1-1)
REM options -cpp -mtune=generic -march=x86-64 -g -O0 -fpre-include=/usr/include/finclude/math-vector-fortran.h
REM seed 1216762613 -1709542624 1662176579 -1174435654 -1597191764 1377541810 811440431 -345128265 -2113723024 840799311 1433701789 -854869405 166392595 -1248116875 -806567767 237740683 -448432501 754601715 510932802 -64051063 160003128 407995904 -1708680662 -98220153 -1013814615 839925163 175832734 -902158945 1986465607 479919689 -1974334549 38996190 1088996200
REM
CELL 1.54180   50.00000   50.00000   50.00000   90.00000   90.00000   90.00000
LATT -1
SFAC C  
C      1  0.4244560000000  0.4906560000000  0.5058150000000 1.0
C      1  0.4665620000000  0.4844070000000  0.4210170000000 1.0
C      1  0.5571240000000  0.4890520000000  0.4496030000000 1.0
C      1  0.5734190000000  0.4818730000000  0.5464130000000 1.0
C      1  0.4809290000000  0.4833470000000  0.5843030000000 1.0
C      1  0.4132740000000  0.5166630000000  0.5070490000000 1.0
C      1  0.4708480000000  0.5107090000000  0.4305580000000 1.0
C      1  0.5652260000000  0.5176190000000  0.4443410000000 1.0
C      1  0.5642630000000  0.5097850000000  0.5385080000000 1.0
C      1  0.4822160000000  0.5091810000000  0.5732700000000 1.0
C      1  0.5583380000000  0.4328390000000  0.4896510000000 1.0
C      1  0.5265830000000  0.4286480000000  0.5532600000000 1.0
C      1  0.4584240000000  0.4299960000000  0.5423790000000 1.0
C      1  0.4481460000000  0.4305410000000  0.4734330000000 1.0
C      1  0.5095620000000  0.4319960000000  0.4374690000000 1.0
C      1  0.5583790000000  0.5714110000000  0.4958200000000 1.0
C      1  0.5287400000000  0.5677380000000  0.5572410000000 1.0
C      1  0.4554980000000  0.5670900000000  0.5453960000000 1.0
C      1  0.4491380000000  0.5693380000000  0.4734480000000 1.0
C      1  0.5107370000000  0.5692820000000  0.4416470000000 1.0
C      1  0.5413400000000  0.4525000000000  0.4694520000000 1.0
C      1  0.5440890000000  0.4535820000000  0.5273820000000 1.0
C      1  0.4660800000000  0.4566400000000  0.5521100000000 1.0
C      1  0.4378990000000  0.4547920000000  0.4843970000000 1.0
C      1  0.4949330000000  0.4552420000000  0.4364970000000 1.0
C      1  0.5357860000000  0.5446440000000  0.4673340000000 1.0
C      1  0.5399400000000  0.5435230000000  0.5484810000000 1.0
C      1  0.4675200000000  0.5438800000000  0.5532260000000 1.0
C      1  0.4411180000000  0.5434300000000  0.4844340000000 1.0
C      1  0.4961460000000  0.5455330000000  0.4379010000000 1.0
C      1  0.5636210000000  0.5567220000000  0.4715940000000 1.0
C      1  0.5543220000000  0.5650540000000  0.5427480000000 1.0
C      1  0.4782300000000  0.5663850000000  0.5644420000000 1.0
C      1  0.4349870000000  0.5657170000000  0.4999050000000 1.0
C      1  0.4806170000000  0.5669850000000  0.4353160000000 1.0
C      1  0.5691110000000  0.4431730000000  0.4651680000000 1.0
C      1  0.5511680000000  0.4432820000000  0.5540130000000 1.0
C      1  0.4786320000000  0.4343680000000  0.5635870000000 1.0
C      1  0.4338460000000  0.4325910000000  0.4998280000000 1.0
C      1  0.4799630000000  0.4327480000000  0.4362820000000 1.0
C      1  0.4944770000000  0.5247890000000  0.4207500000000 1.0
C      1  0.5758940000000  0.5297190000000  0.4685530000000 1.0
C      1  0.5521870000000  0.5229270000000  0.5611980000000 1.0
C      1  0.4579440000000  0.5228960000000  0.5669860000000 1.0
C      1  0.4185470000000  0.5260600000000  0.4805310000000 1.0
C      1  0.4929470000000  0.4750570000000  0.4173900000000 1.0
C      1  0.5763880000000  0.4714980000000  0.4657250000000 1.0
C      1  0.5550640000000  0.4700890000000  0.5655180000000 1.0
C      1  0.4566910000000  0.4753520000000  0.5713330000000 1.0
C      1  0.4233090000000  0.4767750000000  0.4805790000000 1.0
C      1  0.4364500000000  0.4864620000000  0.5542170000000 1.0
C      1  0.4308310000000  0.4864940000000  0.4549620000000 1.0
C      1  0.5190000000000  0.4870820000000  0.4176790000000 1.0
C      1  0.5760050000000  0.4836570000000  0.4911630000000 1.0
C      1  0.5306430000000  0.4832290000000  0.5760600000000 1.0
C      1  0.4351790000000  0.5143560000000  0.5521500000000 1.0
C      1  0.4280720000000  0.5146740000000  0.4559270000000 1.0
C      1  0.5216040000000  0.5149640000000  0.4185820000000 1.0
C      1  0.5792160000000  0.5122750000000  0.4920320000000 1.0
C      1  0.5311960000000  0.5116810000000  0.5764860000000 1.0
C      1  0.4760980000000  0.5604640000000  0.5075160000000 1.0
C      1  0.4867170000000  0.5550770000000  0.4808040000000 1.0
C      1  0.5163200000000  0.5586880000000  0.4821560000000 1.0
C      1  0.5233550000000  0.5591770000000  0.5106010000000 1.0
C      1  0.4986760000000  0.5635950000000  0.5256930000000 1.0
C      1  0.4759820000000  0.4427570000000  0.5030790000000 1.0
C      1  0.4917990000000  0.4410970000000  0.4779040000000 1.0
C      1  0.5202490000000  0.4420540000000  0.4870920000000 1.0
C      1  0.5211290000000  0.4424840000000  0.5165960000000 1.0
C      1  0.4939030000000  0.4408050000000  0.5249090000000 1.0
C      1  0.4723150000000  0.5204740000000  0.5075150000000 1.0
C      1  0.4865170000000  0.5237720000000  0.4788710000000 1.0
C      1  0.5204530000000  0.5199970000000  0.4781500000000 1.0
C      1  0.5238320000000  0.5244730000000  0.5088940000000 1.0
C      1  0.4965440000000  0.5213360000000  0.5241200000000 1.0
C      1  0.4754500000000  0.4788090000000  0.5050860000000 1.0
C      1  0.4846180000000  0.4813400000000  0.4760530000000 1.0
C      1  0.5131810000000  0.4805730000000  0.4824710000000 1.0
C      1  0.5211380000000  0.4834770000000  0.5102980000000 1.0
C      1  0.4975960000000  0.4795880000000  0.5270490000000 1.0
C      1  0.4213120000000  0.4687680000000  0.5327030000000 1.0
C      1  0.4486860000000  0.4698570000000  0.4381640000000 1.0
C      1  0.5449340000000  0.4697280000000  0.4246130000000 1.0
C      1  0.5892000000000  0.4664520000000  0.5263580000000 1.0
C      1  0.5057890000000  0.4690800000000  0.5817360000000 1.0
C      1  0.4231100000000  0.5303060000000  0.5303160000000 1.0
C      1  0.4437910000000  0.5321210000000  0.4345390000000 1.0
C      1  0.5454690000000  0.5307060000000  0.4277600000000 1.0
C      1  0.5836790000000  0.5291710000000  0.5186490000000 1.0
C      1  0.5066140000000  0.5298200000000  0.5854400000000 1.0
C      1  0.4352170000000  0.5564150000000  0.5272930000000 1.0
C      1  0.4552040000000  0.5591010000000  0.4467330000000 1.0
C      1  0.5368800000000  0.5554700000000  0.4403340000000 1.0
C      1  0.5680000000000  0.5576650000000  0.5178150000000 1.0
C      1  0.5053510000000  0.5577990000000  0.5706010000000 1.0
C      1  0.4359090000000  0.4411520000000  0.5271990000000 1.0
C      1  0.4551720000000  0.4430140000000  0.4474870000000 1.0
C      1  0.5354460000000  0.4441910000000  0.4410930000000 1.0
C      1  0.5653360000000  0.4547700000000  0.5084640000000 1.0
C      1  0.5063970000000  0.4420700000000  0.5691000000000 1.0
C      1  0.5143310000000  0.5879060000000  0.4754180000000 1.0
C      1  0.5285410000000  0.5887020000000  0.5028450000000 1.0
C      1  0.5028130000000  0.5920410000000  0.5190570000000 1.0
C      1  0.4768960000000  0.5903930000000  0.5041470000000 1.0
C      1  0.4850130000000  0.5867050000000  0.4760130000000 1.0
C      1  0.5236450000000  0.4121410000000  0.4909840000000 1.0
C      1  0.5207420000000  0.4121480000000  0.5212360000000 1.0
C      1  0.4907160000000  0.4115260000000  0.5253410000000 1.0
C      1  0.4735390000000  0.4119510000000  0.5001840000000 1.0
C      1  0.4956500000000  0.4116960000000  0.4803420000000 1.0
C      1  0.4762350000000  0.5039770000000  0.4605740000000 1.0
C      1  0.5407090000000  0.5029500000000  0.5187120000000 1.0
C      1  0.4546340000000  0.4979180000000  0.5105420000000 1.0
C      1  0.5305080000000  0.4960200000000  0.4657970000000 1.0
C      1  0.4958060000000  0.5020990000000  0.5450140000000 1.0
END
