TITL C-2441163-1170-1051 0.016398217616797 125000 -6842.78322734813 0 0 52 (C1) n - 1
REM
REM in /home/bkarasulu/work/CARBON/AIRSS/Generating-Clusters/ReaxFF-fromJPCA2015/Units_Real/with-SteepDescent/Higher-Symm
REM
REM
REM
REM
REM
REM ./C.cell (1df0a924f5614ab8850e4351716899ee)
REM
REM compiler GCC version 9.2.1 20190827 (Red Hat 9.2.1-1)
REM options -cpp -mtune=generic -march=x86-64 -g -O0 -fpre-include=/usr/include/finclude/math-vector-fortran.h
REM seed 1320195575 -2020237578 296819442 995768174 1696252406 -1131329327 5262600 603553793 987878078 -372426957 -547331211 -764361494 -456279501 1779379533 1961867133 241946921 1161287404 -1239882939 -955726616 -1360003008 1187843879 -2023900013 1226632915 -1708972152 -854868106 636347957 468907878 968711519 2019661229 -1115460618 -415841604 -2012844438 1458642018
REM
CELL 1.54180   50.00000   50.00000   50.00000   90.00000   90.00000   90.00000
LATT -1
SFAC C  
C      1  0.4293490000000  0.5251460000000  0.4677720000000 1.0
C      1  0.4895920000000  0.4526370000000  0.5277840000000 1.0
C      1  0.5736360000000  0.5010730000000  0.4910330000000 1.0
C      1  0.4649340000000  0.5137930000000  0.4486320000000 1.0
C      1  0.5474680000000  0.4614270000000  0.4742150000000 1.0
C      1  0.5474810000000  0.4814620000000  0.4531420000000 1.0
C      1  0.5038020000000  0.5254520000000  0.5205030000000 1.0
C      1  0.5053260000000  0.5642060000000  0.5377940000000 1.0
C      1  0.4394950000000  0.4900580000000  0.4889800000000 1.0
C      1  0.5161810000000  0.5149140000000  0.4486500000000 1.0
C      1  0.4813570000000  0.4457190000000  0.5004710000000 1.0
C      1  0.4895290000000  0.4935620000000  0.5586420000000 1.0
C      1  0.4277670000000  0.5158880000000  0.4944720000000 1.0
C      1  0.4814110000000  0.4757030000000  0.4872480000000 1.0
C      1  0.5005610000000  0.4674180000000  0.4368460000000 1.0
C      1  0.4800630000000  0.4820550000000  0.5142540000000 1.0
C      1  0.4906540000000  0.5273500000000  0.4526330000000 1.0
C      1  0.4515660000000  0.4891090000000  0.5165810000000 1.0
C      1  0.5178520000000  0.5561700000000  0.4878530000000 1.0
C      1  0.4727340000000  0.5614750000000  0.4949520000000 1.0
C      1  0.4640240000000  0.5398770000000  0.5368620000000 1.0
C      1  0.4657370000000  0.5328670000000  0.4923250000000 1.0
C      1  0.4732250000000  0.4677270000000  0.4461320000000 1.0
C      1  0.4466160000000  0.4713810000000  0.5429890000000 1.0
C      1  0.5446330000000  0.5113520000000  0.5332850000000 1.0
C      1  0.5217030000000  0.4508140000000  0.5337440000000 1.0
C      1  0.4912820000000  0.5356440000000  0.4793720000000 1.0
C      1  0.5359600000000  0.4715730000000  0.5502500000000 1.0
C      1  0.4955620000000  0.4351830000000  0.4784290000000 1.0
C      1  0.5284710000000  0.5137290000000  0.4756530000000 1.0
C      1  0.5601950000000  0.4859480000000  0.5406030000000 1.0
C      1  0.5291440000000  0.5188250000000  0.5572450000000 1.0
C      1  0.4592820000000  0.4872790000000  0.4658700000000 1.0
C      1  0.5505700000000  0.4794590000000  0.4977360000000 1.0
C      1  0.5222180000000  0.4875730000000  0.4394410000000 1.0
C      1  0.4881800000000  0.4436130000000  0.4518080000000 1.0
C      1  0.5312700000000  0.4473060000000  0.5082010000000 1.0
C      1  0.5213180000000  0.4546530000000  0.4815470000000 1.0
C      1  0.4501140000000  0.5234260000000  0.5166490000000 1.0
C      1  0.4414650000000  0.5289550000000  0.4463880000000 1.0
C      1  0.4997570000000  0.5778200000000  0.4870710000000 1.0
C      1  0.5178990000000  0.4918160000000  0.5624870000000 1.0
C      1  0.4742040000000  0.4696740000000  0.5511500000000 1.0
C      1  0.5085460000000  0.4865420000000  0.4812890000000 1.0
C      1  0.4876600000000  0.5239050000000  0.5469110000000 1.0
C      1  0.5112340000000  0.5423710000000  0.5571110000000 1.0
C      1  0.5564430000000  0.5051610000000  0.4684100000000 1.0
C      1  0.5735750000000  0.4847270000000  0.5144600000000 1.0
C      1  0.5038990000000  0.4976410000000  0.5109230000000 1.0
C      1  0.5257340000000  0.5330640000000  0.5033860000000 1.0
C      1  0.4779060000000  0.5621420000000  0.5252090000000 1.0
C      1  0.5314180000000  0.4933370000000  0.5146040000000 1.0
END
