TITL C-2441160-1326-778 0.090170664095323 125000 -14488.8928180373 0 0 114 (C1) n - 1
REM
REM in /home/bkarasulu/work/CARBON/AIRSS/Generating-Clusters/ReaxFF-fromJPCA2015/Units_Real/with-SteepDescent/Higher-Symm
REM
REM
REM
REM
REM
REM ./C.cell (1df0a924f5614ab8850e4351716899ee)
REM
REM compiler GCC version 9.2.1 20190827 (Red Hat 9.2.1-1)
REM options -cpp -mtune=generic -march=x86-64 -g -O0 -fpre-include=/usr/include/finclude/math-vector-fortran.h
REM seed -1960850510 2112969146 -1466254265 595553535 327852552 -2118290533 -2113553644 32980330 457032365 796863855 -1993405433 1399753559 1999746411 -207430518 -1072922437 408080676 -2034328511 -393171364 2072875250 -1840760753 840630990 932464249 -1524121316 -838461391 1153037365 589039956 1055990585 787702517 2024017293 2052879954 -1314887055 281452892 2040868032
REM
CELL 1.54180   50.00000   50.00000   50.00000   90.00000   90.00000   90.00000
LATT -1
SFAC C  
C      1  0.4303910000000  0.5408710000000  0.4843470000000 1.0
C      1  0.5752360000000  0.4610190000000  0.5172810000000 1.0
C      1  0.4902030000000  0.5117310000000  0.5881180000000 1.0
C      1  0.5093160000000  0.4891560000000  0.4128400000000 1.0
C      1  0.5521030000000  0.5132030000000  0.4207810000000 1.0
C      1  0.4506000000000  0.4854550000000  0.5756170000000 1.0
C      1  0.4042650000000  0.4825000000000  0.5238550000000 1.0
C      1  0.5957900000000  0.5167410000000  0.4743010000000 1.0
C      1  0.4171660000000  0.5332650000000  0.5339880000000 1.0
C      1  0.5821770000000  0.4669870000000  0.4653680000000 1.0
C      1  0.5300020000000  0.4402460000000  0.5529830000000 1.0
C      1  0.4692190000000  0.5595000000000  0.4460270000000 1.0
C      1  0.4699340000000  0.5758450000000  0.4722900000000 1.0
C      1  0.5151920000000  0.4207350000000  0.5345670000000 1.0
C      1  0.5192320000000  0.4449760000000  0.4894350000000 1.0
C      1  0.4859230000000  0.5522700000000  0.5104580000000 1.0
C      1  0.4894500000000  0.4647390000000  0.5727100000000 1.0
C      1  0.5111510000000  0.5355840000000  0.4260060000000 1.0
C      1  0.5276580000000  0.5881220000000  0.5241790000000 1.0
C      1  0.4727220000000  0.4126170000000  0.4803550000000 1.0
C      1  0.4175950000000  0.5037540000000  0.5400730000000 1.0
C      1  0.5817800000000  0.4961630000000  0.4582110000000 1.0
C      1  0.4736760000000  0.4243220000000  0.4528410000000 1.0
C      1  0.5255910000000  0.5748510000000  0.5489060000000 1.0
C      1  0.5283950000000  0.4587420000000  0.5108350000000 1.0
C      1  0.4748670000000  0.5366970000000  0.4896830000000 1.0
C      1  0.5324380000000  0.4759310000000  0.4286920000000 1.0
C      1  0.4657040000000  0.5247650000000  0.5728610000000 1.0
C      1  0.4494270000000  0.4582120000000  0.5630310000000 1.0
C      1  0.5623310000000  0.5332250000000  0.4370530000000 1.0
C      1  0.5186150000000  0.5377570000000  0.5725800000000 1.0
C      1  0.4809750000000  0.4621490000000  0.4277900000000 1.0
C      1  0.4770930000000  0.4866210000000  0.5884370000000 1.0
C      1  0.5235490000000  0.5138490000000  0.4115340000000 1.0
C      1  0.5406750000000  0.4517950000000  0.4429890000000 1.0
C      1  0.4584800000000  0.5488500000000  0.5572070000000 1.0
C      1  0.4439220000000  0.5673300000000  0.4834390000000 1.0
C      1  0.5547730000000  0.4408340000000  0.5127860000000 1.0
C      1  0.4927280000000  0.5009440000000  0.5112820000000 1.0
C      1  0.5091530000000  0.5001240000000  0.4874170000000 1.0
C      1  0.5145420000000  0.4212690000000  0.5037060000000 1.0
C      1  0.4851480000000  0.5794950000000  0.4981540000000 1.0
C      1  0.5041160000000  0.5262940000000  0.5496160000000 1.0
C      1  0.4954750000000  0.4737170000000  0.4509030000000 1.0
C      1  0.5568270000000  0.4274380000000  0.4858590000000 1.0
C      1  0.4407360000000  0.5731020000000  0.5132170000000 1.0
C      1  0.4129470000000  0.4898790000000  0.4698600000000 1.0
C      1  0.5887060000000  0.5111070000000  0.5295110000000 1.0
C      1  0.4784320000000  0.4874230000000  0.4132050000000 1.0
C      1  0.5208250000000  0.5127190000000  0.5876510000000 1.0
C      1  0.5103570000000  0.5689270000000  0.4639790000000 1.0
C      1  0.4869850000000  0.4309070000000  0.5381580000000 1.0
C      1  0.4387240000000  0.5214340000000  0.4636260000000 1.0
C      1  0.5611430000000  0.4812340000000  0.5382320000000 1.0
C      1  0.4367740000000  0.5546630000000  0.5391310000000 1.0
C      1  0.5623740000000  0.4459410000000  0.4603890000000 1.0
C      1  0.4517760000000  0.4609040000000  0.5338550000000 1.0
C      1  0.5481250000000  0.5496030000000  0.4468700000000 1.0
C      1  0.4974310000000  0.5752720000000  0.5477730000000 1.0
C      1  0.5022590000000  0.4248020000000  0.4541110000000 1.0
C      1  0.5429340000000  0.5023320000000  0.5703560000000 1.0
C      1  0.4564300000000  0.4973120000000  0.4311920000000 1.0
C      1  0.5210420000000  0.5215910000000  0.5270320000000 1.0
C      1  0.4783520000000  0.4782900000000  0.4731510000000 1.0
C      1  0.4374950000000  0.4360310000000  0.5303170000000 1.0
C      1  0.5612740000000  0.5616910000000  0.4659950000000 1.0
C      1  0.5225600000000  0.5569100000000  0.4400710000000 1.0
C      1  0.4743150000000  0.4432440000000  0.5630860000000 1.0
C      1  0.5168250000000  0.5267850000000  0.4807330000000 1.0
C      1  0.4867310000000  0.4748580000000  0.5175440000000 1.0
C      1  0.4810810000000  0.4606800000000  0.4949840000000 1.0
C      1  0.5162870000000  0.5414840000000  0.5064160000000 1.0
C      1  0.5037130000000  0.4582320000000  0.5275210000000 1.0
C      1  0.4963300000000  0.5439330000000  0.4717740000000 1.0
C      1  0.4588730000000  0.5914660000000  0.5237420000000 1.0
C      1  0.5412950000000  0.4044970000000  0.4796240000000 1.0
C      1  0.4461080000000  0.5433620000000  0.4467930000000 1.0
C      1  0.5540170000000  0.4560220000000  0.5510930000000 1.0
C      1  0.5399340000000  0.5535420000000  0.5601890000000 1.0
C      1  0.4596030000000  0.4462250000000  0.4403440000000 1.0
C      1  0.5368130000000  0.5661030000000  0.5060930000000 1.0
C      1  0.4633070000000  0.4370640000000  0.4943260000000 1.0
C      1  0.5145850000000  0.4511860000000  0.4604930000000 1.0
C      1  0.4852120000000  0.5482560000000  0.5421030000000 1.0
C      1  0.5971730000000  0.5119970000000  0.5028460000000 1.0
C      1  0.4053220000000  0.4874980000000  0.4959270000000 1.0
C      1  0.5454430000000  0.4967870000000  0.4438250000000 1.0
C      1  0.4558170000000  0.5048270000000  0.5548800000000 1.0
C      1  0.4298980000000  0.4860280000000  0.4464240000000 1.0
C      1  0.5701980000000  0.5112960000000  0.5544060000000 1.0
C      1  0.4683770000000  0.5114160000000  0.5024720000000 1.0
C      1  0.5334960000000  0.4872090000000  0.4963350000000 1.0
C      1  0.4983170000000  0.5911300000000  0.5223580000000 1.0
C      1  0.5022570000000  0.4087520000000  0.4783060000000 1.0
C      1  0.5584070000000  0.5453640000000  0.5170110000000 1.0
C      1  0.4408710000000  0.4533840000000  0.4848460000000 1.0
C      1  0.5813180000000  0.5422760000000  0.4788560000000 1.0
C      1  0.4150000000000  0.4548420000000  0.5193440000000 1.0
C      1  0.4393270000000  0.4600150000000  0.4566980000000 1.0
C      1  0.5599190000000  0.5381960000000  0.5449250000000 1.0
C      1  0.5381620000000  0.4974460000000  0.5242030000000 1.0
C      1  0.4603860000000  0.5015600000000  0.4764980000000 1.0
C      1  0.5599710000000  0.5291210000000  0.4934880000000 1.0
C      1  0.4387860000000  0.4695360000000  0.5090340000000 1.0
C      1  0.4844120000000  0.5355690000000  0.4349720000000 1.0
C      1  0.5164740000000  0.4642840000000  0.5652300000000 1.0
C      1  0.5732240000000  0.4738840000000  0.4918970000000 1.0
C      1  0.4305820000000  0.5270220000000  0.5091920000000 1.0
C      1  0.5366360000000  0.5731820000000  0.4772280000000 1.0
C      1  0.4618960000000  0.4239310000000  0.5191380000000 1.0
C      1  0.5566860000000  0.4994250000000  0.4786670000000 1.0
C      1  0.4439410000000  0.5039710000000  0.5241910000000 1.0
C      1  0.5234070000000  0.4902720000000  0.5531740000000 1.0
C      1  0.4759900000000  0.5100780000000  0.4476950000000 1.0
END
