TITL C-2441167-4473-369 0.0215641564316914 125000 -17343.4931002795 0 0 117 (C1) n - 1
REM
REM in /home/bkarasulu/work/CARBON/AIRSS/Generating-Clusters/ReaxFF-fromJPCA2015/Units_Real/with-SteepDescent/Higher-Symm
REM
REM
REM
REM
REM
REM ./C.cell (1df0a924f5614ab8850e4351716899ee)
REM
REM compiler GCC version 9.2.1 20190827 (Red Hat 9.2.1-1)
REM options -cpp -mtune=generic -march=x86-64 -g -O0 -fpre-include=/usr/include/finclude/math-vector-fortran.h
REM seed -1821483084 -1553252605 931517975 -1962486845 -1816311828 -479140131 1177234102 -1562472354 -104636977 -1402467873 -998731507 2087351021 -1034875439 1885052805 -15444047 1987012414 -228696873 364012724 -162290445 -2084119425 -1621126828 -409800225 84848420 1469725131 -1861968839 -1412526626 -1471049278 1152124398 -1541883132 275914588 -1100077212 -738288937 137306018
REM
CELL 1.54180   50.00000   50.00000   50.00000   90.00000   90.00000   90.00000
LATT -1
SFAC C  
C      1  0.4779700000000  0.5497220000000  0.4215190000000 1.0
C      1  0.4432680000000  0.5483460000000  0.5586230000000 1.0
C      1  0.5786770000000  0.5481570000000  0.5194580000000 1.0
C      1  0.4779880000000  0.4500140000000  0.5782360000000 1.0
C      1  0.4434550000000  0.4512460000000  0.4413310000000 1.0
C      1  0.5787140000000  0.4511820000000  0.4806580000000 1.0
C      1  0.4955000000000  0.4695240000000  0.5914070000000 1.0
C      1  0.5805580000000  0.4697070000000  0.4580100000000 1.0
C      1  0.4231520000000  0.4698510000000  0.4512650000000 1.0
C      1  0.4954200000000  0.5299980000000  0.4085860000000 1.0
C      1  0.5808250000000  0.5297010000000  0.5421470000000 1.0
C      1  0.4227360000000  0.5298280000000  0.5488360000000 1.0
C      1  0.5474960000000  0.4272910000000  0.5110350000000 1.0
C      1  0.4848550000000  0.4263320000000  0.4512120000000 1.0
C      1  0.4665150000000  0.4253890000000  0.5362620000000 1.0
C      1  0.5472940000000  0.5721590000000  0.4890760000000 1.0
C      1  0.4849370000000  0.5731740000000  0.5488930000000 1.0
C      1  0.4664430000000  0.5740020000000  0.4637000000000 1.0
C      1  0.5146750000000  0.4719470000000  0.5246200000000 1.0
C      1  0.5132350000000  0.4717280000000  0.4734460000000 1.0
C      1  0.4724980000000  0.4737720000000  0.5017600000000 1.0
C      1  0.5146410000000  0.5275480000000  0.4751740000000 1.0
C      1  0.5134220000000  0.5278320000000  0.5265050000000 1.0
C      1  0.4724240000000  0.5255500000000  0.4984070000000 1.0
C      1  0.4718150000000  0.5177490000000  0.5916160000000 1.0
C      1  0.5932160000000  0.5175570000000  0.4783040000000 1.0
C      1  0.4364580000000  0.5166530000000  0.4302160000000 1.0
C      1  0.4717840000000  0.4815060000000  0.4080290000000 1.0
C      1  0.5934060000000  0.4815920000000  0.5218440000000 1.0
C      1  0.4362390000000  0.4829790000000  0.5696820000000 1.0
C      1  0.5343260000000  0.4463490000000  0.5654790000000 1.0
C      1  0.5391360000000  0.4462860000000  0.4375690000000 1.0
C      1  0.4267280000000  0.4461010000000  0.4972960000000 1.0
C      1  0.5342590000000  0.5532040000000  0.4345050000000 1.0
C      1  0.5395710000000  0.5533690000000  0.5627220000000 1.0
C      1  0.4267650000000  0.5532930000000  0.5027700000000 1.0
C      1  0.5218610000000  0.5046520000000  0.4326510000000 1.0
C      1  0.4308400000000  0.5045730000000  0.5147930000000 1.0
C      1  0.5471510000000  0.5046080000000  0.5527510000000 1.0
C      1  0.5219260000000  0.4949070000000  0.5672140000000 1.0
C      1  0.4309340000000  0.4947920000000  0.4853800000000 1.0
C      1  0.5470010000000  0.4950190000000  0.4471650000000 1.0
C      1  0.5916370000000  0.4640410000000  0.5026750000000 1.0
C      1  0.4558480000000  0.4641150000000  0.4189340000000 1.0
C      1  0.4548590000000  0.4664280000000  0.5781740000000 1.0
C      1  0.5913310000000  0.5349320000000  0.4975450000000 1.0
C      1  0.4558240000000  0.5348660000000  0.5804940000000 1.0
C      1  0.4548700000000  0.5332840000000  0.4215620000000 1.0
C      1  0.5591620000000  0.5477510000000  0.4772130000000 1.0
C      1  0.4504600000000  0.5488430000000  0.4600260000000 1.0
C      1  0.4900300000000  0.5481480000000  0.5640330000000 1.0
C      1  0.5592440000000  0.4518540000000  0.5227590000000 1.0
C      1  0.4504980000000  0.4505870000000  0.5399200000000 1.0
C      1  0.4896120000000  0.4513860000000  0.4360480000000 1.0
C      1  0.5133260000000  0.4831790000000  0.4121860000000 1.0
C      1  0.4172870000000  0.4830470000000  0.5323950000000 1.0
C      1  0.5689160000000  0.4833220000000  0.5555420000000 1.0
C      1  0.5134620000000  0.5163780000000  0.5879070000000 1.0
C      1  0.4175860000000  0.5163410000000  0.4676530000000 1.0
C      1  0.5688740000000  0.5161910000000  0.4444820000000 1.0
C      1  0.4918630000000  0.4999860000000  0.5980910000000 1.0
C      1  0.5886470000000  0.4995670000000  0.4577800000000 1.0
C      1  0.4194330000000  0.4996680000000  0.4439610000000 1.0
C      1  0.4917400000000  0.4995240000000  0.4019460000000 1.0
C      1  0.5887770000000  0.4997770000000  0.5422150000000 1.0
C      1  0.4191120000000  0.4999350000000  0.5559560000000 1.0
C      1  0.4683750000000  0.5770290000000  0.4924140000000 1.0
C      1  0.5093440000000  0.5764450000000  0.5329340000000 1.0
C      1  0.5213750000000  0.5746220000000  0.4757850000000 1.0
C      1  0.4683150000000  0.4222550000000  0.5075650000000 1.0
C      1  0.5092120000000  0.4229330000000  0.4672120000000 1.0
C      1  0.5215210000000  0.4247920000000  0.5241570000000 1.0
C      1  0.5089750000000  0.5536290000000  0.5175310000000 1.0
C      1  0.5042310000000  0.5524620000000  0.4792900000000 1.0
C      1  0.4866030000000  0.5525410000000  0.5007440000000 1.0
C      1  0.5090020000000  0.4458950000000  0.4824590000000 1.0
C      1  0.5043420000000  0.4469580000000  0.5204280000000 1.0
C      1  0.4863870000000  0.4468370000000  0.4991070000000 1.0
C      1  0.5030540000000  0.4879920000000  0.5450250000000 1.0
C      1  0.5369070000000  0.4876850000000  0.4745200000000 1.0
C      1  0.4605710000000  0.4886600000000  0.4812680000000 1.0
C      1  0.5029130000000  0.5115100000000  0.4548130000000 1.0
C      1  0.5371020000000  0.5118600000000  0.5253910000000 1.0
C      1  0.4603660000000  0.5109830000000  0.5190420000000 1.0
C      1  0.4905570000000  0.5261100000000  0.5435980000000 1.0
C      1  0.5410820000000  0.5258190000000  0.4860440000000 1.0
C      1  0.4674010000000  0.5269920000000  0.4706090000000 1.0
C      1  0.4903300000000  0.4733590000000  0.4564200000000 1.0
C      1  0.5411280000000  0.4737170000000  0.5138320000000 1.0
C      1  0.4673510000000  0.4726520000000  0.5295240000000 1.0
C      1  0.5222510000000  0.4670330000000  0.5815200000000 1.0
C      1  0.5590410000000  0.4670300000000  0.4396980000000 1.0
C      1  0.4182550000000  0.4666950000000  0.4791030000000 1.0
C      1  0.5221620000000  0.5325500000000  0.4184550000000 1.0
C      1  0.5593530000000  0.5325150000000  0.5605010000000 1.0
C      1  0.4181340000000  0.5327440000000  0.5209330000000 1.0
C      1  0.4255010000000  0.5435900000000  0.4748530000000 1.0
C      1  0.5158520000000  0.5435320000000  0.5776850000000 1.0
C      1  0.5586090000000  0.5432130000000  0.4480310000000 1.0
C      1  0.4254700000000  0.4558530000000  0.5251970000000 1.0
C      1  0.5154600000000  0.4560750000000  0.4225770000000 1.0
C      1  0.5586810000000  0.4562960000000  0.5519690000000 1.0
C      1  0.4870910000000  0.4304530000000  0.5570170000000 1.0
C      1  0.5553030000000  0.4320230000000  0.4833840000000 1.0
C      1  0.4577540000000  0.4318860000000  0.4595720000000 1.0
C      1  0.4869970000000  0.5691900000000  0.4428470000000 1.0
C      1  0.5552480000000  0.5673400000000  0.5166830000000 1.0
C      1  0.4577930000000  0.5676750000000  0.5404980000000 1.0
C      1  0.5156030000000  0.4268210000000  0.5526720000000 1.0
C      1  0.5373100000000  0.4277450000000  0.4607620000000 1.0
C      1  0.4485050000000  0.4277750000000  0.4874040000000 1.0
C      1  0.5155080000000  0.5727600000000  0.4472510000000 1.0
C      1  0.5374660000000  0.5717360000000  0.5394180000000 1.0
C      1  0.4485990000000  0.5715990000000  0.5126300000000 1.0
C      1  0.4752940000000  0.4996220000000  0.5437770000000 1.0
C      1  0.4752090000000  0.4998030000000  0.4562550000000 1.0
C      1  0.5486000000000  0.4997490000000  0.4999500000000 1.0
END
