TITL C-2441166-8118-1274 0.00247504328377164 125000 -8933.92513016664 0 0 59 (C1) n - 1
REM
REM in /home/bkarasulu/work/CARBON/AIRSS/Generating-Clusters/ReaxFF-fromJPCA2015/Units_Real/with-SteepDescent/Higher-Symm
REM
REM
REM
REM
REM
REM ./C.cell (1df0a924f5614ab8850e4351716899ee)
REM
REM compiler GCC version 9.2.1 20190827 (Red Hat 9.2.1-1)
REM options -cpp -mtune=generic -march=x86-64 -g -O0 -fpre-include=/usr/include/finclude/math-vector-fortran.h
REM seed -1074662657 -90311363 -1301427743 -649970221 -1632980364 763613632 -570147444 935260845 -68077323 1435769348 -616714486 1636177971 1180977831 -1331344660 -630068810 -1561337177 2014110828 837412780 1310093615 -1365986321 -1948789633 2133898797 2133238076 -938649362 -1180994036 970417843 -562838812 -1342913689 79261637 1381067295 -1784303205 2140736248 1123825114
REM
CELL 1.54180   50.00000   50.00000   50.00000   90.00000   90.00000   90.00000
LATT -1
SFAC C  
C      1  0.4739720000000  0.5524760000000  0.4908890000000 1.0
C      1  0.5062610000000  0.5511270000000  0.5299790000000 1.0
C      1  0.5222710000000  0.5526520000000  0.4820640000000 1.0
C      1  0.4821250000000  0.5091990000000  0.5192220000000 1.0
C      1  0.5318790000000  0.5039520000000  0.5037730000000 1.0
C      1  0.4959810000000  0.5110000000000  0.4718950000000 1.0
C      1  0.4510700000000  0.4473560000000  0.4873170000000 1.0
C      1  0.5145820000000  0.4618390000000  0.5520390000000 1.0
C      1  0.5279470000000  0.4545330000000  0.4578300000000 1.0
C      1  0.4351000000000  0.4950750000000  0.5379850000000 1.0
C      1  0.5725890000000  0.4925880000000  0.5315610000000 1.0
C      1  0.5006710000000  0.4887230000000  0.4289680000000 1.0
C      1  0.5144300000000  0.5077950000000  0.4475920000000 1.0
C      1  0.4530980000000  0.5077930000000  0.5170360000000 1.0
C      1  0.5429190000000  0.5014020000000  0.5354850000000 1.0
C      1  0.4372380000000  0.4688830000000  0.5254380000000 1.0
C      1  0.5629850000000  0.4644770000000  0.5347670000000 1.0
C      1  0.5056580000000  0.4619070000000  0.4392790000000 1.0
C      1  0.4615710000000  0.4594010000000  0.5378190000000 1.0
C      1  0.5515480000000  0.4556970000000  0.5097790000000 1.0
C      1  0.4806950000000  0.4547510000000  0.4520920000000 1.0
C      1  0.4791270000000  0.4402940000000  0.5245360000000 1.0
C      1  0.5265550000000  0.4413690000000  0.5072120000000 1.0
C      1  0.4881400000000  0.4354190000000  0.4734370000000 1.0
C      1  0.4339810000000  0.4671700000000  0.4953170000000 1.0
C      1  0.5405930000000  0.4740340000000  0.5507830000000 1.0
C      1  0.5489080000000  0.4736380000000  0.4641090000000 1.0
C      1  0.5425440000000  0.5307180000000  0.4856560000000 1.0
C      1  0.4704760000000  0.5285380000000  0.4712580000000 1.0
C      1  0.4903660000000  0.5284410000000  0.5430830000000 1.0
C      1  0.4522440000000  0.5036850000000  0.5598900000000 1.0
C      1  0.5752220000000  0.5021330000000  0.5047040000000 1.0
C      1  0.4737250000000  0.4980980000000  0.4333520000000 1.0
C      1  0.5161180000000  0.5569600000000  0.4533620000000 1.0
C      1  0.4502610000000  0.5542580000000  0.5075650000000 1.0
C      1  0.5331130000000  0.5498370000000  0.5414710000000 1.0
C      1  0.5337850000000  0.5227300000000  0.5550640000000 1.0
C      1  0.5315130000000  0.5358200000000  0.4396880000000 1.0
C      1  0.4365940000000  0.5277470000000  0.5016830000000 1.0
C      1  0.4432150000000  0.4856530000000  0.4725370000000 1.0
C      1  0.4988920000000  0.4844620000000  0.5628370000000 1.0
C      1  0.5452630000000  0.4975920000000  0.4491790000000 1.0
C      1  0.4430490000000  0.5143920000000  0.4768490000000 1.0
C      1  0.5083210000000  0.5121520000000  0.5624680000000 1.0
C      1  0.5516930000000  0.5246770000000  0.4570700000000 1.0
C      1  0.4609360000000  0.5317210000000  0.5562610000000 1.0
C      1  0.5688840000000  0.5309210000000  0.5039060000000 1.0
C      1  0.4722570000000  0.5276120000000  0.4391350000000 1.0
C      1  0.5167040000000  0.4387520000000  0.4795680000000 1.0
C      1  0.4708140000000  0.4304900000000  0.4971730000000 1.0
C      1  0.5071210000000  0.4440980000000  0.5295550000000 1.0
C      1  0.4705450000000  0.4809180000000  0.5566780000000 1.0
C      1  0.5533800000000  0.4817640000000  0.4934810000000 1.0
C      1  0.4622860000000  0.4778090000000  0.4512730000000 1.0
C      1  0.4521930000000  0.5467060000000  0.5347830000000 1.0
C      1  0.5548800000000  0.5434270000000  0.5244800000000 1.0
C      1  0.4927210000000  0.5464110000000  0.4405610000000 1.0
C      1  0.5008270000000  0.5569260000000  0.5016920000000 1.0
C      1  0.5023790000000  0.5029170000000  0.4986550000000 1.0
END
