TITL C-2441161-5029-386 0.00513584663323839 125000 -6002.76739020187 0 0 43 (C1) n - 1
REM
REM in /home/bkarasulu/work/CARBON/AIRSS/Generating-Clusters/ReaxFF-fromJPCA2015/Units_Real/with-SteepDescent/Higher-Symm
REM
REM
REM
REM
REM
REM ./C.cell (1df0a924f5614ab8850e4351716899ee)
REM
REM compiler GCC version 9.2.1 20190827 (Red Hat 9.2.1-1)
REM options -cpp -mtune=generic -march=x86-64 -g -O0 -fpre-include=/usr/include/finclude/math-vector-fortran.h
REM seed 649013684 1054108454 31488122 -1915150945 -1110923177 1684419422 747770490 -351394597 -69381497 1161966109 979690641 475453504 -1176214259 350754741 -763350366 306806040 -1875507013 1134358511 -398070125 -1426902730 -788027416 1074550036 60777106 -1062143213 -1277056901 766171358 -1834150663 634362573 -1471817452 1235067278 -194550520 -1617180777 -160264711
REM
CELL 1.54180   50.00000   50.00000   50.00000   90.00000   90.00000   90.00000
LATT -1
SFAC C  
C      1  0.4675170000000  0.4447920000000  0.5121010000000 1.0
C      1  0.4702400000000  0.5526210000000  0.4832200000000 1.0
C      1  0.4714420000000  0.4473160000000  0.4833760000000 1.0
C      1  0.4701650000000  0.5533380000000  0.5119560000000 1.0
C      1  0.4758970000000  0.4735720000000  0.4420930000000 1.0
C      1  0.4759300000000  0.5248780000000  0.5555470000000 1.0
C      1  0.4785400000000  0.4790980000000  0.5609110000000 1.0
C      1  0.4750740000000  0.5261600000000  0.4413800000000 1.0
C      1  0.4534940000000  0.4832710000000  0.5481920000000 1.0
C      1  0.4520460000000  0.5139480000000  0.4468890000000 1.0
C      1  0.4515500000000  0.4866750000000  0.4477550000000 1.0
C      1  0.4504610000000  0.5132140000000  0.5476700000000 1.0
C      1  0.5369930000000  0.5277690000000  0.4727030000000 1.0
C      1  0.5496990000000  0.4744170000000  0.5369060000000 1.0
C      1  0.5474760000000  0.5275780000000  0.5348210000000 1.0
C      1  0.5386290000000  0.4735140000000  0.4751800000000 1.0
C      1  0.5211410000000  0.5303020000000  0.4489460000000 1.0
C      1  0.5245860000000  0.4662450000000  0.5463010000000 1.0
C      1  0.5215840000000  0.5308150000000  0.5446310000000 1.0
C      1  0.5226720000000  0.4691740000000  0.4496560000000 1.0
C      1  0.4643640000000  0.5252160000000  0.4708880000000 1.0
C      1  0.4636600000000  0.4720540000000  0.5225220000000 1.0
C      1  0.4636700000000  0.5315390000000  0.5295230000000 1.0
C      1  0.4676050000000  0.4765530000000  0.4721840000000 1.0
C      1  0.4988510000000  0.4377250000000  0.4848410000000 1.0
C      1  0.4989250000000  0.5576460000000  0.5114690000000 1.0
C      1  0.4963900000000  0.4371250000000  0.5146690000000 1.0
C      1  0.4980290000000  0.5602090000000  0.4828320000000 1.0
C      1  0.5648270000000  0.4853030000000  0.4716200000000 1.0
C      1  0.5665320000000  0.5107750000000  0.5289490000000 1.0
C      1  0.5702950000000  0.4862330000000  0.5281960000000 1.0
C      1  0.5581290000000  0.5091640000000  0.4714450000000 1.0
C      1  0.5115280000000  0.5313740000000  0.5167820000000 1.0
C      1  0.5219180000000  0.4488420000000  0.4698580000000 1.0
C      1  0.5196230000000  0.5506200000000  0.4676500000000 1.0
C      1  0.5089980000000  0.4600620000000  0.5243220000000 1.0
C      1  0.5015710000000  0.4855720000000  0.4373560000000 1.0
C      1  0.5027610000000  0.5133390000000  0.5603150000000 1.0
C      1  0.5062670000000  0.4838820000000  0.5634230000000 1.0
C      1  0.5007530000000  0.5147220000000  0.4379050000000 1.0
C      1  0.4918710000000  0.4813240000000  0.5179100000000 1.0
C      1  0.4799260000000  0.5024020000000  0.4846060000000 1.0
C      1  0.4986290000000  0.5067270000000  0.5047610000000 1.0
END
