TITL C-2441168-9922-1142 0.00280923735013268 125000 -2290.45532516677 0 0 18 (C1) n - 1
REM
REM in /home/bkarasulu/work/CARBON/AIRSS/Generating-Clusters/ReaxFF-fromJPCA2015/Units_Real/with-SteepDescent/Higher-Symm
REM
REM
REM
REM
REM
REM ./C.cell (1df0a924f5614ab8850e4351716899ee)
REM
REM compiler GCC version 9.2.1 20190827 (Red Hat 9.2.1-1)
REM options -cpp -mtune=generic -march=x86-64 -g -O0 -fpre-include=/usr/include/finclude/math-vector-fortran.h
REM seed -1847260090 -991410137 -773308343 1893868767 -1778141416 1317422217 -1811525096 -1738448243 40211789 958805496 -1108172161 -1146387371 544521852 1886154306 -1891296448 -1061939417 -1354281900 508155000 1976183163 -1259058164 938581927 1793496730 2079429616 -1247426414 2028852929 1096208553 -2104080185 -2127312893 -105397855 -1477540782 -1221310871 1285108286 812583923
REM
CELL 1.54180   50.00000   50.00000   50.00000   90.00000   90.00000   90.00000
LATT -1
SFAC C  
C      1  0.4903040000000  0.5361080000000  0.5022170000000 1.0
C      1  0.5206670000000  0.5097860000000  0.5322650000000 1.0
C      1  0.4801640000000  0.5168560000000  0.5219730000000 1.0
C      1  0.5087630000000  0.5436140000000  0.4819390000000 1.0
C      1  0.4964030000000  0.5053090000000  0.5435220000000 1.0
C      1  0.4865230000000  0.4540030000000  0.5344760000000 1.0
C      1  0.5643080000000  0.5183180000000  0.5088380000000 1.0
C      1  0.4611410000000  0.4904120000000  0.4855350000000 1.0
C      1  0.5267340000000  0.4978760000000  0.4594030000000 1.0
C      1  0.4648990000000  0.4712420000000  0.5295320000000 1.0
C      1  0.4609800000000  0.4961110000000  0.5127160000000 1.0
C      1  0.4926130000000  0.4730360000000  0.4497700000000 1.0
C      1  0.5244630000000  0.4700170000000  0.4582090000000 1.0
C      1  0.5433890000000  0.5140660000000  0.5209430000000 1.0
C      1  0.5216240000000  0.5250510000000  0.4632120000000 1.0
C      1  0.4989080000000  0.5185630000000  0.4807730000000 1.0
C      1  0.4718580000000  0.4824730000000  0.4647520000000 1.0
C      1  0.4862590000000  0.4771600000000  0.5499240000000 1.0
END
