TITL C-2441156-4686-416 0.151864690744952 125000 -22646.178055229 0 0 181 (C1) n - 1
REM
REM in /home/bkarasulu/work/CARBON/AIRSS/Generating-Clusters/ReaxFF-fromJPCA2015/Units_Real/with-SteepDescent/Higher-Symm
REM
REM
REM
REM
REM
REM ./C.cell (1df0a924f5614ab8850e4351716899ee)
REM
REM compiler GCC version 9.2.1 20190827 (Red Hat 9.2.1-1)
REM options -cpp -mtune=generic -march=x86-64 -g -O0 -fpre-include=/usr/include/finclude/math-vector-fortran.h
REM seed 320267750 -1237538224 -379391075 695703819 341999889 551142525 -1020641431 970980978 -815847379 1842156702 -1439852447 2095003421 1653128847 -1135374604 -1703073653 351642258 1159192960 -1922043458 606458080 1425636222 1103166469 -736110779 -1246832620 567440677 1767739908 -800054405 1403139501 1422466649 660904784 -310028971 518672050 -1081107329 1806401909
REM
CELL 1.54180   50.00000   50.00000   50.00000   90.00000   90.00000   90.00000
LATT -1
SFAC C  
C      1  0.4567100000000  0.5519730000000  0.5089800000000 1.0
C      1  0.4735770000000  0.5521410000000  0.4845720000000 1.0
C      1  0.5048020000000  0.5477290000000  0.4638940000000 1.0
C      1  0.5317590000000  0.5462310000000  0.4796240000000 1.0
C      1  0.5342960000000  0.5451670000000  0.5126810000000 1.0
C      1  0.5179190000000  0.5535710000000  0.5362100000000 1.0
C      1  0.4900470000000  0.5553720000000  0.5299270000000 1.0
C      1  0.5257610000000  0.6034240000000  0.5297730000000 1.0
C      1  0.4754920000000  0.6026510000000  0.5283690000000 1.0
C      1  0.4601980000000  0.6013050000000  0.5035450000000 1.0
C      1  0.4700900000000  0.6016440000000  0.4761830000000 1.0
C      1  0.5000580000000  0.5966660000000  0.4684410000000 1.0
C      1  0.5325630000000  0.5994090000000  0.4767240000000 1.0
C      1  0.5406310000000  0.5980470000000  0.5049140000000 1.0
C      1  0.5131050000000  0.4520520000000  0.4072790000000 1.0
C      1  0.5801640000000  0.4551750000000  0.4524120000000 1.0
C      1  0.5898450000000  0.4502870000000  0.5307480000000 1.0
C      1  0.5332220000000  0.4541790000000  0.5830150000000 1.0
C      1  0.4490450000000  0.4529700000000  0.5817420000000 1.0
C      1  0.4046010000000  0.4515340000000  0.5086600000000 1.0
C      1  0.4281990000000  0.4522070000000  0.4310250000000 1.0
C      1  0.4128200000000  0.4814630000000  0.4569090000000 1.0
C      1  0.4751310000000  0.4784070000000  0.3997870000000 1.0
C      1  0.5658060000000  0.4770820000000  0.4130320000000 1.0
C      1  0.6022570000000  0.4812810000000  0.4995220000000 1.0
C      1  0.5678830000000  0.4807840000000  0.5736160000000 1.0
C      1  0.4773280000000  0.4827530000000  0.6024120000000 1.0
C      1  0.4080090000000  0.4834630000000  0.5381290000000 1.0
C      1  0.4691870000000  0.4122620000000  0.4429540000000 1.0
C      1  0.5252850000000  0.4127840000000  0.4398580000000 1.0
C      1  0.5635860000000  0.4113970000000  0.4819050000000 1.0
C      1  0.5553670000000  0.4151240000000  0.5333920000000 1.0
C      1  0.5055470000000  0.4154640000000  0.5619450000000 1.0
C      1  0.4537060000000  0.4106300000000  0.5400610000000 1.0
C      1  0.4376290000000  0.4131140000000  0.4899940000000 1.0
C      1  0.4633430000000  0.5750230000000  0.4676290000000 1.0
C      1  0.5017710000000  0.5733000000000  0.4484960000000 1.0
C      1  0.5430250000000  0.5731800000000  0.4710150000000 1.0
C      1  0.5498050000000  0.5715470000000  0.5132700000000 1.0
C      1  0.5222400000000  0.5803650000000  0.5474320000000 1.0
C      1  0.4766870000000  0.5779710000000  0.5435230000000 1.0
C      1  0.4444750000000  0.5776430000000  0.5097910000000 1.0
C      1  0.4676370000000  0.4502470000000  0.5010270000000 1.0
C      1  0.4788920000000  0.4513350000000  0.4754430000000 1.0
C      1  0.5054680000000  0.4559780000000  0.4647220000000 1.0
C      1  0.5286490000000  0.4525530000000  0.4797760000000 1.0
C      1  0.5353070000000  0.4493330000000  0.5087990000000 1.0
C      1  0.5157080000000  0.4519570000000  0.5299820000000 1.0
C      1  0.4885010000000  0.4420170000000  0.5206220000000 1.0
C      1  0.5948650000000  0.4520690000000  0.5007890000000 1.0
C      1  0.5618390000000  0.4523740000000  0.5740360000000 1.0
C      1  0.4765160000000  0.4501300000000  0.5983590000000 1.0
C      1  0.4164650000000  0.4441180000000  0.5330960000000 1.0
C      1  0.4152020000000  0.4521420000000  0.4572260000000 1.0
C      1  0.4816690000000  0.4523220000000  0.4085990000000 1.0
C      1  0.5609910000000  0.4524250000000  0.4280040000000 1.0
C      1  0.4943110000000  0.5241830000000  0.3953700000000 1.0
C      1  0.5775080000000  0.5242530000000  0.4289690000000 1.0
C      1  0.6094120000000  0.5210520000000  0.5185350000000 1.0
C      1  0.5508260000000  0.5246320000000  0.5876330000000 1.0
C      1  0.4576910000000  0.5222240000000  0.6022300000000 1.0
C      1  0.3950070000000  0.5285200000000  0.5299700000000 1.0
C      1  0.4103170000000  0.5208970000000  0.4350720000000 1.0
C      1  0.4008220000000  0.5270390000000  0.4816440000000 1.0
C      1  0.4504160000000  0.5229780000000  0.4119860000000 1.0
C      1  0.5382170000000  0.5219180000000  0.4071380000000 1.0
C      1  0.5978470000000  0.5262080000000  0.4725660000000 1.0
C      1  0.5845460000000  0.5231360000000  0.5579220000000 1.0
C      1  0.5053990000000  0.5267370000000  0.5974180000000 1.0
C      1  0.4249640000000  0.5238510000000  0.5672290000000 1.0
C      1  0.4587570000000  0.4178080000000  0.5671410000000 1.0
C      1  0.4319840000000  0.4233330000000  0.5242040000000 1.0
C      1  0.4444610000000  0.4150040000000  0.4621050000000 1.0
C      1  0.4962820000000  0.4214310000000  0.4318810000000 1.0
C      1  0.5515510000000  0.4178150000000  0.4552230000000 1.0
C      1  0.5704250000000  0.4192100000000  0.5104040000000 1.0
C      1  0.5315090000000  0.4227700000000  0.5721900000000 1.0
C      1  0.4272460000000  0.5071550000000  0.4168780000000 1.0
C      1  0.5177790000000  0.5066120000000  0.3944300000000 1.0
C      1  0.5926880000000  0.5095830000000  0.4496800000000 1.0
C      1  0.6014550000000  0.5062640000000  0.5418220000000 1.0
C      1  0.5273000000000  0.5067860000000  0.5907160000000 1.0
C      1  0.4363650000000  0.5074400000000  0.5884020000000 1.0
C      1  0.3929730000000  0.5134450000000  0.5055090000000 1.0
C      1  0.5533140000000  0.4699900000000  0.5205650000000 1.0
C      1  0.5251270000000  0.4672470000000  0.5534540000000 1.0
C      1  0.4806680000000  0.4594020000000  0.5560550000000 1.0
C      1  0.4434630000000  0.4659670000000  0.4996540000000 1.0
C      1  0.4617370000000  0.4570150000000  0.4529020000000 1.0
C      1  0.5047660000000  0.4751110000000  0.4420550000000 1.0
C      1  0.5463130000000  0.4729070000000  0.4694590000000 1.0
C      1  0.5632880000000  0.5069030000000  0.4103370000000 1.0
C      1  0.6116190000000  0.5087320000000  0.4926330000000 1.0
C      1  0.5730390000000  0.5087240000000  0.5801380000000 1.0
C      1  0.4837660000000  0.5108490000000  0.6095320000000 1.0
C      1  0.4047490000000  0.5101590000000  0.5503400000000 1.0
C      1  0.3990730000000  0.5086000000000  0.4582940000000 1.0
C      1  0.4705250000000  0.5077640000000  0.3966850000000 1.0
C      1  0.5885730000000  0.5607420000000  0.5054700000000 1.0
C      1  0.5490950000000  0.5637450000000  0.5799570000000 1.0
C      1  0.4760790000000  0.5615970000000  0.5816580000000 1.0
C      1  0.4095590000000  0.5536360000000  0.5279380000000 1.0
C      1  0.4251100000000  0.5624940000000  0.4571890000000 1.0
C      1  0.4932270000000  0.5637390000000  0.4090220000000 1.0
C      1  0.5683830000000  0.5636880000000  0.4346370000000 1.0
C      1  0.5646770000000  0.5152920000000  0.5011340000000 1.0
C      1  0.5307690000000  0.4960890000000  0.5563280000000 1.0
C      1  0.4809870000000  0.5139350000000  0.5605100000000 1.0
C      1  0.4404270000000  0.5100040000000  0.5236520000000 1.0
C      1  0.4457870000000  0.5174280000000  0.4692310000000 1.0
C      1  0.4941970000000  0.5025410000000  0.4369030000000 1.0
C      1  0.5473900000000  0.4964520000000  0.4515030000000 1.0
C      1  0.4517120000000  0.4533140000000  0.5513610000000 1.0
C      1  0.4225320000000  0.4437130000000  0.4858270000000 1.0
C      1  0.4590290000000  0.4409570000000  0.4294360000000 1.0
C      1  0.5332850000000  0.4402030000000  0.4248350000000 1.0
C      1  0.5805130000000  0.4411110000000  0.4774200000000 1.0
C      1  0.5675180000000  0.4391570000000  0.5471980000000 1.0
C      1  0.4941130000000  0.4411130000000  0.5725570000000 1.0
C      1  0.4513130000000  0.5127810000000  0.4964820000000 1.0
C      1  0.4679150000000  0.5025760000000  0.4518670000000 1.0
C      1  0.5084410000000  0.5212430000000  0.4521840000000 1.0
C      1  0.5468670000000  0.5176270000000  0.4751890000000 1.0
C      1  0.5435310000000  0.5169920000000  0.5239980000000 1.0
C      1  0.5092690000000  0.5131020000000  0.5468450000000 1.0
C      1  0.4640500000000  0.5050310000000  0.5385420000000 1.0
C      1  0.5249640000000  0.4788190000000  0.4021710000000 1.0
C      1  0.5873330000000  0.4825910000000  0.4598750000000 1.0
C      1  0.5955400000000  0.4772770000000  0.5424060000000 1.0
C      1  0.5167410000000  0.4784030000000  0.5922890000000 1.0
C      1  0.4356430000000  0.4793050000000  0.5796170000000 1.0
C      1  0.4021320000000  0.4841510000000  0.5059820000000 1.0
C      1  0.4355440000000  0.4792900000000  0.4210970000000 1.0
C      1  0.5059220000000  0.5027300000000  0.4754970000000 1.0
C      1  0.5324830000000  0.4930870000000  0.4869540000000 1.0
C      1  0.5367030000000  0.4909790000000  0.5134670000000 1.0
C      1  0.5016460000000  0.4892340000000  0.5333000000000 1.0
C      1  0.4771600000000  0.4838010000000  0.5253430000000 1.0
C      1  0.4639860000000  0.4882370000000  0.4925930000000 1.0
C      1  0.4810020000000  0.4894620000000  0.4737140000000 1.0
C      1  0.4900410000000  0.4828080000000  0.5758960000000 1.0
C      1  0.4346180000000  0.4787010000000  0.5494060000000 1.0
C      1  0.4229180000000  0.4867110000000  0.4838810000000 1.0
C      1  0.4551530000000  0.4803820000000  0.4406190000000 1.0
C      1  0.5299610000000  0.4846490000000  0.4314600000000 1.0
C      1  0.5767780000000  0.4873550000000  0.4872870000000 1.0
C      1  0.5666270000000  0.4824730000000  0.5440970000000 1.0
C      1  0.5706780000000  0.5475260000000  0.5500490000000 1.0
C      1  0.5033590000000  0.5533420000000  0.5860800000000 1.0
C      1  0.4384390000000  0.5470320000000  0.5554770000000 1.0
C      1  0.4131400000000  0.5542350000000  0.4820780000000 1.0
C      1  0.4600190000000  0.5466040000000  0.4254910000000 1.0
C      1  0.5352590000000  0.5463840000000  0.4220140000000 1.0
C      1  0.5864080000000  0.5530440000000  0.4776090000000 1.0
C      1  0.4845710000000  0.4063390000000  0.4725270000000 1.0
C      1  0.5129590000000  0.4047510000000  0.4706580000000 1.0
C      1  0.5316220000000  0.4046650000000  0.4924200000000 1.0
C      1  0.5288110000000  0.4038490000000  0.5210000000000 1.0
C      1  0.5031160000000  0.4029980000000  0.5337980000000 1.0
C      1  0.4769220000000  0.4020340000000  0.5217090000000 1.0
C      1  0.4672560000000  0.4039430000000  0.4953340000000 1.0
C      1  0.4361570000000  0.5397970000000  0.5263970000000 1.0
C      1  0.4298670000000  0.5344320000000  0.4517760000000 1.0
C      1  0.4881520000000  0.5387350000000  0.4213910000000 1.0
C      1  0.5577860000000  0.5429330000000  0.4376110000000 1.0
C      1  0.5843570000000  0.5331670000000  0.5117150000000 1.0
C      1  0.5448890000000  0.5409460000000  0.5636120000000 1.0
C      1  0.4691110000000  0.5341210000000  0.5784240000000 1.0
C      1  0.4567200000000  0.5684920000000  0.5615180000000 1.0
C      1  0.4168250000000  0.5701420000000  0.5056970000000 1.0
C      1  0.4498040000000  0.5676410000000  0.4433070000000 1.0
C      1  0.5164040000000  0.5711700000000  0.4232470000000 1.0
C      1  0.5712090000000  0.5721430000000  0.4614700000000 1.0
C      1  0.5727990000000  0.5676400000000  0.5287890000000 1.0
C      1  0.5230640000000  0.5745200000000  0.5769490000000 1.0
C      1  0.4995310000000  0.5174810000000  0.5028580000000 1.0
C      1  0.4948780000000  0.5616650000000  0.5020990000000 1.0
C      1  0.4984610000000  0.4892970000000  0.5102630000000 1.0
C      1  0.5013750000000  0.4284470000000  0.4997330000000 1.0
C      1  0.5006840000000  0.6094800000000  0.5168820000000 1.0
C      1  0.5008900000000  0.5878480000000  0.4975850000000 1.0
END
