TITL C-2441156-4686-377 0.0138919397740037 125000 -7265.48153776787 0 0 54 (C1) n - 1
REM
REM in /home/bkarasulu/work/CARBON/AIRSS/Generating-Clusters/ReaxFF-fromJPCA2015/Units_Real/with-SteepDescent/Higher-Symm
REM
REM
REM
REM
REM
REM ./C.cell (1df0a924f5614ab8850e4351716899ee)
REM
REM compiler GCC version 9.2.1 20190827 (Red Hat 9.2.1-1)
REM options -cpp -mtune=generic -march=x86-64 -g -O0 -fpre-include=/usr/include/finclude/math-vector-fortran.h
REM seed 1995564177 278164751 851905896 707422851 -1055309238 1718342303 -1398607466 -1110143226 -1949430470 675476434 132310088 -129173785 363337185 1749780341 -1142719592 -1502505895 -603586249 931958686 1133408674 -1443989141 -78838998 1055522609 1180014382 -1250078972 807242947 1454930454 164159379 -923105869 1402240047 1450955876 1857075542 -1612193743 313871451
REM
CELL 1.54180   50.00000   50.00000   50.00000   90.00000   90.00000   90.00000
LATT -1
SFAC C  
C      1  0.5031320000000  0.5482920000000  0.5131400000000 1.0
C      1  0.5060630000000  0.5238280000000  0.5466730000000 1.0
C      1  0.5518640000000  0.5347450000000  0.4762500000000 1.0
C      1  0.4488930000000  0.4649960000000  0.5134260000000 1.0
C      1  0.5066480000000  0.5228230000000  0.4989900000000 1.0
C      1  0.4930070000000  0.4761310000000  0.5175730000000 1.0
C      1  0.4595730000000  0.5041940000000  0.4796900000000 1.0
C      1  0.5450020000000  0.4898500000000  0.5635250000000 1.0
C      1  0.4754930000000  0.4376710000000  0.4748520000000 1.0
C      1  0.5167430000000  0.4941300000000  0.4495930000000 1.0
C      1  0.4677410000000  0.4923560000000  0.5647200000000 1.0
C      1  0.4738280000000  0.5460280000000  0.4387880000000 1.0
C      1  0.5130130000000  0.4853090000000  0.5335630000000 1.0
C      1  0.5619830000000  0.5127970000000  0.5159860000000 1.0
C      1  0.5236530000000  0.4472930000000  0.5454640000000 1.0
C      1  0.5322790000000  0.5567230000000  0.5150970000000 1.0
C      1  0.5163970000000  0.5110100000000  0.5229710000000 1.0
C      1  0.5017950000000  0.4468930000000  0.4804150000000 1.0
C      1  0.4908910000000  0.4778160000000  0.4472920000000 1.0
C      1  0.4630520000000  0.5382000000000  0.4792850000000 1.0
C      1  0.4848240000000  0.4888900000000  0.4749540000000 1.0
C      1  0.4627540000000  0.5489750000000  0.5011150000000 1.0
C      1  0.5145980000000  0.5715510000000  0.4972720000000 1.0
C      1  0.5117610000000  0.5187190000000  0.4660020000000 1.0
C      1  0.5082690000000  0.5640120000000  0.4699730000000 1.0
C      1  0.4515290000000  0.4513030000000  0.4871870000000 1.0
C      1  0.4923030000000  0.4489410000000  0.4543260000000 1.0
C      1  0.4975400000000  0.4403810000000  0.5357790000000 1.0
C      1  0.5586510000000  0.4962030000000  0.5391870000000 1.0
C      1  0.4960240000000  0.5048130000000  0.5666280000000 1.0
C      1  0.5344140000000  0.4448700000000  0.5188480000000 1.0
C      1  0.4890640000000  0.5240240000000  0.4465270000000 1.0
C      1  0.5601420000000  0.5070740000000  0.4696490000000 1.0
C      1  0.5383370000000  0.4387140000000  0.4909180000000 1.0
C      1  0.4636290000000  0.4904240000000  0.4340430000000 1.0
C      1  0.4491530000000  0.4897620000000  0.5438940000000 1.0
C      1  0.4477450000000  0.4660310000000  0.4636500000000 1.0
C      1  0.4706010000000  0.5170960000000  0.4261970000000 1.0
C      1  0.4805590000000  0.5387960000000  0.5458470000000 1.0
C      1  0.5044230000000  0.4745490000000  0.4911010000000 1.0
C      1  0.4580870000000  0.5383620000000  0.5262580000000 1.0
C      1  0.4437580000000  0.4925760000000  0.5037050000000 1.0
C      1  0.5281380000000  0.5442720000000  0.4624090000000 1.0
C      1  0.5422830000000  0.4853870000000  0.4588750000000 1.0
C      1  0.4437010000000  0.5109040000000  0.5261550000000 1.0
C      1  0.4782290000000  0.5590490000000  0.4647670000000 1.0
C      1  0.5527620000000  0.5380720000000  0.5055030000000 1.0
C      1  0.5398960000000  0.4740550000000  0.4863160000000 1.0
C      1  0.5717650000000  0.4842840000000  0.5597430000000 1.0
C      1  0.4720760000000  0.5216150000000  0.5690610000000 1.0
C      1  0.4751090000000  0.4552520000000  0.5281230000000 1.0
C      1  0.4438310000000  0.4920990000000  0.4550040000000 1.0
C      1  0.5614110000000  0.4933080000000  0.4951410000000 1.0
C      1  0.5215820000000  0.4745530000000  0.5585480000000 1.0
END
