TITL C-2441158-471-1422 0.00637608438331457 125000 -6710.16128320077 0 0 47 (C1) n - 1
REM
REM in /home/bkarasulu/work/CARBON/AIRSS/Generating-Clusters/ReaxFF-fromJPCA2015/Units_Real/with-SteepDescent/Higher-Symm
REM
REM
REM
REM
REM
REM ./C.cell (1df0a924f5614ab8850e4351716899ee)
REM
REM compiler GCC version 9.2.1 20190827 (Red Hat 9.2.1-1)
REM options -cpp -mtune=generic -march=x86-64 -g -O0 -fpre-include=/usr/include/finclude/math-vector-fortran.h
REM seed 1908614765 849729908 2037878372 -1524165568 -1554415457 362184407 1435770376 1627601188 -2083133134 -461068717 -758032620 627586103 653898184 1103008934 -825594577 492517090 -2091364358 554299664 -1490896624 -664427718 1935824033 1187402465 1633172902 986265290 1964628336 1610743593 -1577852482 483710634 1738679323 1458218282 -1864073358 -356957407 -1777115513
REM
CELL 1.54180   50.00000   50.00000   50.00000   90.00000   90.00000   90.00000
LATT -1
SFAC C  
C      1  0.4637900000000  0.4874980000000  0.4578160000000 1.0
C      1  0.5368600000000  0.5123700000000  0.4564120000000 1.0
C      1  0.5277040000000  0.4879900000000  0.5306050000000 1.0
C      1  0.4615890000000  0.5134330000000  0.5435650000000 1.0
C      1  0.5262100000000  0.5103500000000  0.5508230000000 1.0
C      1  0.4695570000000  0.4888320000000  0.5579270000000 1.0
C      1  0.4688370000000  0.5130160000000  0.4450050000000 1.0
C      1  0.5314460000000  0.4875940000000  0.4438750000000 1.0
C      1  0.4431120000000  0.5419370000000  0.5041400000000 1.0
C      1  0.5577070000000  0.4573090000000  0.5053230000000 1.0
C      1  0.5561050000000  0.5393030000000  0.4950010000000 1.0
C      1  0.4428590000000  0.4569820000000  0.4942340000000 1.0
C      1  0.4249660000000  0.4698930000000  0.5141690000000 1.0
C      1  0.5740020000000  0.5279530000000  0.5148140000000 1.0
C      1  0.5758570000000  0.4693450000000  0.4859050000000 1.0
C      1  0.4250550000000  0.5301870000000  0.4855850000000 1.0
C      1  0.4701430000000  0.4457340000000  0.4969720000000 1.0
C      1  0.5289940000000  0.5513220000000  0.4975460000000 1.0
C      1  0.5313370000000  0.4437840000000  0.5033590000000 1.0
C      1  0.4709320000000  0.5529050000000  0.5010710000000 1.0
C      1  0.5260900000000  0.5372660000000  0.5454950000000 1.0
C      1  0.4733850000000  0.4632780000000  0.5460320000000 1.0
C      1  0.4722670000000  0.5390150000000  0.4533020000000 1.0
C      1  0.5270000000000  0.4650240000000  0.4572450000000 1.0
C      1  0.4821590000000  0.4658600000000  0.4518280000000 1.0
C      1  0.5174900000000  0.5329750000000  0.4520270000000 1.0
C      1  0.5182260000000  0.4638310000000  0.5473460000000 1.0
C      1  0.4807270000000  0.5347200000000  0.5473870000000 1.0
C      1  0.4925910000000  0.5271510000000  0.4381670000000 1.0
C      1  0.5075970000000  0.4722730000000  0.4384180000000 1.0
C      1  0.5052840000000  0.5271780000000  0.5606810000000 1.0
C      1  0.4950210000000  0.4723220000000  0.5627260000000 1.0
C      1  0.5157410000000  0.5495210000000  0.5222860000000 1.0
C      1  0.4872570000000  0.4578020000000  0.5189850000000 1.0
C      1  0.4834740000000  0.5514890000000  0.4760210000000 1.0
C      1  0.5149500000000  0.4594590000000  0.4832840000000 1.0
C      1  0.4873660000000  0.5500120000000  0.5238820000000 1.0
C      1  0.5146650000000  0.4442290000000  0.5265700000000 1.0
C      1  0.5120080000000  0.5500640000000  0.4746620000000 1.0
C      1  0.4870930000000  0.4487800000000  0.4745700000000 1.0
C      1  0.5543610000000  0.5160060000000  0.4780260000000 1.0
C      1  0.4450210000000  0.4822360000000  0.4790070000000 1.0
C      1  0.4438040000000  0.5169190000000  0.5207690000000 1.0
C      1  0.5536270000000  0.4833800000000  0.5176910000000 1.0
C      1  0.5668110000000  0.5001950000000  0.4985630000000 1.0
C      1  0.4312600000000  0.4982910000000  0.5007550000000 1.0
C      1  0.5044740000000  0.4835130000000  0.5059900000000 1.0
END
