TITL C-2441165-58-1449 0.0274490688483162 125000 -16302.3213087552 0 0 120 (C1) n - 1
REM
REM in /home/bkarasulu/work/CARBON/AIRSS/Generating-Clusters/ReaxFF-fromJPCA2015/Units_Real/with-SteepDescent/Higher-Symm
REM
REM
REM
REM
REM
REM ./C.cell (1df0a924f5614ab8850e4351716899ee)
REM
REM compiler GCC version 9.2.1 20190827 (Red Hat 9.2.1-1)
REM options -cpp -mtune=generic -march=x86-64 -g -O0 -fpre-include=/usr/include/finclude/math-vector-fortran.h
REM seed -207979104 -795676192 1643562594 2016932215 859548098 854112229 234203630 -929992675 -2035191057 -1782487918 -9960146 -410572173 -976018618 -701477729 -1282336386 1422413593 -1937060413 -1843037746 902459299 -1547200520 -790649208 -634371714 -680243176 -1013908455 1102573328 -358290399 -1543568385 552011249 672056404 827641011 1502207682 -1695547679 1106238926
REM
CELL 1.54180   50.00000   50.00000   50.00000   90.00000   90.00000   90.00000
LATT -1
SFAC C  
C      1  0.4819850000000  0.5773580000000  0.4442990000000 1.0
C      1  0.4824830000000  0.5551510000000  0.5777690000000 1.0
C      1  0.4834570000000  0.4216190000000  0.5533490000000 1.0
C      1  0.4830340000000  0.4456710000000  0.4228390000000 1.0
C      1  0.5746500000000  0.4993330000000  0.4426410000000 1.0
C      1  0.5745210000000  0.5598140000000  0.5013400000000 1.0
C      1  0.5729600000000  0.4977120000000  0.5582030000000 1.0
C      1  0.5714370000000  0.4413730000000  0.4995760000000 1.0
C      1  0.5393460000000  0.5294430000000  0.4310590000000 1.0
C      1  0.5392110000000  0.5699930000000  0.5311100000000 1.0
C      1  0.5388390000000  0.4696190000000  0.5675830000000 1.0
C      1  0.5387120000000  0.4339080000000  0.4710350000000 1.0
C      1  0.4801900000000  0.4111650000000  0.5268310000000 1.0
C      1  0.4785750000000  0.4723470000000  0.4139580000000 1.0
C      1  0.4844880000000  0.5890760000000  0.4690170000000 1.0
C      1  0.4863310000000  0.5289610000000  0.5879830000000 1.0
C      1  0.4524000000000  0.4920570000000  0.4688330000000 1.0
C      1  0.4521340000000  0.5304250000000  0.4858220000000 1.0
C      1  0.4527270000000  0.5136230000000  0.5308070000000 1.0
C      1  0.4522750000000  0.4696980000000  0.5134310000000 1.0
C      1  0.5199340000000  0.5056520000000  0.4806410000000 1.0
C      1  0.5195560000000  0.5256250000000  0.5031380000000 1.0
C      1  0.5236750000000  0.4856690000000  0.5218560000000 1.0
C      1  0.5192290000000  0.4776860000000  0.4951250000000 1.0
C      1  0.4560350000000  0.5781830000000  0.5157120000000 1.0
C      1  0.4554170000000  0.4844680000000  0.5780020000000 1.0
C      1  0.4564570000000  0.4214020000000  0.4832410000000 1.0
C      1  0.4574510000000  0.5168430000000  0.4239450000000 1.0
C      1  0.4110470000000  0.5356620000000  0.4690490000000 1.0
C      1  0.4114830000000  0.5303720000000  0.5335990000000 1.0
C      1  0.4119250000000  0.4643370000000  0.5308110000000 1.0
C      1  0.4119930000000  0.4683610000000  0.4641360000000 1.0
C      1  0.4932880000000  0.4481930000000  0.5656560000000 1.0
C      1  0.4938910000000  0.4321350000000  0.4484060000000 1.0
C      1  0.4937270000000  0.5502920000000  0.4313360000000 1.0
C      1  0.4932760000000  0.5688770000000  0.5518010000000 1.0
C      1  0.4663880000000  0.5225590000000  0.5533340000000 1.0
C      1  0.4680910000000  0.4495880000000  0.5216430000000 1.0
C      1  0.4654410000000  0.4741310000000  0.4528390000000 1.0
C      1  0.4674660000000  0.5520580000000  0.4783640000000 1.0
C      1  0.5593540000000  0.4265450000000  0.5366650000000 1.0
C      1  0.5584300000000  0.4638910000000  0.4285780000000 1.0
C      1  0.5592290000000  0.5702120000000  0.4644540000000 1.0
C      1  0.5593610000000  0.5353280000000  0.5701570000000 1.0
C      1  0.4532610000000  0.4844970000000  0.4250980000000 1.0
C      1  0.4500950000000  0.5739740000000  0.4846600000000 1.0
C      1  0.4483300000000  0.5150050000000  0.5744420000000 1.0
C      1  0.4525340000000  0.4251480000000  0.5148010000000 1.0
C      1  0.5299170000000  0.4586560000000  0.4331290000000 1.0
C      1  0.5308300000000  0.5661660000000  0.4582060000000 1.0
C      1  0.5305510000000  0.5402640000000  0.5651880000000 1.0
C      1  0.5309750000000  0.4319860000000  0.5437190000000 1.0
C      1  0.5134810000000  0.5195160000000  0.5535450000000 1.0
C      1  0.5171390000000  0.4436620000000  0.5209750000000 1.0
C      1  0.5121140000000  0.4806600000000  0.4416860000000 1.0
C      1  0.5127900000000  0.5592060000000  0.4804100000000 1.0
C      1  0.4247980000000  0.5036840000000  0.5351170000000 1.0
C      1  0.4247040000000  0.4636730000000  0.5037480000000 1.0
C      1  0.4245820000000  0.4967180000000  0.4637580000000 1.0
C      1  0.4240700000000  0.5353260000000  0.4959170000000 1.0
C      1  0.4225420000000  0.5182260000000  0.5602810000000 1.0
C      1  0.4243060000000  0.4394650000000  0.5194320000000 1.0
C      1  0.4249150000000  0.4798670000000  0.4400120000000 1.0
C      1  0.4232190000000  0.5608030000000  0.4813290000000 1.0
C      1  0.4289950000000  0.4459700000000  0.4643460000000 1.0
C      1  0.4286140000000  0.5362590000000  0.4467650000000 1.0
C      1  0.4298110000000  0.5518260000000  0.5354910000000 1.0
C      1  0.4302130000000  0.4636950000000  0.5526110000000 1.0
C      1  0.5480680000000  0.5053760000000  0.4744280000000 1.0
C      1  0.5444270000000  0.5258990000000  0.5150080000000 1.0
C      1  0.5492410000000  0.4981260000000  0.5196210000000 1.0
C      1  0.5575020000000  0.4880770000000  0.4948800000000 1.0
C      1  0.4847710000000  0.5233630000000  0.4193230000000 1.0
C      1  0.4837450000000  0.5802540000000  0.5229900000000 1.0
C      1  0.4830530000000  0.4769470000000  0.5813580000000 1.0
C      1  0.4834680000000  0.4160690000000  0.4764590000000 1.0
C      1  0.5005290000000  0.4976420000000  0.4176380000000 1.0
C      1  0.5017150000000  0.5822880000000  0.4982190000000 1.0
C      1  0.5000390000000  0.5000000000000  0.5866780000000 1.0
C      1  0.4970300000000  0.4111550000000  0.5011170000000 1.0
C      1  0.4548910000000  0.4707320000000  0.5528650000000 1.0
C      1  0.4540550000000  0.4445370000000  0.4651920000000 1.0
C      1  0.4514410000000  0.5295290000000  0.4488910000000 1.0
C      1  0.4540540000000  0.5533830000000  0.5294790000000 1.0
C      1  0.4939480000000  0.4566350000000  0.5336750000000 1.0
C      1  0.4935950000000  0.4641350000000  0.4593880000000 1.0
C      1  0.4929450000000  0.5418650000000  0.4651610000000 1.0
C      1  0.4921960000000  0.5367460000000  0.5420900000000 1.0
C      1  0.5772480000000  0.5480360000000  0.4743700000000 1.0
C      1  0.5756740000000  0.5251860000000  0.5471580000000 1.0
C      1  0.5723970000000  0.4524240000000  0.5289680000000 1.0
C      1  0.5744240000000  0.4707190000000  0.4533400000000 1.0
C      1  0.5911390000000  0.5204900000000  0.4884680000000 1.0
C      1  0.5870080000000  0.5097910000000  0.5150810000000 1.0
C      1  0.5855030000000  0.4821920000000  0.5035460000000 1.0
C      1  0.5934110000000  0.4938810000000  0.4774370000000 1.0
C      1  0.5607860000000  0.5475740000000  0.5257670000000 1.0
C      1  0.5623850000000  0.4714470000000  0.5493290000000 1.0
C      1  0.5624160000000  0.4501620000000  0.4727550000000 1.0
C      1  0.5600850000000  0.5232220000000  0.4545810000000 1.0
C      1  0.5014010000000  0.4923330000000  0.5389590000000 1.0
C      1  0.4972720000000  0.4614540000000  0.4893220000000 1.0
C      1  0.4977920000000  0.5118700000000  0.4634570000000 1.0
C      1  0.4960400000000  0.5378470000000  0.5117520000000 1.0
C      1  0.5314520000000  0.5848000000000  0.5075520000000 1.0
C      1  0.5296560000000  0.4936170000000  0.5822310000000 1.0
C      1  0.5253360000000  0.4232980000000  0.4984900000000 1.0
C      1  0.5313350000000  0.5067630000000  0.4149340000000 1.0
C      1  0.4753930000000  0.5201510000000  0.5003190000000 1.0
C      1  0.4775380000000  0.4991010000000  0.5213400000000 1.0
C      1  0.4762350000000  0.4798750000000  0.4991410000000 1.0
C      1  0.4762390000000  0.5015690000000  0.4799660000000 1.0
C      1  0.5562670000000  0.4919490000000  0.4197460000000 1.0
C      1  0.5565520000000  0.5808960000000  0.4918660000000 1.0
C      1  0.5557020000000  0.5080780000000  0.5804410000000 1.0
C      1  0.5550490000000  0.4190190000000  0.5086260000000 1.0
C      1  0.5228530000000  0.4455880000000  0.5681170000000 1.0
C      1  0.5235550000000  0.4333360000000  0.4465730000000 1.0
C      1  0.5233880000000  0.5531580000000  0.4329410000000 1.0
C      1  0.5230700000000  0.5667430000000  0.5543280000000 1.0
END
