TITL C-2441162-9305-51 -8.51635214539235e-10 125000 -611.02462074384 0 0 5 (D5h) n - 1
REM
REM in /home/bkarasulu/work/CARBON/AIRSS/Generating-Clusters/ReaxFF-fromJPCA2015/Units_Real/with-SteepDescent/Higher-Symm
REM
REM
REM
REM
REM
REM ./C.cell (1df0a924f5614ab8850e4351716899ee)
REM
REM compiler GCC version 9.2.1 20190827 (Red Hat 9.2.1-1)
REM options -cpp -mtune=generic -march=x86-64 -g -O0 -fpre-include=/usr/include/finclude/math-vector-fortran.h
REM seed -2029073943 -1437821090 1584712591 2088677187 1735543657 592949796 221318968 -756344481 -1024796526 107431715 1487856316 1010730373 -175390731 1723359466 -1403535342 637103540 -1082192776 635554989 -1589724077 2030111101 -1604043312 124743331 -127274243 93337331 -92601909 -1743223540 1573328012 1360849019 -344962878 -1494705362 -1475889341 1251097564 1566382520
REM
CELL 1.54180   50.00000   50.00000   50.00000   90.00000   90.00000   90.00000
LATT -1
SFAC C  
C      1  0.5150900000000  0.5000000000000  0.4792310000000 1.0
C      1  0.4849100000000  0.5000000000000  0.4792310000000 1.0
C      1  0.5244150000000  0.5000000000000  0.5079330000000 1.0
C      1  0.4755850000000  0.5000000000000  0.5079330000000 1.0
C      1  0.5000000000000  0.5000000000000  0.5256720000000 1.0
END
