TITL C-2441162-9305-266 0.0182634621671656 125000 -10483.2552708581 0 0 75 (C1) n - 1
REM
REM in /home/bkarasulu/work/CARBON/AIRSS/Generating-Clusters/ReaxFF-fromJPCA2015/Units_Real/with-SteepDescent/Higher-Symm
REM
REM
REM
REM
REM
REM ./C.cell (1df0a924f5614ab8850e4351716899ee)
REM
REM compiler GCC version 9.2.1 20190827 (Red Hat 9.2.1-1)
REM options -cpp -mtune=generic -march=x86-64 -g -O0 -fpre-include=/usr/include/finclude/math-vector-fortran.h
REM seed 2070444697 468699162 -1349324649 893733725 -1206601217 1177602916 1643453178 -1248000367 -165572838 195060510 -89927118 302752519 -488692742 1932249594 2095528034 -1581701695 -563760695 1931764158 2782316 -1439445715 -1899377224 -1513775707 -1413543380 -712837957 -348945697 793460531 560086175 713275363 -830339374 -691804896 380829538 -1534424504 -1482454521
REM
CELL 1.54180   50.00000   50.00000   50.00000   90.00000   90.00000   90.00000
LATT -1
SFAC C  
C      1  0.4844630000000  0.5494540000000  0.4916010000000 1.0
C      1  0.5579780000000  0.4815790000000  0.4847830000000 1.0
C      1  0.4672310000000  0.4642350000000  0.4929490000000 1.0
C      1  0.5110160000000  0.4738830000000  0.5062250000000 1.0
C      1  0.4748150000000  0.5060460000000  0.4986700000000 1.0
C      1  0.5194850000000  0.5147460000000  0.5051570000000 1.0
C      1  0.4706630000000  0.5745790000000  0.5204200000000 1.0
C      1  0.5724110000000  0.4861070000000  0.5226060000000 1.0
C      1  0.4500560000000  0.4396220000000  0.5180040000000 1.0
C      1  0.4815130000000  0.4801020000000  0.5123080000000 1.0
C      1  0.4920580000000  0.5279770000000  0.5101500000000 1.0
C      1  0.5204890000000  0.4926970000000  0.5250480000000 1.0
C      1  0.5503090000000  0.5275360000000  0.5087840000000 1.0
C      1  0.5004840000000  0.4293590000000  0.5096860000000 1.0
C      1  0.4445420000000  0.5308500000000  0.5117330000000 1.0
C      1  0.4735500000000  0.4365460000000  0.4999510000000 1.0
C      1  0.4573180000000  0.5552190000000  0.5016060000000 1.0
C      1  0.5682030000000  0.5042950000000  0.5012700000000 1.0
C      1  0.5573790000000  0.4899180000000  0.5589960000000 1.0
C      1  0.4638090000000  0.4504490000000  0.5544830000000 1.0
C      1  0.4772340000000  0.5575200000000  0.5555960000000 1.0
C      1  0.5088130000000  0.4635570000000  0.5499090000000 1.0
C      1  0.4678240000000  0.5129160000000  0.5635540000000 1.0
C      1  0.5301050000000  0.5245090000000  0.5615030000000 1.0
C      1  0.4840640000000  0.5526080000000  0.5330060000000 1.0
C      1  0.5486940000000  0.4886430000000  0.5362730000000 1.0
C      1  0.4634500000000  0.4598760000000  0.5323830000000 1.0
C      1  0.4924390000000  0.5267100000000  0.4310000000000 1.0
C      1  0.5163510000000  0.4882240000000  0.4310470000000 1.0
C      1  0.4882490000000  0.4977840000000  0.4295700000000 1.0
C      1  0.5396000000000  0.5550440000000  0.4665540000000 1.0
C      1  0.5288500000000  0.4367230000000  0.4677060000000 1.0
C      1  0.4309960000000  0.5063600000000  0.4660170000000 1.0
C      1  0.4607730000000  0.4508630000000  0.4561580000000 1.0
C      1  0.4724070000000  0.5673920000000  0.4550150000000 1.0
C      1  0.5648740000000  0.4926500000000  0.4433390000000 1.0
C      1  0.5090100000000  0.4995380000000  0.5878310000000 1.0
C      1  0.4831100000000  0.4911020000000  0.5768390000000 1.0
C      1  0.5078200000000  0.5276790000000  0.5813480000000 1.0
C      1  0.5691240000000  0.4695330000000  0.4573540000000 1.0
C      1  0.4354610000000  0.4557840000000  0.4667730000000 1.0
C      1  0.4950050000000  0.5809300000000  0.4682290000000 1.0
C      1  0.5434600000000  0.5543450000000  0.4954860000000 1.0
C      1  0.5267330000000  0.4333650000000  0.4968750000000 1.0
C      1  0.4299960000000  0.5101790000000  0.4954490000000 1.0
C      1  0.5257840000000  0.4606290000000  0.4329700000000 1.0
C      1  0.4587140000000  0.4949530000000  0.4363180000000 1.0
C      1  0.5153540000000  0.5457110000000  0.4334840000000 1.0
C      1  0.4838300000000  0.4936400000000  0.4735350000000 1.0
C      1  0.5109100000000  0.5039210000000  0.4770370000000 1.0
C      1  0.5261630000000  0.4806360000000  0.4828560000000 1.0
C      1  0.5298020000000  0.5566710000000  0.5348120000000 1.0
C      1  0.5323610000000  0.4467780000000  0.5418180000000 1.0
C      1  0.4371980000000  0.4964000000000  0.5344680000000 1.0
C      1  0.4849540000000  0.4627870000000  0.5687140000000 1.0
C      1  0.4799140000000  0.5371930000000  0.5748870000000 1.0
C      1  0.5387460000000  0.4997020000000  0.5768860000000 1.0
C      1  0.5399080000000  0.5346130000000  0.4440280000000 1.0
C      1  0.5064250000000  0.4467050000000  0.4502940000000 1.0
C      1  0.4473340000000  0.5202180000000  0.4451000000000 1.0
C      1  0.5459830000000  0.4446170000000  0.5158780000000 1.0
C      1  0.4262290000000  0.4858980000000  0.5114510000000 1.0
C      1  0.5247140000000  0.5704180000000  0.5113670000000 1.0
C      1  0.4485880000000  0.5188570000000  0.5414300000000 1.0
C      1  0.5456800000000  0.5358650000000  0.5394420000000 1.0
C      1  0.5057240000000  0.4364290000000  0.5378030000000 1.0
C      1  0.4364520000000  0.4592420000000  0.4978600000000 1.0
C      1  0.4957870000000  0.5760120000000  0.4993900000000 1.0
C      1  0.5665550000000  0.4636360000000  0.5066660000000 1.0
C      1  0.4697040000000  0.5399540000000  0.4435450000000 1.0
C      1  0.5408170000000  0.5056330000000  0.4372730000000 1.0
C      1  0.4838900000000  0.4645290000000  0.4572830000000 1.0
C      1  0.5173550000000  0.5685840000000  0.4529370000000 1.0
C      1  0.5484040000000  0.4499460000000  0.4499620000000 1.0
C      1  0.4345090000000  0.4807920000000  0.4512570000000 1.0
END
