TITL C-2441164-471-356 2.80511174825973e-07 125000 -18976.5536577932 0 0 120 (S4) n - 1
REM
REM in /home/bkarasulu/work/CARBON/AIRSS/Generating-Clusters/ReaxFF-fromJPCA2015/Units_Real/with-SteepDescent/Higher-Symm
REM
REM
REM
REM
REM
REM ./C.cell (1df0a924f5614ab8850e4351716899ee)
REM
REM compiler GCC version 9.2.1 20190827 (Red Hat 9.2.1-1)
REM options -cpp -mtune=generic -march=x86-64 -g -O0 -fpre-include=/usr/include/finclude/math-vector-fortran.h
REM seed -42729857 906954944 -123091225 -429569962 -856208185 -34094860 -595637792 1677919581 1676783663 -396453796 1944395863 464036572 -82880289 995508554 -106634118 -312246290 -1508446880 1805895531 -129831797 73897484 -2006202271 1049053289 -1965541359 1203847733 315087761 -842966680 -2022021322 -972436742 521430308 -156719439 951779739 1504179341 -696387697
REM
CELL 1.54180   50.00000   50.00000   50.00000   90.00000   90.00000   90.00000
LATT -1
SFAC C  
C      1  0.5196440000000  0.4770340000000  0.5409920000000 1.0
C      1  0.5248880000000  0.4892720000000  0.4585820000000 1.0
C      1  0.5292170000000  0.5033840000000  0.5470200000000 1.0
C      1  0.5229720000000  0.5196390000000  0.4590090000000 1.0
C      1  0.5107220000000  0.5248920000000  0.5414160000000 1.0
C      1  0.4966230000000  0.5292120000000  0.4529760000000 1.0
C      1  0.4803550000000  0.5229770000000  0.5409860000000 1.0
C      1  0.4751140000000  0.5107180000000  0.4585790000000 1.0
C      1  0.4707810000000  0.4966280000000  0.5470200000000 1.0
C      1  0.4770290000000  0.4803500000000  0.4590130000000 1.0
C      1  0.4892760000000  0.4751180000000  0.5414220000000 1.0
C      1  0.5033790000000  0.4707760000000  0.4529840000000 1.0
C      1  0.5386620000000  0.4806100000000  0.4826160000000 1.0
C      1  0.5357070000000  0.4987110000000  0.5025020000000 1.0
C      1  0.5278840000000  0.5241150000000  0.4931780000000 1.0
C      1  0.5193880000000  0.5386630000000  0.5173830000000 1.0
C      1  0.5012890000000  0.5357060000000  0.4974940000000 1.0
C      1  0.4758840000000  0.5278840000000  0.5068160000000 1.0
C      1  0.4613390000000  0.5193860000000  0.4826090000000 1.0
C      1  0.4642930000000  0.5012890000000  0.5025000000000 1.0
C      1  0.4721170000000  0.4758830000000  0.4931830000000 1.0
C      1  0.4806120000000  0.4613410000000  0.5173910000000 1.0
C      1  0.4987110000000  0.4642930000000  0.4975030000000 1.0
C      1  0.5241160000000  0.4721170000000  0.5068240000000 1.0
C      1  0.5326970000000  0.5756480000000  0.4630100000000 1.0
C      1  0.4906050000000  0.5818160000000  0.5367990000000 1.0
C      1  0.4508910000000  0.5651420000000  0.4631550000000 1.0
C      1  0.4243470000000  0.5327010000000  0.5369760000000 1.0
C      1  0.4181890000000  0.4906010000000  0.4631900000000 1.0
C      1  0.4348520000000  0.4508950000000  0.5368400000000 1.0
C      1  0.4673040000000  0.4243430000000  0.4630270000000 1.0
C      1  0.5093930000000  0.4181930000000  0.5368200000000 1.0
C      1  0.5491100000000  0.4348480000000  0.4631740000000 1.0
C      1  0.5756520000000  0.4673080000000  0.5369870000000 1.0
C      1  0.5818130000000  0.5093900000000  0.4631910000000 1.0
C      1  0.5651460000000  0.5491140000000  0.5368310000000 1.0
C      1  0.4414120000000  0.5552740000000  0.5355910000000 1.0
C      1  0.4190460000000  0.5191880000000  0.4629320000000 1.0
C      1  0.4242860000000  0.4768090000000  0.5351660000000 1.0
C      1  0.4447310000000  0.4414080000000  0.4644060000000 1.0
C      1  0.4808070000000  0.4190500000000  0.5370730000000 1.0
C      1  0.5231960000000  0.4242830000000  0.4648450000000 1.0
C      1  0.5585860000000  0.4447350000000  0.5356080000000 1.0
C      1  0.5809550000000  0.4808030000000  0.4629400000000 1.0
C      1  0.5757120000000  0.5231990000000  0.5351640000000 1.0
C      1  0.5552700000000  0.5585830000000  0.4643940000000 1.0
C      1  0.5191920000000  0.5809590000000  0.5370540000000 1.0
C      1  0.4768060000000  0.5757090000000  0.4648250000000 1.0
C      1  0.5084600000000  0.4382740000000  0.4434920000000 1.0
C      1  0.5386050000000  0.4504650000000  0.5562410000000 1.0
C      1  0.5672780000000  0.4736320000000  0.4381740000000 1.0
C      1  0.5617180000000  0.5084650000000  0.5565160000000 1.0
C      1  0.5495440000000  0.5385990000000  0.4437630000000 1.0
C      1  0.5263590000000  0.5672840000000  0.5618230000000 1.0
C      1  0.4915430000000  0.5617120000000  0.4434760000000 1.0
C      1  0.4613930000000  0.5495500000000  0.5562270000000 1.0
C      1  0.4327250000000  0.5263530000000  0.4381640000000 1.0
C      1  0.4382800000000  0.4915490000000  0.5565160000000 1.0
C      1  0.4504590000000  0.4613870000000  0.4437700000000 1.0
C      1  0.4736380000000  0.4327320000000  0.5618390000000 1.0
C      1  0.4373410000000  0.5582770000000  0.4875180000000 1.0
C      1  0.4170070000000  0.5194550000000  0.5121710000000 1.0
C      1  0.4189730000000  0.4753540000000  0.4874760000000 1.0
C      1  0.4417210000000  0.4373430000000  0.5124800000000 1.0
C      1  0.4805460000000  0.4170060000000  0.4878340000000 1.0
C      1  0.5246440000000  0.4189750000000  0.5125360000000 1.0
C      1  0.5626590000000  0.4417200000000  0.4875350000000 1.0
C      1  0.5829930000000  0.4805480000000  0.5121800000000 1.0
C      1  0.5810270000000  0.5246430000000  0.4874730000000 1.0
C      1  0.5582790000000  0.5626600000000  0.5124670000000 1.0
C      1  0.5194540000000  0.5829910000000  0.4878150000000 1.0
C      1  0.4753560000000  0.5810280000000  0.5125150000000 1.0
C      1  0.5262310000000  0.4515310000000  0.4230490000000 1.0
C      1  0.5467940000000  0.4700320000000  0.5771740000000 1.0
C      1  0.5567400000000  0.4966370000000  0.4236760000000 1.0
C      1  0.5484570000000  0.5262390000000  0.5769560000000 1.0
C      1  0.5299790000000  0.5467860000000  0.4228260000000 1.0
C      1  0.5033520000000  0.5567480000000  0.5763190000000 1.0
C      1  0.4737720000000  0.5484500000000  0.4230350000000 1.0
C      1  0.4532030000000  0.5299870000000  0.5771650000000 1.0
C      1  0.4432630000000  0.5033440000000  0.4236730000000 1.0
C      1  0.4515390000000  0.4737800000000  0.5769600000000 1.0
C      1  0.4700240000000  0.4531950000000  0.4228360000000 1.0
C      1  0.4966450000000  0.4432710000000  0.5763330000000 1.0
C      1  0.4903890000000  0.5836050000000  0.4882120000000 1.0
C      1  0.4494480000000  0.5680980000000  0.5117740000000 1.0
C      1  0.4211960000000  0.5341450000000  0.4876590000000 1.0
C      1  0.4163930000000  0.4903900000000  0.5117770000000 1.0
C      1  0.4319030000000  0.4494470000000  0.4882210000000 1.0
C      1  0.4658530000000  0.4211970000000  0.5123440000000 1.0
C      1  0.5096120000000  0.4163920000000  0.4882330000000 1.0
C      1  0.5505520000000  0.4319050000000  0.5117930000000 1.0
C      1  0.5788050000000  0.4658520000000  0.4876720000000 1.0
C      1  0.5836070000000  0.5096130000000  0.5117780000000 1.0
C      1  0.5680970000000  0.5505510000000  0.4882120000000 1.0
C      1  0.5341470000000  0.5788060000000  0.5123260000000 1.0
C      1  0.4806810000000  0.4319250000000  0.4384830000000 1.0
C      1  0.5173570000000  0.4318330000000  0.5603850000000 1.0
C      1  0.5510100000000  0.4500130000000  0.4382130000000 1.0
C      1  0.5680660000000  0.4806870000000  0.5615290000000 1.0
C      1  0.5681760000000  0.5173510000000  0.4396230000000 1.0
C      1  0.5499770000000  0.5510160000000  0.5617890000000 1.0
C      1  0.5193220000000  0.5680600000000  0.4384670000000 1.0
C      1  0.4826400000000  0.5681820000000  0.5603670000000 1.0
C      1  0.4489930000000  0.5499710000000  0.4381980000000 1.0
C      1  0.4319310000000  0.5193280000000  0.5615210000000 1.0
C      1  0.4318260000000  0.4826340000000  0.4396240000000 1.0
C      1  0.4500200000000  0.4489990000000  0.5617990000000 1.0
C      1  0.5010210000000  0.5297630000000  0.5885160000000 1.0
C      1  0.4861120000000  0.5252230000000  0.4103140000000 1.0
C      1  0.4754090000000  0.5155840000000  0.5892670000000 1.0
C      1  0.4702500000000  0.5010120000000  0.4114800000000 1.0
C      1  0.4747640000000  0.4861210000000  0.5896840000000 1.0
C      1  0.4844290000000  0.4754000000000  0.4107330000000 1.0
C      1  0.4989750000000  0.4702590000000  0.5885230000000 1.0
C      1  0.5138920000000  0.4747550000000  0.4103210000000 1.0
C      1  0.5245870000000  0.4844380000000  0.5892720000000 1.0
C      1  0.5297540000000  0.4989660000000  0.4114810000000 1.0
C      1  0.5252320000000  0.5139010000000  0.5896810000000 1.0
C      1  0.5155750000000  0.5245780000000  0.4107280000000 1.0
END
