TITL C-2441156-4686-840 0.0522437469335302 125000 -10010.7667026505 0 0 80 (C1) n - 1
REM
REM in /home/bkarasulu/work/CARBON/AIRSS/Generating-Clusters/ReaxFF-fromJPCA2015/Units_Real/with-SteepDescent/Higher-Symm
REM
REM
REM
REM
REM
REM ./C.cell (1df0a924f5614ab8850e4351716899ee)
REM
REM compiler GCC version 9.2.1 20190827 (Red Hat 9.2.1-1)
REM options -cpp -mtune=generic -march=x86-64 -g -O0 -fpre-include=/usr/include/finclude/math-vector-fortran.h
REM seed 1421217815 1510190664 -875259252 -696277572 2026468286 -1226529033 -1334680860 -1885924613 -1030239690 1475469042 -487957773 1138081366 611742997 -277264355 1605964389 -1612129548 -700288970 -953608894 -422196804 -1922913616 -1789763121 1824217577 1056984648 -1245175922 14102772 -1780835901 -871340541 1315791426 -571296249 -2028545172 -384465698 -1990392438 1949942025
REM
CELL 1.54180   50.00000   50.00000   50.00000   90.00000   90.00000   90.00000
LATT -1
SFAC C  
C      1  0.4823180000000  0.5153890000000  0.4345930000000 1.0
C      1  0.4556710000000  0.5168320000000  0.5541970000000 1.0
C      1  0.5649310000000  0.5150460000000  0.5162270000000 1.0
C      1  0.4827470000000  0.4852350000000  0.4358020000000 1.0
C      1  0.4525220000000  0.4836010000000  0.5482920000000 1.0
C      1  0.5631970000000  0.4851400000000  0.5145950000000 1.0
C      1  0.5637710000000  0.5563960000000  0.5368240000000 1.0
C      1  0.4986850000000  0.5550500000000  0.4260670000000 1.0
C      1  0.4380690000000  0.5554090000000  0.5392800000000 1.0
C      1  0.5579630000000  0.4415870000000  0.5355470000000 1.0
C      1  0.5013540000000  0.4447470000000  0.4273480000000 1.0
C      1  0.4363900000000  0.4418360000000  0.5338490000000 1.0
C      1  0.4426080000000  0.5165330000000  0.4465170000000 1.0
C      1  0.4786650000000  0.5132890000000  0.5726420000000 1.0
C      1  0.5754280000000  0.5226130000000  0.4745080000000 1.0
C      1  0.4412920000000  0.4864020000000  0.4473050000000 1.0
C      1  0.4829480000000  0.4837170000000  0.5777590000000 1.0
C      1  0.5756970000000  0.4937260000000  0.4696980000000 1.0
C      1  0.5337190000000  0.5769730000000  0.5183940000000 1.0
C      1  0.4993710000000  0.5767620000000  0.4600510000000 1.0
C      1  0.4665030000000  0.5776030000000  0.5224360000000 1.0
C      1  0.5333730000000  0.4190690000000  0.5085600000000 1.0
C      1  0.4993990000000  0.4239700000000  0.4630690000000 1.0
C      1  0.4695670000000  0.4236900000000  0.5227090000000 1.0
C      1  0.5215120000000  0.5346320000000  0.5005230000000 1.0
C      1  0.4837520000000  0.5337100000000  0.4848210000000 1.0
C      1  0.4956950000000  0.5329290000000  0.5140070000000 1.0
C      1  0.5189060000000  0.4692330000000  0.4849110000000 1.0
C      1  0.4899010000000  0.4735200000000  0.4921620000000 1.0
C      1  0.4896580000000  0.4702920000000  0.5202610000000 1.0
C      1  0.5303400000000  0.5352550000000  0.5532380000000 1.0
C      1  0.5288760000000  0.5367090000000  0.4471120000000 1.0
C      1  0.4407800000000  0.5348860000000  0.5018540000000 1.0
C      1  0.5299790000000  0.4660070000000  0.5536920000000 1.0
C      1  0.5305770000000  0.4650980000000  0.4532520000000 1.0
C      1  0.4389210000000  0.4658540000000  0.5002520000000 1.0
C      1  0.4769050000000  0.4495570000000  0.5359330000000 1.0
C      1  0.5448110000000  0.4470790000000  0.5082970000000 1.0
C      1  0.4835230000000  0.4474630000000  0.4534070000000 1.0
C      1  0.4854930000000  0.5570470000000  0.5321300000000 1.0
C      1  0.5424490000000  0.5535680000000  0.5023050000000 1.0
C      1  0.4818920000000  0.5520910000000  0.4641230000000 1.0
C      1  0.5586930000000  0.4714950000000  0.4647340000000 1.0
C      1  0.4401450000000  0.4795030000000  0.4753290000000 1.0
C      1  0.5089610000000  0.4811900000000  0.5657110000000 1.0
C      1  0.5523160000000  0.5241860000000  0.4572530000000 1.0
C      1  0.4377700000000  0.5251710000000  0.4738070000000 1.0
C      1  0.5047010000000  0.5258150000000  0.5645210000000 1.0
C      1  0.5259150000000  0.4932630000000  0.4850260000000 1.0
C      1  0.4681550000000  0.4872220000000  0.4806200000000 1.0
C      1  0.5001820000000  0.4892890000000  0.5386190000000 1.0
C      1  0.5339410000000  0.5161070000000  0.4833110000000 1.0
C      1  0.4654670000000  0.5135080000000  0.4789650000000 1.0
C      1  0.4988330000000  0.5153750000000  0.5374170000000 1.0
C      1  0.5110350000000  0.4864580000000  0.4427230000000 1.0
C      1  0.4451250000000  0.4865050000000  0.5204770000000 1.0
C      1  0.5441360000000  0.4850980000000  0.5367800000000 1.0
C      1  0.5104490000000  0.5151240000000  0.4424210000000 1.0
C      1  0.4475790000000  0.5150570000000  0.5207450000000 1.0
C      1  0.5444270000000  0.5147030000000  0.5379110000000 1.0
C      1  0.5198210000000  0.5646750000000  0.4425630000000 1.0
C      1  0.4438730000000  0.5659910000000  0.5067690000000 1.0
C      1  0.5390840000000  0.5647550000000  0.5475730000000 1.0
C      1  0.5228130000000  0.4355330000000  0.4450860000000 1.0
C      1  0.4406560000000  0.4364160000000  0.5060680000000 1.0
C      1  0.5303210000000  0.4368300000000  0.5467500000000 1.0
C      1  0.4696990000000  0.5772480000000  0.4949240000000 1.0
C      1  0.5064400000000  0.5777060000000  0.5273240000000 1.0
C      1  0.5189700000000  0.5784850000000  0.4807380000000 1.0
C      1  0.4733020000000  0.4252800000000  0.4943100000000 1.0
C      1  0.5110790000000  0.4255250000000  0.5269630000000 1.0
C      1  0.5194170000000  0.4230800000000  0.4837870000000 1.0
C      1  0.4660400000000  0.5374150000000  0.4443230000000 1.0
C      1  0.4623350000000  0.5460630000000  0.5521330000000 1.0
C      1  0.5686450000000  0.5378800000000  0.4994950000000 1.0
C      1  0.4622530000000  0.4656830000000  0.4434140000000 1.0
C      1  0.4684160000000  0.4637600000000  0.5609700000000 1.0
C      1  0.5641090000000  0.4636270000000  0.4938030000000 1.0
C      1  0.4985530000000  0.5755760000000  0.4995220000000 1.0
C      1  0.4992550000000  0.4360660000000  0.5003930000000 1.0
END
