TITL C-2441161-5029-1077 0.020052421309098 125000 -24245.4198414324 0 0 167 (C1) n - 1
REM
REM in /home/bkarasulu/work/CARBON/AIRSS/Generating-Clusters/ReaxFF-fromJPCA2015/Units_Real/with-SteepDescent/Higher-Symm
REM
REM
REM
REM
REM
REM ./C.cell (1df0a924f5614ab8850e4351716899ee)
REM
REM compiler GCC version 9.2.1 20190827 (Red Hat 9.2.1-1)
REM options -cpp -mtune=generic -march=x86-64 -g -O0 -fpre-include=/usr/include/finclude/math-vector-fortran.h
REM seed 548570729 -1450545462 1698478355 -1061332423 -23965568 -1354450411 -2017486411 1042987842 -1211891232 -111140073 184757207 109416162 -376337424 1299465918 754320488 41527838 1273890459 -916856152 81065542 376702864 -292120503 2074595460 1536240613 -162194257 -806041176 1499842111 -1432001796 523996355 497161450 475089638 2102725611 -937095350 -397554624
REM
CELL 1.54180   50.00000   50.00000   50.00000   90.00000   90.00000   90.00000
LATT -1
SFAC C  
C      1  0.4815130000000  0.4193550000000  0.5481960000000 1.0
C      1  0.4778050000000  0.4871080000000  0.5911390000000 1.0
C      1  0.4816600000000  0.5668480000000  0.5748430000000 1.0
C      1  0.4758750000000  0.5964620000000  0.4916680000000 1.0
C      1  0.4816860000000  0.5497630000000  0.4200340000000 1.0
C      1  0.4815640000000  0.4720120000000  0.4130860000000 1.0
C      1  0.4783620000000  0.4118660000000  0.4652230000000 1.0
C      1  0.3943600000000  0.5394340000000  0.5170950000000 1.0
C      1  0.3968440000000  0.5390690000000  0.4873520000000 1.0
C      1  0.3989030000000  0.5133290000000  0.4734380000000 1.0
C      1  0.3860710000000  0.4879430000000  0.4709050000000 1.0
C      1  0.3873090000000  0.4618650000000  0.4795290000000 1.0
C      1  0.3884910000000  0.4661970000000  0.5295840000000 1.0
C      1  0.3910940000000  0.4912130000000  0.5425480000000 1.0
C      1  0.5616660000000  0.5308420000000  0.4762060000000 1.0
C      1  0.5624690000000  0.5029410000000  0.4629140000000 1.0
C      1  0.5657520000000  0.4725100000000  0.4776260000000 1.0
C      1  0.5634560000000  0.4599030000000  0.5092440000000 1.0
C      1  0.5613290000000  0.4752350000000  0.5348060000000 1.0
C      1  0.5576230000000  0.5195700000000  0.5370000000000 1.0
C      1  0.5634570000000  0.5391770000000  0.5094740000000 1.0
C      1  0.4959860000000  0.4459810000000  0.6004100000000 1.0
C      1  0.5003570000000  0.5387370000000  0.6111460000000 1.0
C      1  0.5006080000000  0.6081620000000  0.5314930000000 1.0
C      1  0.4981270000000  0.5932750000000  0.4318830000000 1.0
C      1  0.5012620000000  0.5057990000000  0.3831450000000 1.0
C      1  0.5031520000000  0.4218310000000  0.4242630000000 1.0
C      1  0.4991220000000  0.3861330000000  0.5182620000000 1.0
C      1  0.5572050000000  0.4161660000000  0.4790520000000 1.0
C      1  0.5659780000000  0.4291180000000  0.5513520000000 1.0
C      1  0.5578520000000  0.4959220000000  0.5833650000000 1.0
C      1  0.5613560000000  0.5688440000000  0.5514990000000 1.0
C      1  0.5556570000000  0.5844300000000  0.4803760000000 1.0
C      1  0.5617480000000  0.5358940000000  0.4196270000000 1.0
C      1  0.5580540000000  0.4665700000000  0.4244630000000 1.0
C      1  0.5319520000000  0.4785030000000  0.5805480000000 1.0
C      1  0.5372640000000  0.5575170000000  0.5638370000000 1.0
C      1  0.5298930000000  0.5944080000000  0.4931070000000 1.0
C      1  0.5329280000000  0.5363880000000  0.4324950000000 1.0
C      1  0.5336030000000  0.4821120000000  0.4246530000000 1.0
C      1  0.5317260000000  0.4131310000000  0.4637870000000 1.0
C      1  0.5346540000000  0.4366640000000  0.5439090000000 1.0
C      1  0.5841400000000  0.5522650000000  0.5424640000000 1.0
C      1  0.5799410000000  0.5679850000000  0.4862880000000 1.0
C      1  0.5842000000000  0.5318870000000  0.4390560000000 1.0
C      1  0.5831010000000  0.4740260000000  0.4382160000000 1.0
C      1  0.5813180000000  0.4341590000000  0.4809740000000 1.0
C      1  0.5882920000000  0.4446210000000  0.5390300000000 1.0
C      1  0.5812170000000  0.4969980000000  0.5653720000000 1.0
C      1  0.4562750000000  0.5343210000000  0.4147270000000 1.0
C      1  0.4552020000000  0.4634220000000  0.4286460000000 1.0
C      1  0.4536660000000  0.4198990000000  0.4798200000000 1.0
C      1  0.4555210000000  0.4299490000000  0.5541850000000 1.0
C      1  0.4527700000000  0.5040040000000  0.5935880000000 1.0
C      1  0.4572150000000  0.5699130000000  0.5594560000000 1.0
C      1  0.4516530000000  0.5893460000000  0.4765960000000 1.0
C      1  0.5479340000000  0.4435170000000  0.4394880000000 1.0
C      1  0.5454230000000  0.4118070000000  0.5049370000000 1.0
C      1  0.5662580000000  0.4440290000000  0.5747020000000 1.0
C      1  0.5476820000000  0.5224680000000  0.5882500000000 1.0
C      1  0.5462280000000  0.5794030000000  0.5284690000000 1.0
C      1  0.5440290000000  0.5767240000000  0.4551750000000 1.0
C      1  0.5518620000000  0.5212190000000  0.3987770000000 1.0
C      1  0.4262260000000  0.5056370000000  0.4327350000000 1.0
C      1  0.4150130000000  0.4446520000000  0.4544230000000 1.0
C      1  0.4190140000000  0.4344370000000  0.5135080000000 1.0
C      1  0.4231210000000  0.4635950000000  0.5745230000000 1.0
C      1  0.4187400000000  0.5322520000000  0.5576710000000 1.0
C      1  0.4276200000000  0.5793780000000  0.5206660000000 1.0
C      1  0.4257540000000  0.5632240000000  0.4481770000000 1.0
C      1  0.5051390000000  0.4102740000000  0.4773060000000 1.0
C      1  0.5084710000000  0.4297540000000  0.5564870000000 1.0
C      1  0.5038440000000  0.4977480000000  0.5828440000000 1.0
C      1  0.5115240000000  0.5725570000000  0.5697690000000 1.0
C      1  0.5029320000000  0.5917110000000  0.4803760000000 1.0
C      1  0.5089670000000  0.5413460000000  0.4150580000000 1.0
C      1  0.5086860000000  0.4672030000000  0.4208580000000 1.0
C      1  0.5173330000000  0.5401380000000  0.5087470000000 1.0
C      1  0.5154440000000  0.5380920000000  0.4788400000000 1.0
C      1  0.5152830000000  0.5070520000000  0.4660720000000 1.0
C      1  0.5210750000000  0.4737200000000  0.4748280000000 1.0
C      1  0.5191270000000  0.4601230000000  0.5040530000000 1.0
C      1  0.5175370000000  0.4780510000000  0.5270770000000 1.0
C      1  0.5103400000000  0.5064230000000  0.5225730000000 1.0
C      1  0.4800200000000  0.4522990000000  0.5227760000000 1.0
C      1  0.4774790000000  0.4881200000000  0.5489650000000 1.0
C      1  0.4778590000000  0.5321900000000  0.5394090000000 1.0
C      1  0.4750880000000  0.5532120000000  0.4992830000000 1.0
C      1  0.4731590000000  0.5337020000000  0.4610380000000 1.0
C      1  0.4787200000000  0.4843420000000  0.4545810000000 1.0
C      1  0.4831710000000  0.4495230000000  0.4789660000000 1.0
C      1  0.4950680000000  0.5115380000000  0.5521500000000 1.0
C      1  0.4927980000000  0.5490080000000  0.5210950000000 1.0
C      1  0.4902360000000  0.5529910000000  0.4744340000000 1.0
C      1  0.4887690000000  0.5105430000000  0.4543280000000 1.0
C      1  0.4981020000000  0.4635880000000  0.4594820000000 1.0
C      1  0.4969980000000  0.4412940000000  0.5020880000000 1.0
C      1  0.4958140000000  0.4662880000000  0.5430010000000 1.0
C      1  0.5075760000000  0.4432090000000  0.4113450000000 1.0
C      1  0.5081750000000  0.3864240000000  0.4927340000000 1.0
C      1  0.5126510000000  0.4322490000000  0.5841620000000 1.0
C      1  0.5079610000000  0.5133810000000  0.6067470000000 1.0
C      1  0.5054470000000  0.5948210000000  0.5551170000000 1.0
C      1  0.5062540000000  0.6048550000000  0.4551480000000 1.0
C      1  0.5105610000000  0.5298350000000  0.3898600000000 1.0
C      1  0.4529260000000  0.5340060000000  0.5914300000000 1.0
C      1  0.4531660000000  0.5853070000000  0.5357070000000 1.0
C      1  0.4511010000000  0.5788210000000  0.4492920000000 1.0
C      1  0.4548740000000  0.5066710000000  0.4029050000000 1.0
C      1  0.4524990000000  0.4338280000000  0.4328440000000 1.0
C      1  0.4518060000000  0.4092520000000  0.5083540000000 1.0
C      1  0.4498240000000  0.4482440000000  0.5752120000000 1.0
C      1  0.4721890000000  0.4592170000000  0.5916370000000 1.0
C      1  0.4775730000000  0.5478160000000  0.5959960000000 1.0
C      1  0.4743230000000  0.5991510000000  0.5202980000000 1.0
C      1  0.4756540000000  0.5746310000000  0.4327710000000 1.0
C      1  0.4794800000000  0.4940940000000  0.3966690000000 1.0
C      1  0.4776720000000  0.4192510000000  0.4377990000000 1.0
C      1  0.4763400000000  0.4033000000000  0.5242910000000 1.0
C      1  0.5864710000000  0.4575130000000  0.4629160000000 1.0
C      1  0.5876000000000  0.4434250000000  0.5086980000000 1.0
C      1  0.5877680000000  0.4739780000000  0.5476680000000 1.0
C      1  0.5839160000000  0.5227280000000  0.5492380000000 1.0
C      1  0.5867880000000  0.5567440000000  0.5131730000000 1.0
C      1  0.5841850000000  0.5462170000000  0.4654390000000 1.0
C      1  0.5858480000000  0.5029160000000  0.4447040000000 1.0
C      1  0.5438150000000  0.4591210000000  0.4638650000000 1.0
C      1  0.5400090000000  0.4401340000000  0.5143730000000 1.0
C      1  0.5424580000000  0.4632350000000  0.5554000000000 1.0
C      1  0.5403360000000  0.5287360000000  0.5602900000000 1.0
C      1  0.5401460000000  0.5548950000000  0.5146550000000 1.0
C      1  0.5369720000000  0.5477620000000  0.4597930000000 1.0
C      1  0.5351390000000  0.5049750000000  0.4433860000000 1.0
C      1  0.4119690000000  0.5611050000000  0.4755610000000 1.0
C      1  0.4247330000000  0.5160810000000  0.4592990000000 1.0
C      1  0.3971120000000  0.4659970000000  0.4531040000000 1.0
C      1  0.3990990000000  0.4519370000000  0.5057200000000 1.0
C      1  0.4043800000000  0.4693110000000  0.5516860000000 1.0
C      1  0.4007980000000  0.5196880000000  0.5405880000000 1.0
C      1  0.4105470000000  0.5585300000000  0.5278590000000 1.0
C      1  0.4275020000000  0.5801840000000  0.4907090000000 1.0
C      1  0.4348660000000  0.5444940000000  0.4296690000000 1.0
C      1  0.4381290000000  0.4865250000000  0.4162830000000 1.0
C      1  0.4342100000000  0.4253090000000  0.4543180000000 1.0
C      1  0.4365550000000  0.4216310000000  0.5298450000000 1.0
C      1  0.4342370000000  0.4860230000000  0.5843490000000 1.0
C      1  0.4380410000000  0.5480980000000  0.5706790000000 1.0
C      1  0.5275410000000  0.3900910000000  0.5120580000000 1.0
C      1  0.5224030000000  0.4555380000000  0.5969360000000 1.0
C      1  0.5283260000000  0.5319730000000  0.6084220000000 1.0
C      1  0.5285310000000  0.6018890000000  0.5208120000000 1.0
C      1  0.5262270000000  0.5935650000000  0.4396010000000 1.0
C      1  0.5321290000000  0.5111460000000  0.3829910000000 1.0
C      1  0.5296090000000  0.4196820000000  0.4354220000000 1.0
C      1  0.4544810000000  0.4907780000000  0.5308920000000 1.0
C      1  0.4554780000000  0.5204510000000  0.5252990000000 1.0
C      1  0.4515330000000  0.5361660000000  0.5009050000000 1.0
C      1  0.4473620000000  0.5291840000000  0.4729500000000 1.0
C      1  0.4522120000000  0.4742070000000  0.4617210000000 1.0
C      1  0.4550940000000  0.4547680000000  0.4844750000000 1.0
C      1  0.4555370000000  0.4650180000000  0.5153810000000 1.0
C      1  0.4665590000000  0.4976800000000  0.4919260000000 1.0
C      1  0.5557450000000  0.4994900000000  0.5077830000000 1.0
C      1  0.6094970000000  0.5005940000000  0.4994140000000 1.0
C      1  0.4888500000000  0.5021300000000  0.5049510000000 1.0
C      1  0.4387650000000  0.4927920000000  0.4918100000000 1.0
C      1  0.5853720000000  0.5003380000000  0.5027660000000 1.0
END
