TITL C-2441160-1326-170 0.0125633769955995 125000 -19088.834283322 0 0 122 (C1) n - 1
REM
REM in /home/bkarasulu/work/CARBON/AIRSS/Generating-Clusters/ReaxFF-fromJPCA2015/Units_Real/with-SteepDescent/Higher-Symm
REM
REM
REM
REM
REM
REM ./C.cell (1df0a924f5614ab8850e4351716899ee)
REM
REM compiler GCC version 9.2.1 20190827 (Red Hat 9.2.1-1)
REM options -cpp -mtune=generic -march=x86-64 -g -O0 -fpre-include=/usr/include/finclude/math-vector-fortran.h
REM seed 1399506034 -1804350601 594030320 1904964116 -20050743 -1882673734 1729173437 -289623601 1638848808 -491307710 -1038218594 -551715174 651944051 -910812073 190499016 -2065212253 1789269773 2083616053 -1388501150 1510203703 278747245 -324562317 -936062821 -1888165966 1627200561 1869277841 -965620329 -1459429610 -468573727 -657855176 66335435 1015091583 -1379691085
REM
CELL 1.54180   50.00000   50.00000   50.00000   90.00000   90.00000   90.00000
LATT -1
SFAC C  
C      1  0.4369640000000  0.4441630000000  0.4590440000000 1.0
C      1  0.4964780000000  0.4442360000000  0.5745180000000 1.0
C      1  0.5675090000000  0.4448350000000  0.4647050000000 1.0
C      1  0.4374480000000  0.5542170000000  0.4594390000000 1.0
C      1  0.4974280000000  0.5546000000000  0.5759950000000 1.0
C      1  0.5675280000000  0.5536370000000  0.4658840000000 1.0
C      1  0.5169410000000  0.4658720000000  0.4168380000000 1.0
C      1  0.4200620000000  0.4653160000000  0.5282720000000 1.0
C      1  0.5645670000000  0.4659770000000  0.5544980000000 1.0
C      1  0.5163810000000  0.5321450000000  0.4172860000000 1.0
C      1  0.4204610000000  0.5332620000000  0.5285620000000 1.0
C      1  0.5646410000000  0.5329650000000  0.5557590000000 1.0
C      1  0.5426560000000  0.5270990000000  0.4362300000000 1.0
C      1  0.4213590000000  0.5296780000000  0.4963210000000 1.0
C      1  0.5366220000000  0.5300060000000  0.5705490000000 1.0
C      1  0.5434670000000  0.4694090000000  0.4342740000000 1.0
C      1  0.4210670000000  0.4687270000000  0.4957940000000 1.0
C      1  0.5355420000000  0.4707850000000  0.5681420000000 1.0
C      1  0.5250950000000  0.5565270000000  0.5704230000000 1.0
C      1  0.5468730000000  0.5529570000000  0.4475570000000 1.0
C      1  0.4311680000000  0.5549530000000  0.4867710000000 1.0
C      1  0.5229400000000  0.4449570000000  0.5653840000000 1.0
C      1  0.5490350000000  0.4428450000000  0.4437760000000 1.0
C      1  0.4302730000000  0.4435670000000  0.4859140000000 1.0
C      1  0.5287670000000  0.5096970000000  0.4594380000000 1.0
C      1  0.4484020000000  0.5128910000000  0.4954690000000 1.0
C      1  0.5210190000000  0.5169480000000  0.5453950000000 1.0
C      1  0.5285870000000  0.4822930000000  0.4602040000000 1.0
C      1  0.4483590000000  0.4853380000000  0.4952730000000 1.0
C      1  0.5213360000000  0.4891800000000  0.5461270000000 1.0
C      1  0.5399550000000  0.4102780000000  0.4877850000000 1.0
C      1  0.4701920000000  0.4085150000000  0.4702050000000 1.0
C      1  0.4896190000000  0.4082790000000  0.5396680000000 1.0
C      1  0.5411910000000  0.5895370000000  0.4886930000000 1.0
C      1  0.4711850000000  0.5900210000000  0.4709180000000 1.0
C      1  0.4910870000000  0.5885810000000  0.5404210000000 1.0
C      1  0.5020860000000  0.4470300000000  0.4910680000000 1.0
C      1  0.4770770000000  0.4473790000000  0.5056150000000 1.0
C      1  0.5170750000000  0.4501360000000  0.5155330000000 1.0
C      1  0.5067060000000  0.5499600000000  0.4773110000000 1.0
C      1  0.4785440000000  0.5499890000000  0.5071740000000 1.0
C      1  0.5073540000000  0.5516570000000  0.5061140000000 1.0
C      1  0.4436200000000  0.4844110000000  0.4305320000000 1.0
C      1  0.4683120000000  0.4849260000000  0.5847670000000 1.0
C      1  0.5877490000000  0.4858440000000  0.4856570000000 1.0
C      1  0.4434480000000  0.5129120000000  0.4306320000000 1.0
C      1  0.4685150000000  0.5134710000000  0.5848970000000 1.0
C      1  0.5880300000000  0.5138780000000  0.4860410000000 1.0
C      1  0.4765560000000  0.5549390000000  0.4322630000000 1.0
C      1  0.4534550000000  0.5557780000000  0.5556000000000 1.0
C      1  0.5706290000000  0.5557900000000  0.5136620000000 1.0
C      1  0.4772500000000  0.4424030000000  0.4323190000000 1.0
C      1  0.4527740000000  0.4422680000000  0.5550140000000 1.0
C      1  0.5711550000000  0.4440710000000  0.5123140000000 1.0
C      1  0.5755150000000  0.4747280000000  0.5097480000000 1.0
C      1  0.4719250000000  0.4719140000000  0.4288830000000 1.0
C      1  0.4523260000000  0.4726980000000  0.5610500000000 1.0
C      1  0.5768330000000  0.5267290000000  0.5105560000000 1.0
C      1  0.4720610000000  0.5242460000000  0.4300730000000 1.0
C      1  0.4526460000000  0.5254260000000  0.5612350000000 1.0
C      1  0.4798870000000  0.6018900000000  0.5168870000000 1.0
C      1  0.5259940000000  0.6009300000000  0.5105460000000 1.0
C      1  0.4976650000000  0.6023950000000  0.4731920000000 1.0
C      1  0.4785100000000  0.3957080000000  0.5155740000000 1.0
C      1  0.5250760000000  0.3969060000000  0.5090800000000 1.0
C      1  0.4968340000000  0.3974530000000  0.4723210000000 1.0
C      1  0.4780550000000  0.4283090000000  0.5579400000000 1.0
C      1  0.5617060000000  0.4298170000000  0.4889480000000 1.0
C      1  0.4608510000000  0.4290500000000  0.4516340000000 1.0
C      1  0.4790750000000  0.5693060000000  0.5588600000000 1.0
C      1  0.5620490000000  0.5691550000000  0.4900420000000 1.0
C      1  0.4612970000000  0.5696860000000  0.4519860000000 1.0
C      1  0.4128480000000  0.4849830000000  0.4705000000000 1.0
C      1  0.5183810000000  0.4851300000000  0.5898970000000 1.0
C      1  0.5694070000000  0.4851800000000  0.4397530000000 1.0
C      1  0.4129780000000  0.5136280000000  0.4707150000000 1.0
C      1  0.5185290000000  0.5136030000000  0.5902770000000 1.0
C      1  0.5695770000000  0.5132910000000  0.4398600000000 1.0
C      1  0.4933290000000  0.5282640000000  0.5888080000000 1.0
C      1  0.5808070000000  0.5278510000000  0.4622600000000 1.0
C      1  0.4274430000000  0.5279150000000  0.4496600000000 1.0
C      1  0.4929970000000  0.4702750000000  0.5885780000000 1.0
C      1  0.5800960000000  0.4711040000000  0.4624470000000 1.0
C      1  0.4270910000000  0.4702370000000  0.4494350000000 1.0
C      1  0.4609960000000  0.5916360000000  0.4977330000000 1.0
C      1  0.5197230000000  0.5893690000000  0.5363460000000 1.0
C      1  0.5232900000000  0.5913740000000  0.4663090000000 1.0
C      1  0.4595900000000  0.4064460000000  0.4968380000000 1.0
C      1  0.5179240000000  0.4072860000000  0.5348680000000 1.0
C      1  0.5222210000000  0.4093010000000  0.4650140000000 1.0
C      1  0.5234960000000  0.5289530000000  0.5188740000000 1.0
C      1  0.5046430000000  0.5215370000000  0.4712960000000 1.0
C      1  0.4717540000000  0.5222650000000  0.5113670000000 1.0
C      1  0.5229470000000  0.4783590000000  0.5187070000000 1.0
C      1  0.5045170000000  0.4700870000000  0.4711650000000 1.0
C      1  0.4713090000000  0.4751520000000  0.5111290000000 1.0
C      1  0.5614420000000  0.4422860000000  0.5388740000000 1.0
C      1  0.5057720000000  0.4411650000000  0.4269410000000 1.0
C      1  0.4349970000000  0.4415470000000  0.5328190000000 1.0
C      1  0.5610770000000  0.5575160000000  0.5408950000000 1.0
C      1  0.5045490000000  0.5560030000000  0.4272500000000 1.0
C      1  0.4357310000000  0.5569280000000  0.5334410000000 1.0
C      1  0.4715330000000  0.5124810000000  0.5392200000000 1.0
C      1  0.5464260000000  0.5165090000000  0.5058570000000 1.0
C      1  0.4814280000000  0.5103080000000  0.4571800000000 1.0
C      1  0.4713470000000  0.4849650000000  0.5390230000000 1.0
C      1  0.5469740000000  0.4890210000000  0.5056450000000 1.0
C      1  0.4819380000000  0.4826060000000  0.4576840000000 1.0
C      1  0.5790690000000  0.5140750000000  0.5403770000000 1.0
C      1  0.4959280000000  0.5131730000000  0.4117140000000 1.0
C      1  0.4254490000000  0.5135220000000  0.5484870000000 1.0
C      1  0.5793880000000  0.4854650000000  0.5398880000000 1.0
C      1  0.4963100000000  0.4844800000000  0.4117470000000 1.0
C      1  0.4253730000000  0.4848500000000  0.5483670000000 1.0
C      1  0.4476420000000  0.4314260000000  0.5049070000000 1.0
C      1  0.5307790000000  0.4326280000000  0.5406530000000 1.0
C      1  0.5260820000000  0.4270950000000  0.4430190000000 1.0
C      1  0.4490130000000  0.5667960000000  0.5060000000000 1.0
C      1  0.5372020000000  0.5718060000000  0.5505190000000 1.0
C      1  0.5220660000000  0.5659520000000  0.4524680000000 1.0
C      1  0.5002260000000  0.3888470000000  0.4986360000000 1.0
C      1  0.5014880000000  0.6095850000000  0.5003530000000 1.0
END
