TITL C-2441168-9922-1348 0.102156473847795 125000 -24967.7338566318 0 0 184 (C1) n - 1
REM
REM in /home/bkarasulu/work/CARBON/AIRSS/Generating-Clusters/ReaxFF-fromJPCA2015/Units_Real/with-SteepDescent/Higher-Symm
REM
REM
REM
REM
REM
REM ./C.cell (1df0a924f5614ab8850e4351716899ee)
REM
REM compiler GCC version 9.2.1 20190827 (Red Hat 9.2.1-1)
REM options -cpp -mtune=generic -march=x86-64 -g -O0 -fpre-include=/usr/include/finclude/math-vector-fortran.h
REM seed -1064996290 206600472 776271804 -2012752188 1359707441 -1464699350 938901437 245381316 1020447755 -1353560606 1424107440 60683912 267769057 2088693039 -1948101237 -1845690327 -112213744 -364804294 1058829420 884920034 -721855381 878161465 -111347373 -1623068805 -511105716 -2001214618 1167884686 691216412 -253758711 -1117403374 -978366930 430947197 -1130794496
REM
CELL 1.54180   50.00000   50.00000   50.00000   90.00000   90.00000   90.00000
LATT -1
SFAC C  
C      1  0.4651780000000  0.4935770000000  0.5054390000000 1.0
C      1  0.5249790000000  0.4877410000000  0.5093120000000 1.0
C      1  0.5287660000000  0.6000920000000  0.4953310000000 1.0
C      1  0.4695150000000  0.6018750000000  0.5047440000000 1.0
C      1  0.5566690000000  0.4584460000000  0.5090540000000 1.0
C      1  0.4454510000000  0.4605910000000  0.4890770000000 1.0
C      1  0.3888810000000  0.5347320000000  0.5000310000000 1.0
C      1  0.6112990000000  0.5350780000000  0.4997680000000 1.0
C      1  0.5350810000000  0.4451060000000  0.5654480000000 1.0
C      1  0.4588470000000  0.4317370000000  0.4303690000000 1.0
C      1  0.5771890000000  0.5839280000000  0.4825730000000 1.0
C      1  0.4243180000000  0.5833040000000  0.5170340000000 1.0
C      1  0.5510270000000  0.4137740000000  0.5125690000000 1.0
C      1  0.4405040000000  0.4088660000000  0.4884970000000 1.0
C      1  0.5532520000000  0.5120500000000  0.5500580000000 1.0
C      1  0.4405420000000  0.5062620000000  0.4440060000000 1.0
C      1  0.4523410000000  0.5564580000000  0.5624700000000 1.0
C      1  0.5470920000000  0.5590570000000  0.4355790000000 1.0
C      1  0.4153530000000  0.4984830000000  0.5274770000000 1.0
C      1  0.5899100000000  0.4970150000000  0.4704110000000 1.0
C      1  0.5106830000000  0.5440180000000  0.4024520000000 1.0
C      1  0.4883440000000  0.5470810000000  0.5992320000000 1.0
C      1  0.4962250000000  0.5544300000000  0.4933670000000 1.0
C      1  0.5015240000000  0.5588990000000  0.5218200000000 1.0
C      1  0.3987880000000  0.5408760000000  0.4715250000000 1.0
C      1  0.6020220000000  0.5409630000000  0.5283830000000 1.0
C      1  0.5555830000000  0.5233750000000  0.4115770000000 1.0
C      1  0.4394900000000  0.5258330000000  0.5887830000000 1.0
C      1  0.4753550000000  0.5221070000000  0.4113840000000 1.0
C      1  0.5188330000000  0.5237560000000  0.5860930000000 1.0
C      1  0.4429710000000  0.4777260000000  0.4409170000000 1.0
C      1  0.5543280000000  0.4845410000000  0.5504910000000 1.0
C      1  0.5235450000000  0.4389160000000  0.4764360000000 1.0
C      1  0.4780110000000  0.4357630000000  0.5096990000000 1.0
C      1  0.4826900000000  0.5275460000000  0.4655630000000 1.0
C      1  0.5254280000000  0.5188190000000  0.5424340000000 1.0
C      1  0.5819740000000  0.4700540000000  0.5118240000000 1.0
C      1  0.4274100000000  0.4814020000000  0.4813610000000 1.0
C      1  0.5790960000000  0.5530990000000  0.5429370000000 1.0
C      1  0.4180200000000  0.5546760000000  0.4536530000000 1.0
C      1  0.4820510000000  0.5009600000000  0.3924890000000 1.0
C      1  0.5218650000000  0.5002390000000  0.6019280000000 1.0
C      1  0.4069720000000  0.4669650000000  0.4655180000000 1.0
C      1  0.5930300000000  0.4621750000000  0.5387310000000 1.0
C      1  0.5400740000000  0.4202360000000  0.5521300000000 1.0
C      1  0.4583990000000  0.4153120000000  0.4535730000000 1.0
C      1  0.3968720000000  0.4850100000000  0.5100580000000 1.0
C      1  0.6103300000000  0.4847700000000  0.4876010000000 1.0
C      1  0.5085870000000  0.4400840000000  0.4132470000000 1.0
C      1  0.4934260000000  0.4363520000000  0.5916060000000 1.0
C      1  0.4174470000000  0.4656010000000  0.4384060000000 1.0
C      1  0.5764790000000  0.4710810000000  0.5608380000000 1.0
C      1  0.5044450000000  0.5219240000000  0.5609000000000 1.0
C      1  0.4684020000000  0.5151850000000  0.4418650000000 1.0
C      1  0.4184440000000  0.5536960000000  0.5304420000000 1.0
C      1  0.5827920000000  0.5572680000000  0.4694580000000 1.0
C      1  0.4405360000000  0.5021580000000  0.3998760000000 1.0
C      1  0.5504190000000  0.5016230000000  0.5991610000000 1.0
C      1  0.5225620000000  0.4320400000000  0.5878860000000 1.0
C      1  0.4799300000000  0.4334540000000  0.4078760000000 1.0
C      1  0.5620470000000  0.5257130000000  0.5021160000000 1.0
C      1  0.4419190000000  0.5304350000000  0.4964440000000 1.0
C      1  0.5269050000000  0.5287960000000  0.4653410000000 1.0
C      1  0.4631240000000  0.5185440000000  0.5378630000000 1.0
C      1  0.4780770000000  0.5205120000000  0.5123120000000 1.0
C      1  0.5231100000000  0.5391310000000  0.4921180000000 1.0
C      1  0.5653160000000  0.5465860000000  0.5699540000000 1.0
C      1  0.4322730000000  0.5470150000000  0.4289300000000 1.0
C      1  0.5999380000000  0.5373880000000  0.4727950000000 1.0
C      1  0.3931010000000  0.5419480000000  0.5279110000000 1.0
C      1  0.5216810000000  0.4626400000000  0.4003810000000 1.0
C      1  0.4823950000000  0.4626610000000  0.5995990000000 1.0
C      1  0.5420590000000  0.4732790000000  0.5279310000000 1.0
C      1  0.4794990000000  0.4904260000000  0.4461960000000 1.0
C      1  0.4467970000000  0.6025130000000  0.5232860000000 1.0
C      1  0.5501010000000  0.6009230000000  0.4757760000000 1.0
C      1  0.5190940000000  0.3811730000000  0.4912070000000 1.0
C      1  0.4835850000000  0.3818620000000  0.5127390000000 1.0
C      1  0.5594170000000  0.4559190000000  0.5776400000000 1.0
C      1  0.4397850000000  0.4546940000000  0.4257400000000 1.0
C      1  0.5447370000000  0.4574450000000  0.4829870000000 1.0
C      1  0.4532760000000  0.4494140000000  0.5143000000000 1.0
C      1  0.5694260000000  0.5444910000000  0.4264280000000 1.0
C      1  0.4268140000000  0.5478820000000  0.5727360000000 1.0
C      1  0.5590020000000  0.5671770000000  0.5260460000000 1.0
C      1  0.4337460000000  0.5765480000000  0.4644790000000 1.0
C      1  0.4849550000000  0.4804130000000  0.4883690000000 1.0
C      1  0.5063240000000  0.4696010000000  0.5030620000000 1.0
C      1  0.5119290000000  0.3831520000000  0.5202940000000 1.0
C      1  0.4911810000000  0.3846800000000  0.4839180000000 1.0
C      1  0.5045600000000  0.4454880000000  0.5167220000000 1.0
C      1  0.4986120000000  0.4506080000000  0.4670400000000 1.0
C      1  0.4973290000000  0.4794270000000  0.4281620000000 1.0
C      1  0.5048080000000  0.4649810000000  0.5590290000000 1.0
C      1  0.4956680000000  0.5907500000000  0.5156080000000 1.0
C      1  0.5029600000000  0.5877730000000  0.4882080000000 1.0
C      1  0.4020970000000  0.5125540000000  0.4678870000000 1.0
C      1  0.5989520000000  0.5117390000000  0.5318780000000 1.0
C      1  0.5240500000000  0.5637220000000  0.4185130000000 1.0
C      1  0.4718310000000  0.5638940000000  0.5833840000000 1.0
C      1  0.5999210000000  0.4575240000000  0.4946180000000 1.0
C      1  0.3991770000000  0.4549320000000  0.5076200000000 1.0
C      1  0.5890340000000  0.4458270000000  0.4696190000000 1.0
C      1  0.4090460000000  0.4450290000000  0.5329620000000 1.0
C      1  0.5641810000000  0.5029550000000  0.4299030000000 1.0
C      1  0.4268510000000  0.5066090000000  0.5740630000000 1.0
C      1  0.5023310000000  0.5661610000000  0.4367990000000 1.0
C      1  0.4931800000000  0.5681890000000  0.5650590000000 1.0
C      1  0.5208370000000  0.5976790000000  0.5469690000000 1.0
C      1  0.4783300000000  0.5985750000000  0.4522960000000 1.0
C      1  0.4592460000000  0.4823970000000  0.3886460000000 1.0
C      1  0.5512550000000  0.4708640000000  0.6015940000000 1.0
C      1  0.5090860000000  0.4908530000000  0.4022410000000 1.0
C      1  0.5016030000000  0.4836360000000  0.5877830000000 1.0
C      1  0.4588080000000  0.5596090000000  0.4247870000000 1.0
C      1  0.5393250000000  0.5609830000000  0.5754290000000 1.0
C      1  0.4636010000000  0.5470790000000  0.5059630000000 1.0
C      1  0.5486670000000  0.5512050000000  0.4987810000000 1.0
C      1  0.5855700000000  0.4888570000000  0.4432680000000 1.0
C      1  0.4131390000000  0.4901720000000  0.5558270000000 1.0
C      1  0.5375670000000  0.4937310000000  0.4327640000000 1.0
C      1  0.4765280000000  0.4998030000000  0.5803260000000 1.0
C      1  0.4654440000000  0.5905510000000  0.5437330000000 1.0
C      1  0.5323500000000  0.5933790000000  0.4536750000000 1.0
C      1  0.4660090000000  0.4891530000000  0.5348740000000 1.0
C      1  0.5422520000000  0.4876220000000  0.4812320000000 1.0
C      1  0.4927930000000  0.5451890000000  0.5462280000000 1.0
C      1  0.5043500000000  0.5420500000000  0.4533370000000 1.0
C      1  0.4588210000000  0.5778180000000  0.4471860000000 1.0
C      1  0.5399780000000  0.5762640000000  0.5514390000000 1.0
C      1  0.5053540000000  0.5936730000000  0.4430340000000 1.0
C      1  0.4925350000000  0.5949930000000  0.5556820000000 1.0
C      1  0.5648920000000  0.5046130000000  0.4824680000000 1.0
C      1  0.4343000000000  0.5221080000000  0.5235600000000 1.0
C      1  0.5043510000000  0.4544140000000  0.4384150000000 1.0
C      1  0.4889720000000  0.4394630000000  0.5625500000000 1.0
C      1  0.5370940000000  0.3945580000000  0.4750760000000 1.0
C      1  0.4661300000000  0.3989870000000  0.5284800000000 1.0
C      1  0.4402320000000  0.4025860000000  0.5152400000000 1.0
C      1  0.5607130000000  0.4043080000000  0.4864060000000 1.0
C      1  0.5260400000000  0.4150780000000  0.4586930000000 1.0
C      1  0.4733910000000  0.4168860000000  0.5509590000000 1.0
C      1  0.4432430000000  0.4559360000000  0.5683260000000 1.0
C      1  0.5594690000000  0.4491350000000  0.4331800000000 1.0
C      1  0.5819650000000  0.4609240000000  0.4462010000000 1.0
C      1  0.4175480000000  0.4606820000000  0.5556140000000 1.0
C      1  0.4669800000000  0.4548660000000  0.3952740000000 1.0
C      1  0.5289860000000  0.4518800000000  0.6095680000000 1.0
C      1  0.5668470000000  0.4208300000000  0.5358830000000 1.0
C      1  0.4349940000000  0.4315250000000  0.4734680000000 1.0
C      1  0.4939080000000  0.4838520000000  0.5400040000000 1.0
C      1  0.5252110000000  0.4997490000000  0.4599710000000 1.0
C      1  0.4574970000000  0.5640850000000  0.5349530000000 1.0
C      1  0.5436750000000  0.5684050000000  0.4632390000000 1.0
C      1  0.4607410000000  0.4739910000000  0.5843160000000 1.0
C      1  0.5425970000000  0.4682050000000  0.4190670000000 1.0
C      1  0.4837200000000  0.4313820000000  0.4815170000000 1.0
C      1  0.5223370000000  0.4228590000000  0.5136930000000 1.0
C      1  0.5901390000000  0.4359620000000  0.5283540000000 1.0
C      1  0.4065790000000  0.4432290000000  0.4818300000000 1.0
C      1  0.5801670000000  0.5855900000000  0.5109670000000 1.0
C      1  0.4290920000000  0.5805410000000  0.4917440000000 1.0
C      1  0.4854530000000  0.4072920000000  0.4651490000000 1.0
C      1  0.5182040000000  0.4064870000000  0.5375980000000 1.0
C      1  0.5636380000000  0.5194860000000  0.5802760000000 1.0
C      1  0.4279290000000  0.5194170000000  0.4187150000000 1.0
C      1  0.5719610000000  0.4226960000000  0.4667910000000 1.0
C      1  0.4341870000000  0.4296400000000  0.5308710000000 1.0
C      1  0.4809360000000  0.6064040000000  0.4797750000000 1.0
C      1  0.5195280000000  0.6087790000000  0.5203850000000 1.0
C      1  0.5178710000000  0.5511170000000  0.5948740000000 1.0
C      1  0.4806400000000  0.5493370000000  0.4065220000000 1.0
C      1  0.4311860000000  0.5099050000000  0.4734460000000 1.0
C      1  0.5705200000000  0.5150960000000  0.5275930000000 1.0
C      1  0.5270350000000  0.5201010000000  0.4044040000000 1.0
C      1  0.4699570000000  0.5243870000000  0.5951410000000 1.0
C      1  0.3866300000000  0.5062610000000  0.4920550000000 1.0
C      1  0.6145700000000  0.5067730000000  0.5066740000000 1.0
C      1  0.4937100000000  0.4994910000000  0.4680770000000 1.0
C      1  0.5087830000000  0.5060310000000  0.5234610000000 1.0
C      1  0.4487940000000  0.4296630000000  0.5573740000000 1.0
C      1  0.5513210000000  0.4251230000000  0.4466130000000 1.0
C      1  0.5910510000000  0.5458790000000  0.4457880000000 1.0
C      1  0.4050620000000  0.5485660000000  0.5535730000000 1.0
END
