TITL C-2441167-4473-1273 0.0995410726585397 125000 -24755.0558254016 0 0 182 (C1) n - 1
REM
REM in /home/bkarasulu/work/CARBON/AIRSS/Generating-Clusters/ReaxFF-fromJPCA2015/Units_Real/with-SteepDescent/Higher-Symm
REM
REM
REM
REM
REM
REM ./C.cell (1df0a924f5614ab8850e4351716899ee)
REM
REM compiler GCC version 9.2.1 20190827 (Red Hat 9.2.1-1)
REM options -cpp -mtune=generic -march=x86-64 -g -O0 -fpre-include=/usr/include/finclude/math-vector-fortran.h
REM seed -209421610 -2032133965 678523297 1215948726 -1134919049 -2008567856 -1261489158 -1606001505 -969669251 -544556152 624979296 319475055 537993502 -1965964558 1618793550 1868967402 1210136398 -840540966 -1343359423 -1797763508 -881286721 94424169 -1213963424 -1802792101 1383776885 -628190939 -1725475205 -135109678 220914035 1491270800 1312639126 -1698992189 1399262441
REM
CELL 1.54180   50.00000   50.00000   50.00000   90.00000   90.00000   90.00000
LATT -1
SFAC C  
C      1  0.4689830000000  0.5791460000000  0.5117060000000 1.0
C      1  0.5312840000000  0.4155460000000  0.5078560000000 1.0
C      1  0.3934490000000  0.5256680000000  0.5142020000000 1.0
C      1  0.6033360000000  0.4728090000000  0.5117890000000 1.0
C      1  0.5333200000000  0.5848820000000  0.4346120000000 1.0
C      1  0.4667770000000  0.4144200000000  0.4367710000000 1.0
C      1  0.4726230000000  0.4811490000000  0.3903700000000 1.0
C      1  0.5261800000000  0.5197980000000  0.3883180000000 1.0
C      1  0.4497080000000  0.4400290000000  0.5729030000000 1.0
C      1  0.5501850000000  0.5621440000000  0.5678330000000 1.0
C      1  0.4470840000000  0.4828290000000  0.5259850000000 1.0
C      1  0.5445600000000  0.5233820000000  0.5300050000000 1.0
C      1  0.4850280000000  0.5951080000000  0.5684410000000 1.0
C      1  0.5191830000000  0.4195150000000  0.5737830000000 1.0
C      1  0.5522980000000  0.4231150000000  0.5493420000000 1.0
C      1  0.4423060000000  0.5723010000000  0.5494110000000 1.0
C      1  0.5595420000000  0.5862820000000  0.5271760000000 1.0
C      1  0.4427540000000  0.4110990000000  0.5312390000000 1.0
C      1  0.5365570000000  0.5426420000000  0.4191530000000 1.0
C      1  0.4616830000000  0.4571650000000  0.4226270000000 1.0
C      1  0.5587760000000  0.4925900000000  0.5900340000000 1.0
C      1  0.4364260000000  0.5087450000000  0.5874660000000 1.0
C      1  0.4888520000000  0.4382590000000  0.5193650000000 1.0
C      1  0.5094960000000  0.5582570000000  0.5210590000000 1.0
C      1  0.5812960000000  0.5364470000000  0.4415900000000 1.0
C      1  0.4135620000000  0.4652380000000  0.4440120000000 1.0
C      1  0.5735060000000  0.5149290000000  0.4232580000000 1.0
C      1  0.4246300000000  0.4840800000000  0.4250000000000 1.0
C      1  0.4599330000000  0.5929340000000  0.5562240000000 1.0
C      1  0.5315630000000  0.4031340000000  0.5548310000000 1.0
C      1  0.4882870000000  0.5551250000000  0.4116410000000 1.0
C      1  0.5135030000000  0.4475640000000  0.4112770000000 1.0
C      1  0.5108080000000  0.5836430000000  0.4773790000000 1.0
C      1  0.4921910000000  0.4079030000000  0.4827190000000 1.0
C      1  0.5556530000000  0.5904000000000  0.4803850000000 1.0
C      1  0.4445820000000  0.4092930000000  0.4831020000000 1.0
C      1  0.5219920000000  0.4943240000000  0.5011210000000 1.0
C      1  0.4806260000000  0.5185740000000  0.5117660000000 1.0
C      1  0.4990100000000  0.5343490000000  0.3942570000000 1.0
C      1  0.5001390000000  0.4666570000000  0.3933590000000 1.0
C      1  0.5440210000000  0.4668810000000  0.5889120000000 1.0
C      1  0.4534100000000  0.5311260000000  0.5930660000000 1.0
C      1  0.5230070000000  0.4752220000000  0.6064010000000 1.0
C      1  0.4706760000000  0.5145820000000  0.6081940000000 1.0
C      1  0.4935880000000  0.4082650000000  0.4494820000000 1.0
C      1  0.5062940000000  0.5892310000000  0.4474220000000 1.0
C      1  0.5780870000000  0.4266040000000  0.5345260000000 1.0
C      1  0.4187460000000  0.5700170000000  0.5315600000000 1.0
C      1  0.6031370000000  0.5495400000000  0.4870560000000 1.0
C      1  0.4087700000000  0.4488490000000  0.4823180000000 1.0
C      1  0.4848320000000  0.5216090000000  0.4827030000000 1.0
C      1  0.5143950000000  0.4753870000000  0.4806780000000 1.0
C      1  0.5189680000000  0.5352280000000  0.5345300000000 1.0
C      1  0.4883570000000  0.4667080000000  0.5323220000000 1.0
C      1  0.5139400000000  0.4998560000000  0.5888290000000 1.0
C      1  0.4852200000000  0.4971100000000  0.5884050000000 1.0
C      1  0.5797820000000  0.4531470000000  0.4652200000000 1.0
C      1  0.4179060000000  0.5484970000000  0.4621100000000 1.0
C      1  0.5268460000000  0.4732360000000  0.4510370000000 1.0
C      1  0.4761730000000  0.5290140000000  0.4497710000000 1.0
C      1  0.4077400000000  0.5015320000000  0.5598570000000 1.0
C      1  0.5808830000000  0.4964160000000  0.5704170000000 1.0
C      1  0.4186050000000  0.5759180000000  0.5029290000000 1.0
C      1  0.5825290000000  0.4255070000000  0.5056870000000 1.0
C      1  0.5321360000000  0.4544080000000  0.4916980000000 1.0
C      1  0.4623660000000  0.5423180000000  0.4855650000000 1.0
C      1  0.6005020000000  0.5099360000000  0.4758250000000 1.0
C      1  0.4212220000000  0.4927830000000  0.4824250000000 1.0
C      1  0.4874380000000  0.5088370000000  0.4034310000000 1.0
C      1  0.5125380000000  0.4919470000000  0.4039010000000 1.0
C      1  0.4477090000000  0.4831800000000  0.5954710000000 1.0
C      1  0.5475280000000  0.5194430000000  0.5972860000000 1.0
C      1  0.5872600000000  0.5448590000000  0.5407750000000 1.0
C      1  0.4056020000000  0.4551740000000  0.5359910000000 1.0
C      1  0.4738070000000  0.5644420000000  0.4710310000000 1.0
C      1  0.5302530000000  0.4338650000000  0.4667420000000 1.0
C      1  0.5229880000000  0.5148300000000  0.4568700000000 1.0
C      1  0.4661030000000  0.4903490000000  0.4463840000000 1.0
C      1  0.4231930000000  0.4811760000000  0.5098380000000 1.0
C      1  0.5969370000000  0.5240200000000  0.4986010000000 1.0
C      1  0.4517980000000  0.5797010000000  0.4346620000000 1.0
C      1  0.5454870000000  0.4276520000000  0.4409170000000 1.0
C      1  0.4774820000000  0.6035140000000  0.5206960000000 1.0
C      1  0.5123930000000  0.3943780000000  0.5061350000000 1.0
C      1  0.4755060000000  0.4751780000000  0.6036730000000 1.0
C      1  0.5196620000000  0.5275650000000  0.5981780000000 1.0
C      1  0.5975120000000  0.4740300000000  0.4544090000000 1.0
C      1  0.3992610000000  0.5230650000000  0.4579170000000 1.0
C      1  0.4762830000000  0.5366010000000  0.5714370000000 1.0
C      1  0.5261590000000  0.4634500000000  0.5653300000000 1.0
C      1  0.3974250000000  0.5128790000000  0.4846270000000 1.0
C      1  0.6061390000000  0.4828640000000  0.4797070000000 1.0
C      1  0.4262750000000  0.4428140000000  0.4592490000000 1.0
C      1  0.5603610000000  0.5466800000000  0.4601800000000 1.0
C      1  0.5808450000000  0.5251480000000  0.5637060000000 1.0
C      1  0.4162570000000  0.4730230000000  0.5572870000000 1.0
C      1  0.4981870000000  0.5148560000000  0.5345420000000 1.0
C      1  0.5064180000000  0.4873940000000  0.5246530000000 1.0
C      1  0.4455770000000  0.4210720000000  0.4564710000000 1.0
C      1  0.5523440000000  0.5750240000000  0.4557940000000 1.0
C      1  0.5028170000000  0.5746570000000  0.5820880000000 1.0
C      1  0.4992190000000  0.4339290000000  0.5863970000000 1.0
C      1  0.4302250000000  0.4191170000000  0.5068890000000 1.0
C      1  0.5727390000000  0.5819770000000  0.5032410000000 1.0
C      1  0.5180360000000  0.5364960000000  0.4398820000000 1.0
C      1  0.4815340000000  0.4650850000000  0.4454860000000 1.0
C      1  0.4647830000000  0.5891720000000  0.4839890000000 1.0
C      1  0.5407950000000  0.4105070000000  0.4812920000000 1.0
C      1  0.4925620000000  0.5503880000000  0.4421040000000 1.0
C      1  0.5079140000000  0.4527150000000  0.4396430000000 1.0
C      1  0.4129610000000  0.4409310000000  0.5099870000000 1.0
C      1  0.5904920000000  0.5613240000000  0.5094540000000 1.0
C      1  0.4495480000000  0.4941980000000  0.4686370000000 1.0
C      1  0.5493520000000  0.5040550000000  0.4624720000000 1.0
C      1  0.4992840000000  0.4580370000000  0.6034240000000 1.0
C      1  0.5004840000000  0.5464450000000  0.5878830000000 1.0
C      1  0.5768490000000  0.4861320000000  0.4320690000000 1.0
C      1  0.4167880000000  0.5109160000000  0.4356730000000 1.0
C      1  0.5532520000000  0.5274660000000  0.4058520000000 1.0
C      1  0.4464200000000  0.4719600000000  0.4082220000000 1.0
C      1  0.5560050000000  0.4651510000000  0.5053420000000 1.0
C      1  0.4423870000000  0.5356650000000  0.5059710000000 1.0
C      1  0.4687530000000  0.5124920000000  0.4271270000000 1.0
C      1  0.5312990000000  0.4894180000000  0.4264360000000 1.0
C      1  0.5354130000000  0.4478200000000  0.5424970000000 1.0
C      1  0.4637440000000  0.5494610000000  0.5469040000000 1.0
C      1  0.4530100000000  0.4995620000000  0.5490890000000 1.0
C      1  0.5425660000000  0.4980600000000  0.5440890000000 1.0
C      1  0.5254580000000  0.5760690000000  0.5648070000000 1.0
C      1  0.4741360000000  0.4242280000000  0.5676360000000 1.0
C      1  0.6027850000000  0.5350630000000  0.4612480000000 1.0
C      1  0.4003810000000  0.4737400000000  0.4691700000000 1.0
C      1  0.5932150000000  0.4515810000000  0.5371200000000 1.0
C      1  0.4059690000000  0.5437100000000  0.5352290000000 1.0
C      1  0.4187790000000  0.5475880000000  0.4946080000000 1.0
C      1  0.5806860000000  0.4544150000000  0.4978570000000 1.0
C      1  0.4946850000000  0.6080290000000  0.5427720000000 1.0
C      1  0.5098900000000  0.3937450000000  0.5350460000000 1.0
C      1  0.4409560000000  0.4671650000000  0.5713950000000 1.0
C      1  0.5619660000000  0.5380620000000  0.5807980000000 1.0
C      1  0.4677440000000  0.3961950000000  0.4928890000000 1.0
C      1  0.5311010000000  0.5998520000000  0.4918620000000 1.0
C      1  0.4791300000000  0.5091880000000  0.5588110000000 1.0
C      1  0.5225630000000  0.4907830000000  0.5619850000000 1.0
C      1  0.4591250000000  0.5592470000000  0.4139530000000 1.0
C      1  0.5424470000000  0.4467320000000  0.4166060000000 1.0
C      1  0.4375160000000  0.5290860000000  0.4456630000000 1.0
C      1  0.5558950000000  0.4777400000000  0.4571190000000 1.0
C      1  0.4309170000000  0.5749730000000  0.4557540000000 1.0
C      1  0.5714820000000  0.4258710000000  0.4571920000000 1.0
C      1  0.4856250000000  0.4101790000000  0.5379640000000 1.0
C      1  0.5171260000000  0.5860260000000  0.5380440000000 1.0
C      1  0.5965710000000  0.4927210000000  0.5310150000000 1.0
C      1  0.3928020000000  0.5041300000000  0.5338460000000 1.0
C      1  0.5543350000000  0.4724030000000  0.5338360000000 1.0
C      1  0.4447860000000  0.5271520000000  0.5373320000000 1.0
C      1  0.4806600000000  0.5535030000000  0.5230390000000 1.0
C      1  0.5200310000000  0.4411920000000  0.5160810000000 1.0
C      1  0.4852030000000  0.4349210000000  0.4908480000000 1.0
C      1  0.5155210000000  0.5579800000000  0.4903570000000 1.0
C      1  0.5435350000000  0.5133670000000  0.5023520000000 1.0
C      1  0.4657380000000  0.4951890000000  0.5086190000000 1.0
C      1  0.5355570000000  0.5981300000000  0.5205910000000 1.0
C      1  0.4652580000000  0.3963220000000  0.5215910000000 1.0
C      1  0.5936640000000  0.5202780000000  0.5252130000000 1.0
C      1  0.3968990000000  0.4783840000000  0.5211150000000 1.0
C      1  0.4646930000000  0.4787930000000  0.4858570000000 1.0
C      1  0.5580560000000  0.5251860000000  0.4800760000000 1.0
C      1  0.5798280000000  0.4704370000000  0.5546970000000 1.0
C      1  0.4201900000000  0.5280090000000  0.5558570000000 1.0
C      1  0.5420310000000  0.5655310000000  0.4168920000000 1.0
C      1  0.4584240000000  0.4343320000000  0.4191430000000 1.0
C      1  0.4863290000000  0.4609400000000  0.4775650000000 1.0
C      1  0.5126360000000  0.5312700000000  0.4797370000000 1.0
C      1  0.4477170000000  0.5330320000000  0.4192500000000 1.0
C      1  0.5536750000000  0.4730840000000  0.4166650000000 1.0
C      1  0.4346830000000  0.5877970000000  0.4812110000000 1.0
C      1  0.5706020000000  0.4123150000000  0.4823050000000 1.0
C      1  0.4513310000000  0.4299240000000  0.5496670000000 1.0
C      1  0.5661450000000  0.5657290000000  0.5452630000000 1.0
C      1  0.5184660000000  0.4077190000000  0.4369570000000 1.0
C      1  0.4792910000000  0.5884150000000  0.4371520000000 1.0
END
