TITL C-2441164-471-830 0.0922072164373126 125000 -19661.4215432782 0 0 146 (C1) n - 1
REM
REM in /home/bkarasulu/work/CARBON/AIRSS/Generating-Clusters/ReaxFF-fromJPCA2015/Units_Real/with-SteepDescent/Higher-Symm
REM
REM
REM
REM
REM
REM ./C.cell (1df0a924f5614ab8850e4351716899ee)
REM
REM compiler GCC version 9.2.1 20190827 (Red Hat 9.2.1-1)
REM options -cpp -mtune=generic -march=x86-64 -g -O0 -fpre-include=/usr/include/finclude/math-vector-fortran.h
REM seed -78412619 -1185012864 -1799896360 -1629331611 -1632992386 -1621497649 1977033899 1239567705 1209661699 -672403519 1722386883 -354079045 1327809938 -1382593533 977436527 -961551048 -35077713 -1339957132 1408074283 664237797 -2069432054 745611687 -574025097 918263125 1506465211 -2069827422 1827879763 1202356302 693816839 -846803224 50929534 -1411244243 774322255
REM
CELL 1.54180   50.00000   50.00000   50.00000   90.00000   90.00000   90.00000
LATT -1
SFAC C  
C      1  0.4855570000000  0.5960390000000  0.5205530000000 1.0
C      1  0.5037530000000  0.5901430000000  0.5009090000000 1.0
C      1  0.4888360000000  0.5947100000000  0.4792500000000 1.0
C      1  0.4960710000000  0.4060110000000  0.4944250000000 1.0
C      1  0.5248420000000  0.4031350000000  0.4940370000000 1.0
C      1  0.4941570000000  0.3921740000000  0.5203610000000 1.0
C      1  0.5313020000000  0.5135870000000  0.3955290000000 1.0
C      1  0.3996240000000  0.5267590000000  0.5335110000000 1.0
C      1  0.5685100000000  0.5256020000000  0.5836390000000 1.0
C      1  0.5142490000000  0.4719510000000  0.6058390000000 1.0
C      1  0.3935400000000  0.4843490000000  0.4799110000000 1.0
C      1  0.5810150000000  0.4742980000000  0.4288340000000 1.0
C      1  0.3953560000000  0.4886200000000  0.5130940000000 1.0
C      1  0.5647710000000  0.4850190000000  0.5782860000000 1.0
C      1  0.5651150000000  0.4855830000000  0.4081890000000 1.0
C      1  0.4007280000000  0.5158650000000  0.5053050000000 1.0
C      1  0.5562760000000  0.5119380000000  0.4095540000000 1.0
C      1  0.5476480000000  0.5047070000000  0.5907510000000 1.0
C      1  0.5112740000000  0.4930370000000  0.4008340000000 1.0
C      1  0.3975470000000  0.4977690000000  0.5415280000000 1.0
C      1  0.5842610000000  0.5040430000000  0.5709900000000 1.0
C      1  0.5210680000000  0.5005220000000  0.6030990000000 1.0
C      1  0.4036970000000  0.5035450000000  0.4612490000000 1.0
C      1  0.5712600000000  0.4927760000000  0.4490410000000 1.0
C      1  0.5196810000000  0.4709010000000  0.4184760000000 1.0
C      1  0.4226200000000  0.4681030000000  0.5171150000000 1.0
C      1  0.5547950000000  0.4678410000000  0.5555270000000 1.0
C      1  0.5173430000000  0.5308300000000  0.5714090000000 1.0
C      1  0.4172660000000  0.5240730000000  0.4809080000000 1.0
C      1  0.5605800000000  0.5352010000000  0.4269570000000 1.0
C      1  0.5199170000000  0.5596020000000  0.4358260000000 1.0
C      1  0.4282900000000  0.5628980000000  0.5155720000000 1.0
C      1  0.5507320000000  0.5601760000000  0.5569020000000 1.0
C      1  0.5201220000000  0.4368030000000  0.5726550000000 1.0
C      1  0.4365920000000  0.4394560000000  0.4853410000000 1.0
C      1  0.5534700000000  0.4409960000000  0.4491510000000 1.0
C      1  0.4131220000000  0.4507460000000  0.4936270000000 1.0
C      1  0.5447920000000  0.4494920000000  0.5742720000000 1.0
C      1  0.5474720000000  0.4630340000000  0.4083340000000 1.0
C      1  0.4097260000000  0.5541200000000  0.4950190000000 1.0
C      1  0.5382770000000  0.5509110000000  0.4163670000000 1.0
C      1  0.5369630000000  0.5491870000000  0.5776270000000 1.0
C      1  0.4471440000000  0.5876710000000  0.5438540000000 1.0
C      1  0.5566800000000  0.5888960000000  0.5209630000000 1.0
C      1  0.4836580000000  0.5893090000000  0.4336430000000 1.0
C      1  0.4520090000000  0.4068940000000  0.4508940000000 1.0
C      1  0.5669100000000  0.4064130000000  0.4780020000000 1.0
C      1  0.4823910000000  0.4091890000000  0.5663920000000 1.0
C      1  0.4774480000000  0.5417960000000  0.4855260000000 1.0
C      1  0.4997090000000  0.5471600000000  0.5247690000000 1.0
C      1  0.5250280000000  0.5458850000000  0.4891920000000 1.0
C      1  0.4799700000000  0.4513450000000  0.5152370000000 1.0
C      1  0.4970430000000  0.4527610000000  0.4730400000000 1.0
C      1  0.5246200000000  0.4559990000000  0.5125770000000 1.0
C      1  0.5382740000000  0.4284760000000  0.5090440000000 1.0
C      1  0.4898790000000  0.4334610000000  0.4542860000000 1.0
C      1  0.4683180000000  0.4342400000000  0.5343960000000 1.0
C      1  0.5471640000000  0.5651530000000  0.4850940000000 1.0
C      1  0.4883980000000  0.5731690000000  0.5417420000000 1.0
C      1  0.4710390000000  0.5690480000000  0.4726980000000 1.0
C      1  0.5195220000000  0.4944000000000  0.4419110000000 1.0
C      1  0.4438520000000  0.4888560000000  0.5109030000000 1.0
C      1  0.5370530000000  0.4922280000000  0.5415410000000 1.0
C      1  0.5166010000000  0.5070110000000  0.5537470000000 1.0
C      1  0.4443180000000  0.5054400000000  0.4886960000000 1.0
C      1  0.5432250000000  0.4987060000000  0.4559050000000 1.0
C      1  0.4728520000000  0.4608740000000  0.4251610000000 1.0
C      1  0.4475200000000  0.4599410000000  0.5591720000000 1.0
C      1  0.5797230000000  0.4671940000000  0.5137150000000 1.0
C      1  0.4780830000000  0.5278680000000  0.5828920000000 1.0
C      1  0.4481060000000  0.5392450000000  0.4408180000000 1.0
C      1  0.5801220000000  0.5240510000000  0.4743570000000 1.0
C      1  0.5185110000000  0.5387480000000  0.3995410000000 1.0
C      1  0.4023540000000  0.5531490000000  0.5222190000000 1.0
C      1  0.5745620000000  0.5466490000000  0.5632400000000 1.0
C      1  0.5304420000000  0.4496270000000  0.5976000000000 1.0
C      1  0.4033050000000  0.4601940000000  0.4681170000000 1.0
C      1  0.5648260000000  0.4501430000000  0.4273300000000 1.0
C      1  0.5022250000000  0.4653220000000  0.5297550000000 1.0
C      1  0.5267610000000  0.4650560000000  0.4855070000000 1.0
C      1  0.4732090000000  0.4686550000000  0.4789410000000 1.0
C      1  0.4998700000000  0.5327330000000  0.4697280000000 1.0
C      1  0.5295630000000  0.5322550000000  0.5158070000000 1.0
C      1  0.4749050000000  0.5331340000000  0.5131430000000 1.0
C      1  0.5035430000000  0.4039480000000  0.5475730000000 1.0
C      1  0.5398010000000  0.4020700000000  0.4689070000000 1.0
C      1  0.4484620000000  0.4023250000000  0.4767650000000 1.0
C      1  0.5039830000000  0.5953170000000  0.4539370000000 1.0
C      1  0.5424830000000  0.6020480000000  0.5361660000000 1.0
C      1  0.4561380000000  0.5993780000000  0.5192820000000 1.0
C      1  0.4423230000000  0.4236770000000  0.5289340000000 1.0
C      1  0.5510900000000  0.4269020000000  0.5347390000000 1.0
C      1  0.5081070000000  0.4273390000000  0.4358080000000 1.0
C      1  0.4426240000000  0.5735930000000  0.4738310000000 1.0
C      1  0.5562620000000  0.5692780000000  0.4584960000000 1.0
C      1  0.5064030000000  0.5729860000000  0.5638460000000 1.0
C      1  0.5886880000000  0.4960680000000  0.4715350000000 1.0
C      1  0.4237440000000  0.4953350000000  0.4414220000000 1.0
C      1  0.4924870000000  0.5046320000000  0.5923110000000 1.0
C      1  0.5894450000000  0.5078790000000  0.5420780000000 1.0
C      1  0.4223060000000  0.5006490000000  0.5567430000000 1.0
C      1  0.4857070000000  0.5055780000000  0.4078190000000 1.0
C      1  0.5813000000000  0.5346920000000  0.5387450000000 1.0
C      1  0.4933860000000  0.5329260000000  0.4120590000000 1.0
C      1  0.4260950000000  0.5268300000000  0.5484860000000 1.0
C      1  0.5812180000000  0.4709900000000  0.4851230000000 1.0
C      1  0.4916510000000  0.4756400000000  0.5869410000000 1.0
C      1  0.4252180000000  0.4682550000000  0.4505690000000 1.0
C      1  0.4710800000000  0.5619160000000  0.4428440000000 1.0
C      1  0.4604990000000  0.5647160000000  0.5515800000000 1.0
C      1  0.5669790000000  0.5679170000000  0.5059450000000 1.0
C      1  0.4728210000000  0.4416900000000  0.5614750000000 1.0
C      1  0.4641340000000  0.4391020000000  0.4445140000000 1.0
C      1  0.5624540000000  0.4302000000000  0.4909420000000 1.0
C      1  0.4732970000000  0.4974240000000  0.4840920000000 1.0
C      1  0.4994440000000  0.4947940000000  0.5274310000000 1.0
C      1  0.5260770000000  0.4943590000000  0.4837990000000 1.0
C      1  0.4761440000000  0.5038640000000  0.5134300000000 1.0
C      1  0.5038400000000  0.5030050000000  0.4664840000000 1.0
C      1  0.5260680000000  0.5025380000000  0.5140100000000 1.0
C      1  0.4678250000000  0.4900610000000  0.4245430000000 1.0
C      1  0.4481580000000  0.4885840000000  0.5627120000000 1.0
C      1  0.5777730000000  0.4961270000000  0.5181370000000 1.0
C      1  0.4655260000000  0.5131350000000  0.5618440000000 1.0
C      1  0.4485320000000  0.5099310000000  0.4353970000000 1.0
C      1  0.5716400000000  0.5188780000000  0.5006370000000 1.0
C      1  0.5689760000000  0.5424770000000  0.4536970000000 1.0
C      1  0.4321030000000  0.5500600000000  0.4610570000000 1.0
C      1  0.4970310000000  0.5503110000000  0.5795750000000 1.0
C      1  0.5674860000000  0.4505750000000  0.5344100000000 1.0
C      1  0.4306670000000  0.4481690000000  0.5395720000000 1.0
C      1  0.4987780000000  0.4495800000000  0.4195250000000 1.0
C      1  0.4540110000000  0.5351360000000  0.5446630000000 1.0
C      1  0.5629730000000  0.5398330000000  0.5173170000000 1.0
C      1  0.4946910000000  0.5449140000000  0.4387740000000 1.0
C      1  0.4497500000000  0.4558420000000  0.4651200000000 1.0
C      1  0.5572540000000  0.4543630000000  0.4742160000000 1.0
C      1  0.4966300000000  0.4587320000000  0.5628310000000 1.0
C      1  0.4395300000000  0.5840280000000  0.5001380000000 1.0
C      1  0.5321330000000  0.5810950000000  0.5522880000000 1.0
C      1  0.5303110000000  0.5808080000000  0.4506000000000 1.0
C      1  0.4444780000000  0.4175070000000  0.4996920000000 1.0
C      1  0.5336200000000  0.4211830000000  0.4466330000000 1.0
C      1  0.5293660000000  0.4191100000000  0.5512870000000 1.0
C      1  0.5091980000000  0.5638250000000  0.5034130000000 1.0
C      1  0.4898270000000  0.4351560000000  0.4941670000000 1.0
END
