TITL C-2441156-4686-376 5.58191602940575e-06 125000 -7709.96697602706 0 0 50 (C5) n - 1
REM
REM in /home/bkarasulu/work/CARBON/AIRSS/Generating-Clusters/ReaxFF-fromJPCA2015/Units_Real/with-SteepDescent/Higher-Symm
REM
REM
REM
REM
REM
REM ./C.cell (1df0a924f5614ab8850e4351716899ee)
REM
REM compiler GCC version 9.2.1 20190827 (Red Hat 9.2.1-1)
REM options -cpp -mtune=generic -march=x86-64 -g -O0 -fpre-include=/usr/include/finclude/math-vector-fortran.h
REM seed 1901479534 -1717111220 2120696998 -944065120 1470826058 -1155619319 1590689832 -488666214 -963489419 687033274 -662727862 1772495661 1925142881 -1853962573 -1908256544 1967623855 138634958 544593991 -1930898807 2093200640 1994198596 908211020 -378517337 -1350081526 834182078 383782937 913830724 1026138271 -1314806935 683528331 571145085 -40443605 955234906
REM
CELL 1.54180   50.00000   50.00000   50.00000   90.00000   90.00000   90.00000
LATT -1
SFAC C  
C      1  0.4554250000000  0.4504460000000  0.4748860000000 1.0
C      1  0.5333560000000  0.4422890000000  0.4748800000000 1.0
C      1  0.5651870000000  0.5138900000000  0.4748860000000 1.0
C      1  0.5069350000000  0.5662940000000  0.4748820000000 1.0
C      1  0.4390940000000  0.5270810000000  0.4748840000000 1.0
C      1  0.4554250000000  0.5495540000000  0.4748860000000 1.0
C      1  0.5333570000000  0.5577110000000  0.4748810000000 1.0
C      1  0.5651870000000  0.4861100000000  0.4748860000000 1.0
C      1  0.5069350000000  0.4337060000000  0.4748810000000 1.0
C      1  0.4390940000000  0.4729200000000  0.4748840000000 1.0
C      1  0.4924770000000  0.5693250000000  0.4990330000000 1.0
C      1  0.4317410000000  0.5142660000000  0.4990340000000 1.0
C      1  0.4653430000000  0.4394960000000  0.4990360000000 1.0
C      1  0.5468370000000  0.4483330000000  0.4990310000000 1.0
C      1  0.5636010000000  0.5285800000000  0.4990350000000 1.0
C      1  0.4924770000000  0.4306750000000  0.4990330000000 1.0
C      1  0.4317410000000  0.4857350000000  0.4990340000000 1.0
C      1  0.4653430000000  0.5605040000000  0.4990360000000 1.0
C      1  0.5468380000000  0.5516660000000  0.4990310000000 1.0
C      1  0.5636010000000  0.4714200000000  0.4990350000000 1.0
C      1  0.4918460000000  0.4267360000000  0.5486880000000 1.0
C      1  0.5671470000000  0.4695970000000  0.5486900000000 1.0
C      1  0.5496690000000  0.5544880000000  0.5486860000000 1.0
C      1  0.4635460000000  0.5640580000000  0.5486920000000 1.0
C      1  0.4277940000000  0.4851210000000  0.5486890000000 1.0
C      1  0.4918460000000  0.5732630000000  0.5486890000000 1.0
C      1  0.5671480000000  0.5304010000000  0.5486910000000 1.0
C      1  0.5496690000000  0.4455100000000  0.5486850000000 1.0
C      1  0.4635470000000  0.4359430000000  0.5486920000000 1.0
C      1  0.4277930000000  0.5148810000000  0.5486880000000 1.0
C      1  0.4346170000000  0.5295450000000  0.5234420000000 1.0
C      1  0.4517030000000  0.4469550000000  0.5234450000000 1.0
C      1  0.5355330000000  0.4376550000000  0.5234380000000 1.0
C      1  0.5702490000000  0.5145270000000  0.5234450000000 1.0
C      1  0.5078990000000  0.5713170000000  0.5234400000000 1.0
C      1  0.4346180000000  0.4704570000000  0.5234430000000 1.0
C      1  0.4517020000000  0.5530460000000  0.5234440000000 1.0
C      1  0.5355330000000  0.5623430000000  0.5234390000000 1.0
C      1  0.5702490000000  0.4854720000000  0.5234450000000 1.0
C      1  0.5078990000000  0.4286820000000  0.5234390000000 1.0
C      1  0.5450280000000  0.4851860000000  0.4539530000000 1.0
C      1  0.5280050000000  0.5382500000000  0.4539500000000 1.0
C      1  0.4722790000000  0.5384520000000  0.4539530000000 1.0
C      1  0.4548620000000  0.4855170000000  0.4539520000000 1.0
C      1  0.4998250000000  0.4525960000000  0.4539510000000 1.0
C      1  0.5450280000000  0.5148140000000  0.4539530000000 1.0
C      1  0.5280040000000  0.4617500000000  0.4539490000000 1.0
C      1  0.4722780000000  0.4615480000000  0.4539530000000 1.0
C      1  0.4548620000000  0.5144830000000  0.4539510000000 1.0
C      1  0.4998260000000  0.5474050000000  0.4539510000000 1.0
END
