TITL C-2441154-10-473 0.0373493094940562 125000 -8363.26795887561 0 0 66 (C1) n - 1
REM
REM in /home/bkarasulu/work/CARBON/AIRSS/Generating-Clusters/ReaxFF-fromJPCA2015/Units_Real/with-SteepDescent/Higher-Symm
REM
REM
REM
REM
REM
REM ./C.cell (1df0a924f5614ab8850e4351716899ee)
REM
REM compiler GCC version 9.2.1 20190827 (Red Hat 9.2.1-1)
REM options -cpp -mtune=generic -march=x86-64 -g -O0 -fpre-include=/usr/include/finclude/math-vector-fortran.h
REM seed -1906906937 -1485638393 742088594 1313047980 -52221914 -847430622 2145159524 -966023880 1147707144 1241065170 1868690394 1304281491 -1685516624 596993788 -200712473 1313357737 1213958554 -1612350080 -42711135 -795375264 -1362425248 202951385 1949016954 -901367850 -1579614978 -619612839 861038759 -601619495 -1849127774 1980903155 -25407428 145699554 -2134910996
REM
CELL 1.54180   50.00000   50.00000   50.00000   90.00000   90.00000   90.00000
LATT -1
SFAC C  
C      1  0.5000540000000  0.5318100000000  0.4823010000000 1.0
C      1  0.5003350000000  0.4673190000000  0.4802540000000 1.0
C      1  0.4991350000000  0.4985970000000  0.5401640000000 1.0
C      1  0.5644500000000  0.4841020000000  0.5018550000000 1.0
C      1  0.5634720000000  0.5084290000000  0.5193330000000 1.0
C      1  0.5635810000000  0.5072770000000  0.4847630000000 1.0
C      1  0.5013480000000  0.4534920000000  0.5376890000000 1.0
C      1  0.5006030000000  0.5554220000000  0.5228000000000 1.0
C      1  0.5023340000000  0.4936820000000  0.4423270000000 1.0
C      1  0.5444140000000  0.4726930000000  0.5499290000000 1.0
C      1  0.5455820000000  0.5587790000000  0.4999740000000 1.0
C      1  0.5445550000000  0.4702770000000  0.4506230000000 1.0
C      1  0.4591130000000  0.4640320000000  0.5430650000000 1.0
C      1  0.4584370000000  0.5564280000000  0.5102330000000 1.0
C      1  0.4578570000000  0.4804720000000  0.4449950000000 1.0
C      1  0.4839940000000  0.5158640000000  0.5586220000000 1.0
C      1  0.4856330000000  0.5441790000000  0.4568770000000 1.0
C      1  0.4848840000000  0.4410470000000  0.4838740000000 1.0
C      1  0.5291690000000  0.5426710000000  0.4524800000000 1.0
C      1  0.5289220000000  0.4364630000000  0.4862930000000 1.0
C      1  0.5298700000000  0.5178820000000  0.5571970000000 1.0
C      1  0.5391720000000  0.4691450000000  0.5206050000000 1.0
C      1  0.5391100000000  0.5326650000000  0.5160910000000 1.0
C      1  0.5402500000000  0.4974710000000  0.4639540000000 1.0
C      1  0.5202850000000  0.4673010000000  0.4359130000000 1.0
C      1  0.5205750000000  0.4603830000000  0.5608290000000 1.0
C      1  0.5209120000000  0.5727450000000  0.5037440000000 1.0
C      1  0.4703920000000  0.4739370000000  0.5661650000000 1.0
C      1  0.4710670000000  0.5698060000000  0.4894390000000 1.0
C      1  0.4705710000000  0.4553740000000  0.4439820000000 1.0
C      1  0.4765940000000  0.4322360000000  0.5115610000000 1.0
C      1  0.4751910000000  0.5447370000000  0.5538790000000 1.0
C      1  0.4746910000000  0.5251880000000  0.4350310000000 1.0
C      1  0.4628370000000  0.5161910000000  0.4993130000000 1.0
C      1  0.4632420000000  0.4895510000000  0.4830360000000 1.0
C      1  0.4621610000000  0.4958030000000  0.5194830000000 1.0
C      1  0.5123560000000  0.5649580000000  0.4592020000000 1.0
C      1  0.5146150000000  0.4323220000000  0.4614970000000 1.0
C      1  0.5156930000000  0.5013120000000  0.5794720000000 1.0
C      1  0.5180560000000  0.5337150000000  0.5359720000000 1.0
C      1  0.5213160000000  0.5151600000000  0.4499580000000 1.0
C      1  0.5221700000000  0.4460890000000  0.5130010000000 1.0
C      1  0.4532310000000  0.5087870000000  0.4499670000000 1.0
C      1  0.4544480000000  0.4527470000000  0.5176720000000 1.0
C      1  0.4530380000000  0.5403500000000  0.5329920000000 1.0
C      1  0.4488750000000  0.5253090000000  0.4735000000000 1.0
C      1  0.4499800000000  0.4648840000000  0.4908140000000 1.0
C      1  0.4480380000000  0.5114430000000  0.5374600000000 1.0
C      1  0.4589150000000  0.5523220000000  0.4691290000000 1.0
C      1  0.4592240000000  0.4466650000000  0.4695450000000 1.0
C      1  0.4586900000000  0.5005690000000  0.5627160000000 1.0
C      1  0.5256040000000  0.4792930000000  0.4847290000000 1.0
C      1  0.5167820000000  0.4931580000000  0.5172060000000 1.0
C      1  0.5263870000000  0.5258590000000  0.4903540000000 1.0
C      1  0.5485870000000  0.5388880000000  0.4769530000000 1.0
C      1  0.5473140000000  0.4600360000000  0.4781840000000 1.0
C      1  0.5506710000000  0.5006640000000  0.5450910000000 1.0
C      1  0.4883840000000  0.4899950000000  0.4704030000000 1.0
C      1  0.4884410000000  0.4821910000000  0.5206560000000 1.0
C      1  0.4894530000000  0.5283510000000  0.5075720000000 1.0
C      1  0.5016960000000  0.5766700000000  0.4829440000000 1.0
C      1  0.5011630000000  0.4465280000000  0.4409360000000 1.0
C      1  0.5010390000000  0.4756260000000  0.5752660000000 1.0
C      1  0.4898020000000  0.5677490000000  0.5471330000000 1.0
C      1  0.4886810000000  0.5080230000000  0.4168140000000 1.0
C      1  0.4925580000000  0.4268880000000  0.5341900000000 1.0
END
