TITL C-2441169-1362-1139 0.000478039963518387 125000 -6151.07414790048 0 0 41 (T23) n - 1
REM
REM in /home/bkarasulu/work/CARBON/AIRSS/Generating-Clusters/ReaxFF-fromJPCA2015/Units_Real/with-SteepDescent/Higher-Symm
REM
REM
REM
REM
REM
REM ./C.cell (1df0a924f5614ab8850e4351716899ee)
REM
REM compiler GCC version 9.2.1 20190827 (Red Hat 9.2.1-1)
REM options -cpp -mtune=generic -march=x86-64 -g -O0 -fpre-include=/usr/include/finclude/math-vector-fortran.h
REM seed 1304621860 796379947 -166244154 -1823184982 399546563 319982794 -1652648057 480605463 -1504889107 -963699418 1917956036 512726454 -118557737 1804797297 -1937708318 219024375 -269143536 -1235470872 882535413 -1494460289 -348709027 -1836357237 -271294146 -2124529791 332437809 -933927008 546628284 1674893706 1919460929 218055433 917402045 90112771 958466654
REM
CELL 1.54180   50.00000   50.00000   50.00000   90.00000   90.00000   90.00000
LATT -1
SFAC C  
C      1  0.4704800000000  0.4490910000000  0.5100870000000 1.0
C      1  0.5091120000000  0.4703500000000  0.4502330000000 1.0
C      1  0.4492840000000  0.5089400000000  0.4713100000000 1.0
C      1  0.5296770000000  0.5504410000000  0.5098920000000 1.0
C      1  0.5295930000000  0.4494390000000  0.4921320000000 1.0
C      1  0.4705120000000  0.5507000000000  0.4920040000000 1.0
C      1  0.4911800000000  0.5295390000000  0.4504720000000 1.0
C      1  0.4911950000000  0.4704030000000  0.5515490000000 1.0
C      1  0.5091720000000  0.5295370000000  0.5517750000000 1.0
C      1  0.5505550000000  0.4909890000000  0.4714950000000 1.0
C      1  0.5505990000000  0.5088600000000  0.5304870000000 1.0
C      1  0.4492350000000  0.4909040000000  0.5306880000000 1.0
C      1  0.4492760000000  0.4702370000000  0.5100210000000 1.0
C      1  0.4704840000000  0.5090140000000  0.4501610000000 1.0
C      1  0.5091040000000  0.4491700000000  0.4714160000000 1.0
C      1  0.5506050000000  0.5294260000000  0.5099300000000 1.0
C      1  0.4492380000000  0.5296110000000  0.4919740000000 1.0
C      1  0.5505510000000  0.4704220000000  0.4920520000000 1.0
C      1  0.5296000000000  0.4910710000000  0.4505100000000 1.0
C      1  0.4705100000000  0.4909350000000  0.5517740000000 1.0
C      1  0.5296740000000  0.5088210000000  0.5515010000000 1.0
C      1  0.4911930000000  0.5504800000000  0.4714760000000 1.0
C      1  0.5091720000000  0.5507110000000  0.5306060000000 1.0
C      1  0.4911760000000  0.4494060000000  0.5306050000000 1.0
C      1  0.5173280000000  0.5172240000000  0.4512240000000 1.0
C      1  0.4829400000000  0.5505270000000  0.5182060000000 1.0
C      1  0.5173620000000  0.4826840000000  0.5507750000000 1.0
C      1  0.5173200000000  0.4501680000000  0.5182870000000 1.0
C      1  0.4494120000000  0.5170710000000  0.5181480000000 1.0
C      1  0.5500660000000  0.4826950000000  0.5182170000000 1.0
C      1  0.5500650000000  0.5171540000000  0.4837630000000 1.0
C      1  0.5173620000000  0.5496940000000  0.4837510000000 1.0
C      1  0.4829420000000  0.5171410000000  0.5515970000000 1.0
C      1  0.4828830000000  0.4492140000000  0.4838400000000 1.0
C      1  0.4496440000000  0.4827610000000  0.4838340000000 1.0
C      1  0.4828930000000  0.4827720000000  0.4502660000000 1.0
C      1  0.4795100000000  0.5204530000000  0.5215240000000 1.0
C      1  0.5209360000000  0.5206020000000  0.4803100000000 1.0
C      1  0.5209360000000  0.4792560000000  0.5216860000000 1.0
C      1  0.4796990000000  0.4793300000000  0.4803840000000 1.0
C      1  0.5001140000000  0.4999230000000  0.5009920000000 1.0
END
