TITL C-2441159-1093-506 0.0775738304049447 125000 -23253.4349928153 0 0 168 (C1) n - 1
REM
REM in /home/bkarasulu/work/CARBON/AIRSS/Generating-Clusters/ReaxFF-fromJPCA2015/Units_Real/with-SteepDescent/Higher-Symm
REM
REM
REM
REM
REM
REM ./C.cell (1df0a924f5614ab8850e4351716899ee)
REM
REM compiler GCC version 9.2.1 20190827 (Red Hat 9.2.1-1)
REM options -cpp -mtune=generic -march=x86-64 -g -O0 -fpre-include=/usr/include/finclude/math-vector-fortran.h
REM seed 213701768 -1202945934 54265830 -611291611 1758849231 -540217209 1793500027 -795360061 750802876 -1877763427 203602824 -377517050 1910632370 -514737255 238801060 1025862675 494007575 1590860917 -818795652 -1272504069 -475485717 1495444358 -1168948942 -56615230 1801489537 1411732541 1708557967 -1503231815 -796228953 -191817082 1048729752 2042511062 1055908102
REM
CELL 1.54180   50.00000   50.00000   50.00000   90.00000   90.00000   90.00000
LATT -1
SFAC C  
C      1  0.4529560000000  0.4113380000000  0.4688100000000 1.0
C      1  0.5438420000000  0.5903730000000  0.5328290000000 1.0
C      1  0.5254190000000  0.4413310000000  0.4888940000000 1.0
C      1  0.4682450000000  0.5577920000000  0.5107900000000 1.0
C      1  0.5322210000000  0.5403650000000  0.5916050000000 1.0
C      1  0.4656980000000  0.4565150000000  0.4096650000000 1.0
C      1  0.5368900000000  0.5576390000000  0.4280120000000 1.0
C      1  0.4699770000000  0.4398340000000  0.5622260000000 1.0
C      1  0.4638290000000  0.4878330000000  0.5394140000000 1.0
C      1  0.5414130000000  0.5181480000000  0.4640240000000 1.0
C      1  0.5780030000000  0.5417770000000  0.4432220000000 1.0
C      1  0.4319330000000  0.4548680000000  0.5593710000000 1.0
C      1  0.5845890000000  0.4398430000000  0.5433130000000 1.0
C      1  0.4159220000000  0.5573010000000  0.4561060000000 1.0
C      1  0.5824210000000  0.5623350000000  0.4646690000000 1.0
C      1  0.4200420000000  0.4392200000000  0.5375560000000 1.0
C      1  0.5850290000000  0.5613470000000  0.5215950000000 1.0
C      1  0.4223370000000  0.4451540000000  0.4778510000000 1.0
C      1  0.4059280000000  0.4902320000000  0.5386880000000 1.0
C      1  0.5943870000000  0.5210440000000  0.4575310000000 1.0
C      1  0.5524390000000  0.5203770000000  0.5845910000000 1.0
C      1  0.4460630000000  0.4741900000000  0.4197010000000 1.0
C      1  0.5501360000000  0.4760780000000  0.4866100000000 1.0
C      1  0.4482540000000  0.5216730000000  0.5147350000000 1.0
C      1  0.5005430000000  0.5880440000000  0.4063590000000 1.0
C      1  0.4989030000000  0.4130750000000  0.5908830000000 1.0
C      1  0.5184660000000  0.5068140000000  0.4520100000000 1.0
C      1  0.4786450000000  0.4912180000000  0.5614990000000 1.0
C      1  0.4095480000000  0.4642810000000  0.5256420000000 1.0
C      1  0.6011890000000  0.5432560000000  0.4770160000000 1.0
C      1  0.5442660000000  0.5664220000000  0.5508870000000 1.0
C      1  0.4534690000000  0.4290890000000  0.4450850000000 1.0
C      1  0.4876200000000  0.4625800000000  0.4741570000000 1.0
C      1  0.5142950000000  0.5309060000000  0.5315730000000 1.0
C      1  0.5230930000000  0.3973370000000  0.5015880000000 1.0
C      1  0.4922090000000  0.6003990000000  0.4920270000000 1.0
C      1  0.5563650000000  0.4442230000000  0.5831580000000 1.0
C      1  0.4440170000000  0.5501350000000  0.4191890000000 1.0
C      1  0.5662740000000  0.4831320000000  0.5551060000000 1.0
C      1  0.4283090000000  0.5103060000000  0.4476710000000 1.0
C      1  0.5538600000000  0.4149360000000  0.4617850000000 1.0
C      1  0.4428630000000  0.5855860000000  0.5389570000000 1.0
C      1  0.4455860000000  0.5112810000000  0.5404510000000 1.0
C      1  0.5621430000000  0.4937120000000  0.4664060000000 1.0
C      1  0.4918110000000  0.6029860000000  0.5212640000000 1.0
C      1  0.5060950000000  0.3995130000000  0.4788700000000 1.0
C      1  0.4945210000000  0.4274110000000  0.5671020000000 1.0
C      1  0.5106060000000  0.5718430000000  0.4301050000000 1.0
C      1  0.4380410000000  0.5682010000000  0.4410650000000 1.0
C      1  0.5638260000000  0.4280060000000  0.5600580000000 1.0
C      1  0.5372200000000  0.5105060000000  0.4063600000000 1.0
C      1  0.4614260000000  0.4844550000000  0.5845570000000 1.0
C      1  0.4449830000000  0.4778540000000  0.4488630000000 1.0
C      1  0.5585870000000  0.5129540000000  0.5551780000000 1.0
C      1  0.4643220000000  0.4094100000000  0.5293160000000 1.0
C      1  0.5371990000000  0.5917290000000  0.4691730000000 1.0
C      1  0.4189290000000  0.5096320000000  0.5615840000000 1.0
C      1  0.5747630000000  0.4876350000000  0.4386660000000 1.0
C      1  0.5073580000000  0.5137070000000  0.3966700000000 1.0
C      1  0.4924220000000  0.4839770000000  0.6037350000000 1.0
C      1  0.5752280000000  0.5524550000000  0.5468190000000 1.0
C      1  0.4353700000000  0.4506270000000  0.4520060000000 1.0
C      1  0.6022930000000  0.4963220000000  0.5207510000000 1.0
C      1  0.3903930000000  0.5077910000000  0.4743280000000 1.0
C      1  0.4538340000000  0.5003960000000  0.4084710000000 1.0
C      1  0.5465360000000  0.4951860000000  0.5962580000000 1.0
C      1  0.4983540000000  0.5268240000000  0.4519140000000 1.0
C      1  0.5027110000000  0.4786450000000  0.5601940000000 1.0
C      1  0.5263170000000  0.4866900000000  0.4991330000000 1.0
C      1  0.4725510000000  0.5109750000000  0.5020950000000 1.0
C      1  0.4554760000000  0.5776210000000  0.4645120000000 1.0
C      1  0.5454120000000  0.4201080000000  0.5374940000000 1.0
C      1  0.4987180000000  0.4718020000000  0.4996910000000 1.0
C      1  0.5067200000000  0.5268050000000  0.4994630000000 1.0
C      1  0.5637710000000  0.4179630000000  0.5145250000000 1.0
C      1  0.4345120000000  0.5840520000000  0.4859560000000 1.0
C      1  0.4886300000000  0.5265930000000  0.5768650000000 1.0
C      1  0.5107690000000  0.4738350000000  0.4186660000000 1.0
C      1  0.4278880000000  0.5329770000000  0.4674780000000 1.0
C      1  0.5725920000000  0.4653890000000  0.5337360000000 1.0
C      1  0.5894780000000  0.4298110000000  0.5160300000000 1.0
C      1  0.4083440000000  0.5735420000000  0.4797540000000 1.0
C      1  0.5126980000000  0.4515220000000  0.5624180000000 1.0
C      1  0.4911790000000  0.5503290000000  0.4328930000000 1.0
C      1  0.4428500000000  0.5737490000000  0.5821200000000 1.0
C      1  0.5544690000000  0.4251030000000  0.4201770000000 1.0
C      1  0.5627000000000  0.5779780000000  0.4789590000000 1.0
C      1  0.4355780000000  0.4221560000000  0.5189460000000 1.0
C      1  0.5186020000000  0.4033440000000  0.5290710000000 1.0
C      1  0.4812670000000  0.5921680000000  0.4678910000000 1.0
C      1  0.5938290000000  0.4517320000000  0.4970040000000 1.0
C      1  0.4079760000000  0.5543400000000  0.5014030000000 1.0
C      1  0.5085710000000  0.5235750000000  0.5990680000000 1.0
C      1  0.4873210000000  0.4715590000000  0.4009490000000 1.0
C      1  0.5881480000000  0.5266560000000  0.5444030000000 1.0
C      1  0.3966800000000  0.5069360000000  0.4462860000000 1.0
C      1  0.5330110000000  0.5136300000000  0.5411940000000 1.0
C      1  0.4729390000000  0.4809690000000  0.4561920000000 1.0
C      1  0.4698860000000  0.5960830000000  0.5413100000000 1.0
C      1  0.5265130000000  0.4055290000000  0.4577780000000 1.0
C      1  0.5079120000000  0.4449100000000  0.5115070000000 1.0
C      1  0.5008610000000  0.5475630000000  0.4790530000000 1.0
C      1  0.5543460000000  0.4888830000000  0.4158020000000 1.0
C      1  0.4422390000000  0.5082200000000  0.5821840000000 1.0
C      1  0.5063140000000  0.5807270000000  0.4766000000000 1.0
C      1  0.4938040000000  0.4175530000000  0.5266970000000 1.0
C      1  0.5243600000000  0.5632180000000  0.5760250000000 1.0
C      1  0.4730860000000  0.4334970000000  0.4236220000000 1.0
C      1  0.5306210000000  0.5529300000000  0.5295890000000 1.0
C      1  0.4728640000000  0.4406830000000  0.4897190000000 1.0
C      1  0.4867380000000  0.4576800000000  0.6023230000000 1.0
C      1  0.5122970000000  0.5413900000000  0.3908190000000 1.0
C      1  0.4909680000000  0.5634480000000  0.3920080000000 1.0
C      1  0.5067180000000  0.4362850000000  0.6056600000000 1.0
C      1  0.5153180000000  0.4521240000000  0.4632370000000 1.0
C      1  0.4794700000000  0.5505260000000  0.5360090000000 1.0
C      1  0.4573680000000  0.4543240000000  0.5401800000000 1.0
C      1  0.5495060000000  0.5415350000000  0.4478920000000 1.0
C      1  0.5199800000000  0.4906500000000  0.5420050000000 1.0
C      1  0.4761130000000  0.5091880000000  0.4554500000000 1.0
C      1  0.4115370000000  0.4638920000000  0.4964070000000 1.0
C      1  0.5957010000000  0.5407500000000  0.5052160000000 1.0
C      1  0.4893980000000  0.5260170000000  0.5476900000000 1.0
C      1  0.5131430000000  0.4793980000000  0.4471050000000 1.0
C      1  0.4707270000000  0.5501070000000  0.4820850000000 1.0
C      1  0.5274250000000  0.4486750000000  0.5346230000000 1.0
C      1  0.5820650000000  0.4604090000000  0.4437410000000 1.0
C      1  0.4194060000000  0.5386860000000  0.5567220000000 1.0
C      1  0.3878720000000  0.5299300000000  0.4994000000000 1.0
C      1  0.6061550000000  0.4784400000000  0.4995240000000 1.0
C      1  0.5350400000000  0.5259850000000  0.4933250000000 1.0
C      1  0.4743750000000  0.4825260000000  0.5115930000000 1.0
C      1  0.4858270000000  0.5739330000000  0.5516980000000 1.0
C      1  0.5108350000000  0.4268260000000  0.4468120000000 1.0
C      1  0.4528450000000  0.4547730000000  0.5801630000000 1.0
C      1  0.5388400000000  0.5402250000000  0.4042900000000 1.0
C      1  0.4591320000000  0.4551570000000  0.5104340000000 1.0
C      1  0.5427770000000  0.5517600000000  0.5045650000000 1.0
C      1  0.5292670000000  0.4373900000000  0.4100950000000 1.0
C      1  0.4679130000000  0.5600600000000  0.5886970000000 1.0
C      1  0.4604880000000  0.5307090000000  0.5841140000000 1.0
C      1  0.5367830000000  0.4668620000000  0.4074100000000 1.0
C      1  0.4965640000000  0.5701260000000  0.5785220000000 1.0
C      1  0.5016900000000  0.4271640000000  0.4200020000000 1.0
C      1  0.4789680000000  0.4126540000000  0.4819560000000 1.0
C      1  0.5187760000000  0.5971890000000  0.5275200000000 1.0
C      1  0.5619020000000  0.4738170000000  0.5822190000000 1.0
C      1  0.4392200000000  0.5212380000000  0.4217300000000 1.0
C      1  0.4075160000000  0.4904930000000  0.4908470000000 1.0
C      1  0.5859260000000  0.5134220000000  0.5052720000000 1.0
C      1  0.5621020000000  0.5756930000000  0.5090580000000 1.0
C      1  0.4331550000000  0.4213570000000  0.4898930000000 1.0
C      1  0.5704360000000  0.4322770000000  0.4447780000000 1.0
C      1  0.4268880000000  0.5661890000000  0.5570470000000 1.0
C      1  0.4723310000000  0.5500630000000  0.4111060000000 1.0
C      1  0.5285480000000  0.4489550000000  0.5892710000000 1.0
C      1  0.4301800000000  0.5358090000000  0.4962930000000 1.0
C      1  0.5679180000000  0.4632520000000  0.5043770000000 1.0
C      1  0.4693970000000  0.3854940000000  0.5357870000000 1.0
C      1  0.5373420000000  0.6155440000000  0.4600960000000 1.0
C      1  0.5330610000000  0.4752460000000  0.5250480000000 1.0
C      1  0.4654660000000  0.5215730000000  0.4770900000000 1.0
C      1  0.4815390000000  0.4993280000000  0.3977420000000 1.0
C      1  0.5179610000000  0.4972330000000  0.6061820000000 1.0
C      1  0.5882460000000  0.5008080000000  0.4781490000000 1.0
C      1  0.4015150000000  0.5046750000000  0.5150300000000 1.0
C      1  0.4472320000000  0.5764920000000  0.5115150000000 1.0
C      1  0.5458220000000  0.4191380000000  0.4913550000000 1.0
END
