TITL C-2441167-4473-371 0.0955131147687382 125000 -11024.6047194872 0 0 93 (C1) n - 1
REM
REM in /home/bkarasulu/work/CARBON/AIRSS/Generating-Clusters/ReaxFF-fromJPCA2015/Units_Real/with-SteepDescent/Higher-Symm
REM
REM
REM
REM
REM
REM ./C.cell (1df0a924f5614ab8850e4351716899ee)
REM
REM compiler GCC version 9.2.1 20190827 (Red Hat 9.2.1-1)
REM options -cpp -mtune=generic -march=x86-64 -g -O0 -fpre-include=/usr/include/finclude/math-vector-fortran.h
REM seed -1609104711 -1811742644 -1673304265 1165511018 -1548131946 -990602274 -1399970509 793420807 -1061550178 -1729860849 683471551 1920080749 125165429 -1269006884 -535890952 112984391 1270878208 -434219986 -762867452 767216722 -1791395597 -1968167274 -1621055330 -808940667 1821194363 -1116556310 -1618384558 -2103568258 -73912597 1984899253 761289434 1265667084 74036218
REM
CELL 1.54180   50.00000   50.00000   50.00000   90.00000   90.00000   90.00000
LATT -1
SFAC C  
C      1  0.5432500000000  0.5676030000000  0.5103020000000 1.0
C      1  0.4700960000000  0.5670850000000  0.5312040000000 1.0
C      1  0.4883900000000  0.5678890000000  0.4586140000000 1.0
C      1  0.4581170000000  0.4324670000000  0.5108370000000 1.0
C      1  0.5307970000000  0.4327500000000  0.5324340000000 1.0
C      1  0.5128870000000  0.4289120000000  0.4562010000000 1.0
C      1  0.5490020000000  0.5478220000000  0.4664010000000 1.0
C      1  0.5042770000000  0.5488330000000  0.5606580000000 1.0
C      1  0.4457280000000  0.5496000000000  0.4751250000000 1.0
C      1  0.4537370000000  0.4514950000000  0.4674620000000 1.0
C      1  0.4925780000000  0.4467260000000  0.5643310000000 1.0
C      1  0.5526480000000  0.4496050000000  0.4744970000000 1.0
C      1  0.5608330000000  0.4612300000000  0.5002050000000 1.0
C      1  0.4674040000000  0.4591640000000  0.5555190000000 1.0
C      1  0.4716700000000  0.4629110000000  0.4475050000000 1.0
C      1  0.4348300000000  0.5383080000000  0.4998210000000 1.0
C      1  0.5318690000000  0.5381640000000  0.5546090000000 1.0
C      1  0.5312290000000  0.5370010000000  0.4445910000000 1.0
C      1  0.5362240000000  0.4634010000000  0.5349670000000 1.0
C      1  0.4513360000000  0.4624900000000  0.5150020000000 1.0
C      1  0.5151800000000  0.4560630000000  0.4441910000000 1.0
C      1  0.4632180000000  0.5368580000000  0.5353410000000 1.0
C      1  0.5482430000000  0.5370290000000  0.5126890000000 1.0
C      1  0.4864650000000  0.5379780000000  0.4508030000000 1.0
C      1  0.5085200000000  0.5502990000000  0.5132900000000 1.0
C      1  0.4845760000000  0.5476180000000  0.5006810000000 1.0
C      1  0.5072320000000  0.5491940000000  0.4870160000000 1.0
C      1  0.4923450000000  0.4521560000000  0.5127560000000 1.0
C      1  0.5162850000000  0.4491990000000  0.5007850000000 1.0
C      1  0.4944180000000  0.4489520000000  0.4849060000000 1.0
C      1  0.4823310000000  0.4255510000000  0.5243630000000 1.0
C      1  0.4879080000000  0.4237160000000  0.4715190000000 1.0
C      1  0.5312600000000  0.4240620000000  0.5047770000000 1.0
C      1  0.5187760000000  0.5750150000000  0.5252160000000 1.0
C      1  0.5125390000000  0.5751540000000  0.4727190000000 1.0
C      1  0.4701730000000  0.5749250000000  0.5036200000000 1.0
C      1  0.4639330000000  0.4772300000000  0.4226570000000 1.0
C      1  0.5845640000000  0.4785440000000  0.5044100000000 1.0
C      1  0.4546300000000  0.4792800000000  0.5729560000000 1.0
C      1  0.5388060000000  0.5171220000000  0.4245090000000 1.0
C      1  0.4145750000000  0.5179240000000  0.5003340000000 1.0
C      1  0.5464500000000  0.5194400000000  0.5725770000000 1.0
C      1  0.4788970000000  0.4844140000000  0.5860190000000 1.0
C      1  0.4398060000000  0.4888440000000  0.4324550000000 1.0
C      1  0.5879700000000  0.4897870000000  0.4789150000000 1.0
C      1  0.5231540000000  0.5110900000000  0.5859050000000 1.0
C      1  0.5628310000000  0.5020750000000  0.4347530000000 1.0
C      1  0.4114030000000  0.5009110000000  0.4760530000000 1.0
C      1  0.5826640000000  0.5311170000000  0.4736890000000 1.0
C      1  0.4845220000000  0.5307590000000  0.5831420000000 1.0
C      1  0.4366650000000  0.5292270000000  0.4413490000000 1.0
C      1  0.4218480000000  0.4746230000000  0.4789670000000 1.0
C      1  0.5145020000000  0.4650670000000  0.5768470000000 1.0
C      1  0.5594130000000  0.4746740000000  0.4417890000000 1.0
C      1  0.4717730000000  0.5168500000000  0.4903030000000 1.0
C      1  0.5221300000000  0.5140290000000  0.4822470000000 1.0
C      1  0.5035550000000  0.5115240000000  0.5289960000000 1.0
C      1  0.5203650000000  0.4857450000000  0.4884630000000 1.0
C      1  0.4817750000000  0.4894050000000  0.4848630000000 1.0
C      1  0.4953980000000  0.4839020000000  0.5299620000000 1.0
C      1  0.4473840000000  0.5027070000000  0.5558510000000 1.0
C      1  0.4801130000000  0.5035970000000  0.4299480000000 1.0
C      1  0.5730090000000  0.5027220000000  0.5164580000000 1.0
C      1  0.5549200000000  0.4965580000000  0.5562010000000 1.0
C      1  0.5215410000000  0.4951220000000  0.4215920000000 1.0
C      1  0.4252780000000  0.4991330000000  0.5200850000000 1.0
C      1  0.5104170000000  0.5225130000000  0.4576670000000 1.0
C      1  0.5310660000000  0.5197380000000  0.5321730000000 1.0
C      1  0.4540280000000  0.5204070000000  0.5128110000000 1.0
C      1  0.4867870000000  0.4858450000000  0.4565840000000 1.0
C      1  0.4668500000000  0.4790390000000  0.5340650000000 1.0
C      1  0.5405690000000  0.4801380000000  0.5089070000000 1.0
C      1  0.5772490000000  0.5287290000000  0.5263690000000 1.0
C      1  0.4377640000000  0.5292960000000  0.5550290000000 1.0
C      1  0.4860970000000  0.5285560000000  0.4186390000000 1.0
C      1  0.4223410000000  0.4721510000000  0.5279130000000 1.0
C      1  0.5646720000000  0.4709380000000  0.5504920000000 1.0
C      1  0.5054310000000  0.4730540000000  0.4227060000000 1.0
C      1  0.5403220000000  0.5717720000000  0.4815200000000 1.0
C      1  0.4958520000000  0.5720770000000  0.5437630000000 1.0
C      1  0.4645810000000  0.5721660000000  0.4750510000000 1.0
C      1  0.4607060000000  0.4272660000000  0.4820890000000 1.0
C      1  0.5041920000000  0.4287440000000  0.5441870000000 1.0
C      1  0.5357670000000  0.4262330000000  0.4754400000000 1.0
C      1  0.5477460000000  0.5267170000000  0.4862510000000 1.0
C      1  0.4868260000000  0.5253130000000  0.5480940000000 1.0
C      1  0.4621430000000  0.5280060000000  0.4645830000000 1.0
C      1  0.4542240000000  0.4730930000000  0.4875370000000 1.0
C      1  0.5164650000000  0.4790780000000  0.5503680000000 1.0
C      1  0.5338150000000  0.4708510000000  0.4627360000000 1.0
C      1  0.5861940000000  0.5075160000000  0.4570640000000 1.0
C      1  0.4205750000000  0.5050160000000  0.4452050000000 1.0
C      1  0.4970740000000  0.5047880000000  0.5955030000000 1.0
END
