TITL C-2441168-9922-1478 0.0674374802155345 125000 -23091.3698003023 0 0 165 (C1) n - 1
REM
REM in /home/bkarasulu/work/CARBON/AIRSS/Generating-Clusters/ReaxFF-fromJPCA2015/Units_Real/with-SteepDescent/Higher-Symm
REM
REM
REM
REM
REM
REM ./C.cell (1df0a924f5614ab8850e4351716899ee)
REM
REM compiler GCC version 9.2.1 20190827 (Red Hat 9.2.1-1)
REM options -cpp -mtune=generic -march=x86-64 -g -O0 -fpre-include=/usr/include/finclude/math-vector-fortran.h
REM seed 1293901473 1271923132 1435436849 1215273836 1949535044 -1040766716 192322236 -903297211 258972308 1054504211 2011721419 767903743 -463856015 1486977725 594782251 1679347392 -250094593 1239292301 -2003284884 509835898 1491963837 69685606 1175731268 1433545064 -580269927 -1250724092 -1843382142 -1083587249 -544395649 52110858 -2040678849 1324667128 582235573
REM
CELL 1.54180   50.00000   50.00000   50.00000   90.00000   90.00000   90.00000
LATT -1
SFAC C  
C      1  0.5297130000000  0.4876660000000  0.5685190000000 1.0
C      1  0.5369640000000  0.5945520000000  0.4849360000000 1.0
C      1  0.4455200000000  0.4206420000000  0.4492030000000 1.0
C      1  0.5405590000000  0.4176880000000  0.5393340000000 1.0
C      1  0.5556840000000  0.5163620000000  0.5369560000000 1.0
C      1  0.4754290000000  0.5827510000000  0.5643100000000 1.0
C      1  0.4862210000000  0.5413140000000  0.4864880000000 1.0
C      1  0.5916580000000  0.5390130000000  0.4937410000000 1.0
C      1  0.5138110000000  0.5447080000000  0.5533720000000 1.0
C      1  0.4656060000000  0.4065120000000  0.4614780000000 1.0
C      1  0.5752880000000  0.4786130000000  0.4384600000000 1.0
C      1  0.4658670000000  0.5513490000000  0.5335920000000 1.0
C      1  0.5660060000000  0.5578580000000  0.4463920000000 1.0
C      1  0.4563740000000  0.5411590000000  0.4830580000000 1.0
C      1  0.4561710000000  0.5292970000000  0.4124820000000 1.0
C      1  0.5023610000000  0.6158140000000  0.4970280000000 1.0
C      1  0.5960130000000  0.5246600000000  0.5418370000000 1.0
C      1  0.4859840000000  0.4230990000000  0.5368270000000 1.0
C      1  0.4660130000000  0.5005590000000  0.4551660000000 1.0
C      1  0.4930950000000  0.5196240000000  0.5026980000000 1.0
C      1  0.5573070000000  0.5217630000000  0.4135170000000 1.0
C      1  0.4941340000000  0.4480410000000  0.5433370000000 1.0
C      1  0.4628640000000  0.5698630000000  0.4420730000000 1.0
C      1  0.5896850000000  0.4731410000000  0.5395880000000 1.0
C      1  0.5028350000000  0.5337840000000  0.3942630000000 1.0
C      1  0.5327750000000  0.4804430000000  0.5407770000000 1.0
C      1  0.4463980000000  0.5396810000000  0.5116810000000 1.0
C      1  0.4084370000000  0.5208920000000  0.4727990000000 1.0
C      1  0.4875900000000  0.5836720000000  0.4389040000000 1.0
C      1  0.5631320000000  0.4556440000000  0.4536890000000 1.0
C      1  0.5578670000000  0.5685450000000  0.5470460000000 1.0
C      1  0.4529530000000  0.4433740000000  0.4421410000000 1.0
C      1  0.5273610000000  0.6098050000000  0.5083250000000 1.0
C      1  0.5161680000000  0.4589520000000  0.5294030000000 1.0
C      1  0.5053240000000  0.4911550000000  0.4689840000000 1.0
C      1  0.5609640000000  0.5751910000000  0.4856260000000 1.0
C      1  0.4729320000000  0.4440020000000  0.4200280000000 1.0
C      1  0.5583080000000  0.4935260000000  0.4202930000000 1.0
C      1  0.5253040000000  0.4061070000000  0.4651580000000 1.0
C      1  0.4976530000000  0.3963850000000  0.5106340000000 1.0
C      1  0.4602800000000  0.4123700000000  0.5316410000000 1.0
C      1  0.5881250000000  0.4601370000000  0.5001470000000 1.0
C      1  0.5199720000000  0.6001500000000  0.5372180000000 1.0
C      1  0.4217020000000  0.5388420000000  0.4547250000000 1.0
C      1  0.5264700000000  0.5101910000000  0.6083340000000 1.0
C      1  0.6114080000000  0.4942350000000  0.4767350000000 1.0
C      1  0.4841960000000  0.4805260000000  0.4489210000000 1.0
C      1  0.5581590000000  0.5231920000000  0.5859910000000 1.0
C      1  0.5996620000000  0.5004740000000  0.5271840000000 1.0
C      1  0.4635380000000  0.4803980000000  0.5949890000000 1.0
C      1  0.4966250000000  0.4290600000000  0.4280370000000 1.0
C      1  0.4323100000000  0.5262370000000  0.4294540000000 1.0
C      1  0.4212400000000  0.5002290000000  0.4296970000000 1.0
C      1  0.4278160000000  0.4555860000000  0.4383170000000 1.0
C      1  0.4886180000000  0.4453810000000  0.5898820000000 1.0
C      1  0.4357520000000  0.4257550000000  0.5259280000000 1.0
C      1  0.5719820000000  0.5168020000000  0.5612940000000 1.0
C      1  0.5342740000000  0.4289450000000  0.5658800000000 1.0
C      1  0.5075490000000  0.4253100000000  0.5777750000000 1.0
C      1  0.5001030000000  0.4678720000000  0.5055420000000 1.0
C      1  0.4072940000000  0.4755240000000  0.5092760000000 1.0
C      1  0.4093550000000  0.4665660000000  0.5366160000000 1.0
C      1  0.5434770000000  0.5525340000000  0.4899000000000 1.0
C      1  0.4704790000000  0.4884490000000  0.5494730000000 1.0
C      1  0.4764810000000  0.6086700000000  0.4874700000000 1.0
C      1  0.5162350000000  0.4747740000000  0.4287960000000 1.0
C      1  0.5247480000000  0.4331380000000  0.4230160000000 1.0
C      1  0.4440370000000  0.5456560000000  0.5785320000000 1.0
C      1  0.6010980000000  0.5107270000000  0.4991910000000 1.0
C      1  0.4814870000000  0.4874990000000  0.3985180000000 1.0
C      1  0.4081300000000  0.5043060000000  0.5033910000000 1.0
C      1  0.4281520000000  0.5219400000000  0.5772890000000 1.0
C      1  0.4678160000000  0.5308740000000  0.5803120000000 1.0
C      1  0.5005390000000  0.4239830000000  0.5010830000000 1.0
C      1  0.5397710000000  0.5427520000000  0.5390930000000 1.0
C      1  0.4452690000000  0.4997670000000  0.5440250000000 1.0
C      1  0.4513930000000  0.5053820000000  0.5867050000000 1.0
C      1  0.5720650000000  0.4212470000000  0.4819140000000 1.0
C      1  0.5140830000000  0.5727960000000  0.4269040000000 1.0
C      1  0.4520800000000  0.4078330000000  0.4873650000000 1.0
C      1  0.4941220000000  0.4397350000000  0.4749790000000 1.0
C      1  0.4593890000000  0.4526650000000  0.5852720000000 1.0
C      1  0.5312980000000  0.5421220000000  0.4655260000000 1.0
C      1  0.5167410000000  0.5023890000000  0.5315470000000 1.0
C      1  0.4318600000000  0.5809570000000  0.4809110000000 1.0
C      1  0.5505830000000  0.4324650000000  0.4968300000000 1.0
C      1  0.4780780000000  0.5163890000000  0.3988020000000 1.0
C      1  0.5364570000000  0.5860470000000  0.5570080000000 1.0
C      1  0.4707310000000  0.4570860000000  0.4668630000000 1.0
C      1  0.5877660000000  0.4458160000000  0.4741270000000 1.0
C      1  0.5264020000000  0.5155430000000  0.5788310000000 1.0
C      1  0.5260160000000  0.4572920000000  0.4099900000000 1.0
C      1  0.4957800000000  0.4155530000000  0.4545070000000 1.0
C      1  0.5598220000000  0.5030500000000  0.5109820000000 1.0
C      1  0.4501040000000  0.5141130000000  0.4720260000000 1.0
C      1  0.4605870000000  0.5930590000000  0.5071140000000 1.0
C      1  0.4955600000000  0.5936120000000  0.5488210000000 1.0
C      1  0.4009230000000  0.5024250000000  0.4522110000000 1.0
C      1  0.5124210000000  0.5797040000000  0.4798590000000 1.0
C      1  0.5088830000000  0.4770440000000  0.4006770000000 1.0
C      1  0.5393420000000  0.4717230000000  0.5896520000000 1.0
C      1  0.4323200000000  0.5858380000000  0.5037420000000 1.0
C      1  0.5863430000000  0.4465730000000  0.5259210000000 1.0
C      1  0.5435140000000  0.5104730000000  0.4895670000000 1.0
C      1  0.4742030000000  0.5478080000000  0.4264590000000 1.0
C      1  0.5063200000000  0.5238630000000  0.5967490000000 1.0
C      1  0.4902110000000  0.4940590000000  0.4936630000000 1.0
C      1  0.4930280000000  0.5701140000000  0.5837200000000 1.0
C      1  0.5364250000000  0.5627770000000  0.4431090000000 1.0
C      1  0.5275200000000  0.5489180000000  0.5125170000000 1.0
C      1  0.5037930000000  0.5298760000000  0.4655130000000 1.0
C      1  0.4946420000000  0.5278830000000  0.4393650000000 1.0
C      1  0.5175260000000  0.4000480000000  0.5337490000000 1.0
C      1  0.4772920000000  0.5723140000000  0.5174810000000 1.0
C      1  0.6001020000000  0.4886600000000  0.4494050000000 1.0
C      1  0.5483650000000  0.4319440000000  0.4406610000000 1.0
C      1  0.4889270000000  0.5908060000000  0.4666440000000 1.0
C      1  0.4416320000000  0.4965000000000  0.4940010000000 1.0
C      1  0.4426640000000  0.5621910000000  0.4639550000000 1.0
C      1  0.4231550000000  0.5609930000000  0.5152560000000 1.0
C      1  0.4132410000000  0.5328860000000  0.5518370000000 1.0
C      1  0.5666440000000  0.5290700000000  0.4403890000000 1.0
C      1  0.5002330000000  0.4066450000000  0.5564700000000 1.0
C      1  0.5531330000000  0.4503520000000  0.5745860000000 1.0
C      1  0.4101720000000  0.4581970000000  0.4621980000000 1.0
C      1  0.5682020000000  0.4668370000000  0.5565330000000 1.0
C      1  0.4320570000000  0.4271040000000  0.4983310000000 1.0
C      1  0.4915890000000  0.5056900000000  0.5436000000000 1.0
C      1  0.4050360000000  0.5117830000000  0.5327900000000 1.0
C      1  0.5533430000000  0.4117550000000  0.4603980000000 1.0
C      1  0.5926370000000  0.5464690000000  0.5214170000000 1.0
C      1  0.4933240000000  0.4713190000000  0.6016950000000 1.0
C      1  0.5810300000000  0.5739890000000  0.5308380000000 1.0
C      1  0.5207290000000  0.5190090000000  0.5084170000000 1.0
C      1  0.5270000000000  0.4164560000000  0.4913390000000 1.0
C      1  0.4468600000000  0.5110700000000  0.5180700000000 1.0
C      1  0.4865270000000  0.5339360000000  0.5500090000000 1.0
C      1  0.4623910000000  0.4694570000000  0.4105940000000 1.0
C      1  0.5018870000000  0.5652530000000  0.5035060000000 1.0
C      1  0.5340500000000  0.4953100000000  0.4372880000000 1.0
C      1  0.4220440000000  0.4541090000000  0.4907540000000 1.0
C      1  0.5295450000000  0.5237350000000  0.4026820000000 1.0
C      1  0.4527890000000  0.4675430000000  0.4898150000000 1.0
C      1  0.5494550000000  0.5138290000000  0.4611480000000 1.0
C      1  0.5644190000000  0.4766780000000  0.4998400000000 1.0
C      1  0.4978020000000  0.5589760000000  0.4075420000000 1.0
C      1  0.5191360000000  0.5658720000000  0.5704320000000 1.0
C      1  0.4682770000000  0.3959370000000  0.5096260000000 1.0
C      1  0.5169330000000  0.4647340000000  0.4764230000000 1.0
C      1  0.3869750000000  0.4758400000000  0.4603200000000 1.0
C      1  0.4878570000000  0.5436000000000  0.5961090000000 1.0
C      1  0.4170960000000  0.4913100000000  0.5509600000000 1.0
C      1  0.4361030000000  0.4767770000000  0.4217170000000 1.0
C      1  0.5168780000000  0.5158680000000  0.4272140000000 1.0
C      1  0.4499090000000  0.4492820000000  0.5583320000000 1.0
C      1  0.4252210000000  0.4434390000000  0.5450680000000 1.0
C      1  0.4698600000000  0.4613700000000  0.5399310000000 1.0
C      1  0.4211490000000  0.5596530000000  0.5437070000000 1.0
C      1  0.5805550000000  0.5577320000000  0.4726080000000 1.0
C      1  0.5195560000000  0.4814140000000  0.6091860000000 1.0
C      1  0.6101640000000  0.4671170000000  0.4663410000000 1.0
C      1  0.4718590000000  0.4621810000000  0.5106100000000 1.0
C      1  0.5468030000000  0.4628590000000  0.4807720000000 1.0
C      1  0.5628890000000  0.4281190000000  0.5225540000000 1.0
C      1  0.4476960000000  0.5656930000000  0.5572940000000 1.0
END
