TITL C-2441160-1326-483 0.00228082020036535 125000 -1926.86106076369 0 0 15 (C1) n - 1
REM
REM in /home/bkarasulu/work/CARBON/AIRSS/Generating-Clusters/ReaxFF-fromJPCA2015/Units_Real/with-SteepDescent/Higher-Symm
REM
REM
REM
REM
REM
REM ./C.cell (1df0a924f5614ab8850e4351716899ee)
REM
REM compiler GCC version 9.2.1 20190827 (Red Hat 9.2.1-1)
REM options -cpp -mtune=generic -march=x86-64 -g -O0 -fpre-include=/usr/include/finclude/math-vector-fortran.h
REM seed -1329080834 2121018268 -453673563 822969292 -2115290227 1972571651 -1481763836 740926508 -1534303470 1417661312 -472211784 -351423582 -198603917 -650392167 -1999523155 1497929252 1881410357 906476021 -672146044 119546657 -1306129342 -2077801800 457853033 -40659168 1859229495 -491037695 -1366433193 1833672793 -1362064166 -1730503190 -1302091289 639317251 -977042304
REM
CELL 1.54180   50.00000   50.00000   50.00000   90.00000   90.00000   90.00000
LATT -1
SFAC C  
C      1  0.4830910000000  0.5018560000000  0.4584420000000 1.0
C      1  0.5181220000000  0.4526560000000  0.4984760000000 1.0
C      1  0.4809570000000  0.4939780000000  0.5482410000000 1.0
C      1  0.5099720000000  0.5557380000000  0.5171690000000 1.0
C      1  0.4971490000000  0.5342830000000  0.5131780000000 1.0
C      1  0.5108460000000  0.5113090000000  0.4596660000000 1.0
C      1  0.4930880000000  0.4623590000000  0.4867290000000 1.0
C      1  0.5045520000000  0.4890780000000  0.5335040000000 1.0
C      1  0.5366340000000  0.5098900000000  0.4742380000000 1.0
C      1  0.4732710000000  0.4829590000000  0.4801990000000 1.0
C      1  0.5361620000000  0.4719080000000  0.5138350000000 1.0
C      1  0.4740970000000  0.5150140000000  0.5242890000000 1.0
C      1  0.4621100000000  0.4987780000000  0.5028340000000 1.0
C      1  0.5387380000000  0.5005020000000  0.5026170000000 1.0
C      1  0.5139500000000  0.5071400000000  0.5152390000000 1.0
END
