TITL C-2441163-1170-1043 0.220431461618694 125000 -21070.5019740505 0 0 187 (C1) n - 1
REM
REM in /home/bkarasulu/work/CARBON/AIRSS/Generating-Clusters/ReaxFF-fromJPCA2015/Units_Real/with-SteepDescent/Higher-Symm
REM
REM
REM
REM
REM
REM ./C.cell (1df0a924f5614ab8850e4351716899ee)
REM
REM compiler GCC version 9.2.1 20190827 (Red Hat 9.2.1-1)
REM options -cpp -mtune=generic -march=x86-64 -g -O0 -fpre-include=/usr/include/finclude/math-vector-fortran.h
REM seed 1966007004 -1155070122 147220148 942376323 369990086 -368644363 571830582 1117506246 -1670208102 -1726077997 -1353474452 -1385208485 -947608261 820803709 1473876195 572136866 -93107185 -938058239 2146585918 1292954168 -762179097 -389602332 -2108967902 227696420 -571448079 720061624 -710743974 -1169137812 -836384530 -1119465216 -468053675 97303613 1388545724
REM
CELL 1.54180   50.00000   50.00000   50.00000   90.00000   90.00000   90.00000
LATT -1
SFAC C  
C      1  0.5122460000000  0.4312160000000  0.4494430000000 1.0
C      1  0.4470690000000  0.5196250000000  0.4351210000000 1.0
C      1  0.4292780000000  0.4527110000000  0.5140490000000 1.0
C      1  0.5118650000000  0.5702060000000  0.5508680000000 1.0
C      1  0.4902880000000  0.5724620000000  0.4479150000000 1.0
C      1  0.4797700000000  0.4284660000000  0.5485150000000 1.0
C      1  0.4502180000000  0.4840300000000  0.5686370000000 1.0
C      1  0.5521900000000  0.4777140000000  0.4258850000000 1.0
C      1  0.5497410000000  0.5177650000000  0.5821240000000 1.0
C      1  0.4290190000000  0.5510550000000  0.4852260000000 1.0
C      1  0.5703570000000  0.5483540000000  0.5165930000000 1.0
C      1  0.5741360000000  0.4511560000000  0.4827960000000 1.0
C      1  0.5189770000000  0.4546860000000  0.4268250000000 1.0
C      1  0.4466780000000  0.4294950000000  0.5149210000000 1.0
C      1  0.4263400000000  0.5261660000000  0.4523800000000 1.0
C      1  0.5138090000000  0.5483020000000  0.5689560000000 1.0
C      1  0.4789480000000  0.4510480000000  0.5691690000000 1.0
C      1  0.4867350000000  0.5487260000000  0.4307310000000 1.0
C      1  0.4511020000000  0.5683730000000  0.4855280000000 1.0
C      1  0.5512900000000  0.4319440000000  0.4849000000000 1.0
C      1  0.5534580000000  0.5724540000000  0.5116630000000 1.0
C      1  0.4309420000000  0.4880600000000  0.5494770000000 1.0
C      1  0.5802040000000  0.5161450000000  0.5531720000000 1.0
C      1  0.5676540000000  0.4815220000000  0.4493450000000 1.0
C      1  0.4805960000000  0.3983070000000  0.5348610000000 1.0
C      1  0.5264820000000  0.4884690000000  0.3917780000000 1.0
C      1  0.3957160000000  0.5375250000000  0.4838390000000 1.0
C      1  0.4821120000000  0.6085850000000  0.4667400000000 1.0
C      1  0.5152610000000  0.6089700000000  0.5374850000000 1.0
C      1  0.5171720000000  0.3932330000000  0.4665510000000 1.0
C      1  0.5345360000000  0.5162910000000  0.6067240000000 1.0
C      1  0.4634160000000  0.5176810000000  0.3935430000000 1.0
C      1  0.4683230000000  0.4872500000000  0.6084890000000 1.0
C      1  0.3913870000000  0.4659550000000  0.5179510000000 1.0
C      1  0.6040870000000  0.4655480000000  0.4791220000000 1.0
C      1  0.6119630000000  0.5336110000000  0.5137400000000 1.0
C      1  0.4815500000000  0.5375480000000  0.3914340000000 1.0
C      1  0.5371610000000  0.3925320000000  0.4844790000000 1.0
C      1  0.3909920000000  0.4840180000000  0.5364230000000 1.0
C      1  0.4802490000000  0.4628070000000  0.6061170000000 1.0
C      1  0.5170000000000  0.5382570000000  0.6092700000000 1.0
C      1  0.5172300000000  0.4627030000000  0.3957810000000 1.0
C      1  0.5343940000000  0.6072010000000  0.5180790000000 1.0
C      1  0.4682170000000  0.3930020000000  0.5099150000000 1.0
C      1  0.4600320000000  0.6077950000000  0.4812540000000 1.0
C      1  0.3992570000000  0.5169280000000  0.4644250000000 1.0
C      1  0.6055460000000  0.4887860000000  0.4607060000000 1.0
C      1  0.6041140000000  0.5149940000000  0.5356900000000 1.0
C      1  0.5592800000000  0.4182940000000  0.4595820000000 1.0
C      1  0.4624690000000  0.5614680000000  0.4188090000000 1.0
C      1  0.4165610000000  0.4642110000000  0.5597300000000 1.0
C      1  0.5588570000000  0.5832880000000  0.5402470000000 1.0
C      1  0.4427860000000  0.5850200000000  0.4617350000000 1.0
C      1  0.4357410000000  0.4223140000000  0.5414110000000 1.0
C      1  0.4565140000000  0.4398280000000  0.5848870000000 1.0
C      1  0.5412450000000  0.4373280000000  0.4182120000000 1.0
C      1  0.5369750000000  0.5614460000000  0.5822170000000 1.0
C      1  0.4183120000000  0.5480250000000  0.4364900000000 1.0
C      1  0.5806220000000  0.5431370000000  0.5625990000000 1.0
C      1  0.5857080000000  0.4585850000000  0.4399720000000 1.0
C      1  0.5655460000000  0.4536280000000  0.4181040000000 1.0
C      1  0.4555510000000  0.4183580000000  0.5619490000000 1.0
C      1  0.4179030000000  0.5639580000000  0.4607530000000 1.0
C      1  0.5597410000000  0.5443170000000  0.5820590000000 1.0
C      1  0.4367620000000  0.4606750000000  0.5806960000000 1.0
C      1  0.4410060000000  0.5419600000000  0.4166020000000 1.0
C      1  0.4630140000000  0.5821610000000  0.4404640000000 1.0
C      1  0.5374310000000  0.4171550000000  0.4402670000000 1.0
C      1  0.5375040000000  0.5822040000000  0.5602500000000 1.0
C      1  0.4153760000000  0.4438150000000  0.5392390000000 1.0
C      1  0.5787110000000  0.5620220000000  0.5413860000000 1.0
C      1  0.5828080000000  0.4367250000000  0.4589460000000 1.0
C      1  0.6117970000000  0.4866870000000  0.5306700000000 1.0
C      1  0.5317910000000  0.6088930000000  0.4896050000000 1.0
C      1  0.4887640000000  0.5355300000000  0.6105580000000 1.0
C      1  0.6020150000000  0.5187570000000  0.4594240000000 1.0
C      1  0.3902190000000  0.5120290000000  0.5343740000000 1.0
C      1  0.3940550000000  0.4885140000000  0.4666860000000 1.0
C      1  0.5362980000000  0.3957330000000  0.5185800000000 1.0
C      1  0.4630570000000  0.3910460000000  0.4823700000000 1.0
C      1  0.4665120000000  0.6096710000000  0.5097740000000 1.0
C      1  0.4889910000000  0.4710640000000  0.3938610000000 1.0
C      1  0.5085730000000  0.4663580000000  0.6103770000000 1.0
C      1  0.5102130000000  0.5344150000000  0.3921020000000 1.0
C      1  0.6083410000000  0.5339380000000  0.4845350000000 1.0
C      1  0.5279600000000  0.4874560000000  0.6065110000000 1.0
C      1  0.4871630000000  0.6097750000000  0.5306050000000 1.0
C      1  0.6072190000000  0.4681800000000  0.5078940000000 1.0
C      1  0.3909740000000  0.5320230000000  0.5117320000000 1.0
C      1  0.3919110000000  0.4699730000000  0.4893580000000 1.0
C      1  0.5322810000000  0.5150820000000  0.3947090000000 1.0
C      1  0.4653420000000  0.4893380000000  0.3916730000000 1.0
C      1  0.4656020000000  0.5150280000000  0.6058770000000 1.0
C      1  0.4890630000000  0.3911650000000  0.4659970000000 1.0
C      1  0.5099620000000  0.6099830000000  0.4688950000000 1.0
C      1  0.5099050000000  0.3978080000000  0.5334770000000 1.0
C      1  0.5032110000000  0.4562890000000  0.5242500000000 1.0
C      1  0.5239690000000  0.5036350000000  0.4543060000000 1.0
C      1  0.4599700000000  0.5208220000000  0.5001740000000 1.0
C      1  0.4994290000000  0.5396890000000  0.4795350000000 1.0
C      1  0.4995740000000  0.5399330000000  0.5205890000000 1.0
C      1  0.5015700000000  0.4660780000000  0.4800200000000 1.0
C      1  0.5206460000000  0.5006660000000  0.5431660000000 1.0
C      1  0.4806730000000  0.5002540000000  0.4602330000000 1.0
C      1  0.4797930000000  0.4999440000000  0.5406580000000 1.0
C      1  0.4618000000000  0.4790850000000  0.5004400000000 1.0
C      1  0.5428320000000  0.4787710000000  0.5018810000000 1.0
C      1  0.5388580000000  0.5198460000000  0.5017430000000 1.0
C      1  0.5001960000000  0.5208020000000  0.4601880000000 1.0
C      1  0.5209100000000  0.4617430000000  0.5004800000000 1.0
C      1  0.4616520000000  0.4998030000000  0.5190680000000 1.0
C      1  0.5002270000000  0.4791990000000  0.5409260000000 1.0
C      1  0.4997560000000  0.5201390000000  0.5390490000000 1.0
C      1  0.5024910000000  0.4812740000000  0.4557440000000 1.0
C      1  0.5211850000000  0.5418960000000  0.4998840000000 1.0
C      1  0.4801100000000  0.4578750000000  0.4987270000000 1.0
C      1  0.4798620000000  0.5392860000000  0.4997920000000 1.0
C      1  0.4583880000000  0.4994160000000  0.4791790000000 1.0
C      1  0.5411930000000  0.5012670000000  0.4796890000000 1.0
C      1  0.5406640000000  0.5001450000000  0.5218340000000 1.0
C      1  0.4204430000000  0.5258820000000  0.5123590000000 1.0
C      1  0.5170880000000  0.4266740000000  0.5354540000000 1.0
C      1  0.5427600000000  0.5172050000000  0.4251700000000 1.0
C      1  0.4211110000000  0.4752210000000  0.4926970000000 1.0
C      1  0.5779630000000  0.4763760000000  0.5129470000000 1.0
C      1  0.5795340000000  0.5263290000000  0.4910200000000 1.0
C      1  0.5096650000000  0.5802620000000  0.4743490000000 1.0
C      1  0.4907180000000  0.5806110000000  0.5258090000000 1.0
C      1  0.4861530000000  0.4202580000000  0.4620100000000 1.0
C      1  0.5217870000000  0.4856890000000  0.5780500000000 1.0
C      1  0.4523710000000  0.4800550000000  0.4185750000000 1.0
C      1  0.4741950000000  0.5123540000000  0.5765980000000 1.0
C      1  0.4200550000000  0.5101150000000  0.5343770000000 1.0
C      1  0.5051140000000  0.5281010000000  0.4209860000000 1.0
C      1  0.5260160000000  0.4224070000000  0.5074250000000 1.0
C      1  0.4205550000000  0.4797690000000  0.4554420000000 1.0
C      1  0.5666940000000  0.5068410000000  0.4741950000000 1.0
C      1  0.5846570000000  0.4797110000000  0.5383850000000 1.0
C      1  0.5190670000000  0.4562250000000  0.5809460000000 1.0
C      1  0.4920750000000  0.5307160000000  0.5803280000000 1.0
C      1  0.4869620000000  0.4783490000000  0.4235500000000 1.0
C      1  0.5375450000000  0.5813910000000  0.4817470000000 1.0
C      1  0.4752600000000  0.4293510000000  0.4916630000000 1.0
C      1  0.4692550000000  0.5800900000000  0.5096000000000 1.0
C      1  0.4283970000000  0.4525150000000  0.4489050000000 1.0
C      1  0.4451040000000  0.4074190000000  0.4645280000000 1.0
C      1  0.4673060000000  0.4353420000000  0.4247000000000 1.0
C      1  0.4233990000000  0.5425820000000  0.5607450000000 1.0
C      1  0.5809080000000  0.5392150000000  0.4487140000000 1.0
C      1  0.5781150000000  0.4562800000000  0.5509790000000 1.0
C      1  0.4361900000000  0.5804040000000  0.5325160000000 1.0
C      1  0.5580770000000  0.5835120000000  0.4605800000000 1.0
C      1  0.5561130000000  0.4115250000000  0.5368550000000 1.0
C      1  0.4642110000000  0.5590850000000  0.5710950000000 1.0
C      1  0.5360640000000  0.5616390000000  0.4244690000000 1.0
C      1  0.5447520000000  0.4477560000000  0.5739370000000 1.0
C      1  0.4279510000000  0.4303820000000  0.4676170000000 1.0
C      1  0.4463340000000  0.4544980000000  0.4272590000000 1.0
C      1  0.4634550000000  0.4155230000000  0.4447280000000 1.0
C      1  0.4192400000000  0.5602910000000  0.5417080000000 1.0
C      1  0.5734300000000  0.4336000000000  0.5329470000000 1.0
C      1  0.5781610000000  0.5624890000000  0.4665150000000 1.0
C      1  0.4418480000000  0.5342360000000  0.5787780000000 1.0
C      1  0.5645760000000  0.4675720000000  0.5727260000000 1.0
C      1  0.5581100000000  0.5411530000000  0.4308320000000 1.0
C      1  0.4569180000000  0.5742580000000  0.5519900000000 1.0
C      1  0.5391760000000  0.4259010000000  0.5560080000000 1.0
C      1  0.5410130000000  0.5787440000000  0.4410510000000 1.0
C      1  0.4301150000000  0.5734810000000  0.5050850000000 1.0
C      1  0.5659580000000  0.5013980000000  0.4282410000000 1.0
C      1  0.5016920000000  0.4341440000000  0.5706240000000 1.0
C      1  0.5071220000000  0.5688620000000  0.4244360000000 1.0
C      1  0.4339830000000  0.5069580000000  0.5754990000000 1.0
C      1  0.5664700000000  0.4974820000000  0.5709000000000 1.0
C      1  0.4261240000000  0.4319260000000  0.4957200000000 1.0
C      1  0.5726300000000  0.4317380000000  0.5047930000000 1.0
C      1  0.5772730000000  0.5664180000000  0.4951240000000 1.0
C      1  0.4353600000000  0.4941280000000  0.4339420000000 1.0
C      1  0.4917170000000  0.5686700000000  0.5721400000000 1.0
C      1  0.4959860000000  0.4373800000000  0.4265800000000 1.0
C      1  0.4999050000000  0.4229490000000  0.4987620000000 1.0
C      1  0.4954630000000  0.5781590000000  0.4981580000000 1.0
C      1  0.5001040000000  0.5020150000000  0.5802650000000 1.0
C      1  0.4960420000000  0.5031860000000  0.4219800000000 1.0
C      1  0.5807730000000  0.4992280000000  0.4965390000000 1.0
C      1  0.4226050000000  0.4990520000000  0.5052410000000 1.0
C      1  0.5019240000000  0.4965790000000  0.4975960000000 1.0
END
