TITL C-2441164-471-1032 0.0412339712833248 125000 -28061.0193359455 0 0 195 (C1) n - 1
REM
REM in /home/bkarasulu/work/CARBON/AIRSS/Generating-Clusters/ReaxFF-fromJPCA2015/Units_Real/with-SteepDescent/Higher-Symm
REM
REM
REM
REM
REM
REM ./C.cell (1df0a924f5614ab8850e4351716899ee)
REM
REM compiler GCC version 9.2.1 20190827 (Red Hat 9.2.1-1)
REM options -cpp -mtune=generic -march=x86-64 -g -O0 -fpre-include=/usr/include/finclude/math-vector-fortran.h
REM seed -1304672 1446252513 -1922164780 506367921 -491214026 2112333017 642767521 -1469320779 1215684149 -298745749 1757196740 -561887943 -1236236544 364418029 898211656 1160870605 -1490921153 -289901186 897546839 -1772251309 170034300 1758346602 -1632904257 -480647617 -1300283099 -18641736 -304811690 1507817730 689390084 263557859 -1363799363 1541137166 58124526
REM
CELL 1.54180   50.00000   50.00000   50.00000   90.00000   90.00000   90.00000
LATT -1
SFAC C  
C      1  0.6091460000000  0.4870350000000  0.5202750000000 1.0
C      1  0.5559140000000  0.4872600000000  0.5926930000000 1.0
C      1  0.5745890000000  0.5768950000000  0.4927160000000 1.0
C      1  0.4909970000000  0.4719480000000  0.4394980000000 1.0
C      1  0.5100620000000  0.5997510000000  0.5279450000000 1.0
C      1  0.5841790000000  0.5237880000000  0.5593050000000 1.0
C      1  0.4627700000000  0.5285410000000  0.4819090000000 1.0
C      1  0.3825140000000  0.5043180000000  0.5080160000000 1.0
C      1  0.4473270000000  0.4465740000000  0.5243740000000 1.0
C      1  0.4141210000000  0.5608670000000  0.4563890000000 1.0
C      1  0.5622200000000  0.4735370000000  0.4875910000000 1.0
C      1  0.4989400000000  0.5520060000000  0.5169320000000 1.0
C      1  0.4543400000000  0.4823890000000  0.4067560000000 1.0
C      1  0.5041820000000  0.5616880000000  0.4085910000000 1.0
C      1  0.5492020000000  0.4912350000000  0.3926080000000 1.0
C      1  0.4830480000000  0.4859460000000  0.5343840000000 1.0
C      1  0.4473840000000  0.4343440000000  0.4624750000000 1.0
C      1  0.4681070000000  0.4264100000000  0.4204520000000 1.0
C      1  0.4481750000000  0.4662930000000  0.4773490000000 1.0
C      1  0.5572430000000  0.4124870000000  0.5137470000000 1.0
C      1  0.5920580000000  0.5081620000000  0.4661230000000 1.0
C      1  0.5108880000000  0.4800900000000  0.6043300000000 1.0
C      1  0.5163620000000  0.5066080000000  0.5132740000000 1.0
C      1  0.3878290000000  0.4654330000000  0.5189240000000 1.0
C      1  0.4220730000000  0.5398700000000  0.5024600000000 1.0
C      1  0.5264860000000  0.5562630000000  0.5111030000000 1.0
C      1  0.4923380000000  0.5685690000000  0.4773350000000 1.0
C      1  0.4557910000000  0.6061270000000  0.5052430000000 1.0
C      1  0.5591560000000  0.4186910000000  0.5413970000000 1.0
C      1  0.3847290000000  0.4914470000000  0.5328600000000 1.0
C      1  0.5356350000000  0.5916630000000  0.4664720000000 1.0
C      1  0.4742240000000  0.4933640000000  0.5069560000000 1.0
C      1  0.4361250000000  0.4602000000000  0.5844390000000 1.0
C      1  0.4653790000000  0.5643620000000  0.5779650000000 1.0
C      1  0.4327370000000  0.5079260000000  0.5946340000000 1.0
C      1  0.4383120000000  0.5726690000000  0.4462470000000 1.0
C      1  0.5500520000000  0.5925610000000  0.4919540000000 1.0
C      1  0.4566920000000  0.5832220000000  0.5419620000000 1.0
C      1  0.5520570000000  0.4575740000000  0.5871630000000 1.0
C      1  0.5610080000000  0.4096710000000  0.4655930000000 1.0
C      1  0.5315980000000  0.5249110000000  0.5692040000000 1.0
C      1  0.5019180000000  0.5480130000000  0.4588390000000 1.0
C      1  0.5160110000000  0.5717250000000  0.5875740000000 1.0
C      1  0.4221420000000  0.5321350000000  0.5837680000000 1.0
C      1  0.4862430000000  0.5290800000000  0.6000230000000 1.0
C      1  0.4391030000000  0.4497450000000  0.4388160000000 1.0
C      1  0.3951110000000  0.5245890000000  0.4622640000000 1.0
C      1  0.5559410000000  0.4774620000000  0.5169280000000 1.0
C      1  0.4076460000000  0.4328920000000  0.4939850000000 1.0
C      1  0.5175290000000  0.4278770000000  0.4000600000000 1.0
C      1  0.5302870000000  0.4438850000000  0.5728930000000 1.0
C      1  0.4675710000000  0.5289600000000  0.3928080000000 1.0
C      1  0.4965970000000  0.5362280000000  0.3944320000000 1.0
C      1  0.4851880000000  0.5810630000000  0.4197940000000 1.0
C      1  0.4907830000000  0.4226440000000  0.4050620000000 1.0
C      1  0.4732800000000  0.5009660000000  0.3964960000000 1.0
C      1  0.4705770000000  0.5182120000000  0.4385920000000 1.0
C      1  0.6044510000000  0.4819580000000  0.4698920000000 1.0
C      1  0.4077540000000  0.5360410000000  0.4414240000000 1.0
C      1  0.6035560000000  0.5574260000000  0.4705920000000 1.0
C      1  0.4263790000000  0.5230030000000  0.4197030000000 1.0
C      1  0.5881810000000  0.4375900000000  0.4560390000000 1.0
C      1  0.4515000000000  0.5135900000000  0.4597870000000 1.0
C      1  0.6081880000000  0.5164960000000  0.5263760000000 1.0
C      1  0.5132050000000  0.4549130000000  0.5178940000000 1.0
C      1  0.5127230000000  0.3878530000000  0.4671270000000 1.0
C      1  0.5042480000000  0.5270400000000  0.5564070000000 1.0
C      1  0.4461430000000  0.5404970000000  0.4089700000000 1.0
C      1  0.4691500000000  0.4342630000000  0.5821030000000 1.0
C      1  0.4619020000000  0.4795480000000  0.5544780000000 1.0
C      1  0.4797730000000  0.5452530000000  0.4397550000000 1.0
C      1  0.5287800000000  0.4069820000000  0.5114400000000 1.0
C      1  0.5237680000000  0.4371050000000  0.4971140000000 1.0
C      1  0.5927890000000  0.4644570000000  0.4489080000000 1.0
C      1  0.4240480000000  0.4834070000000  0.4891180000000 1.0
C      1  0.5477840000000  0.4341880000000  0.4264990000000 1.0
C      1  0.4632970000000  0.4568720000000  0.4231400000000 1.0
C      1  0.4189030000000  0.5858380000000  0.5015510000000 1.0
C      1  0.5659010000000  0.5077290000000  0.5133520000000 1.0
C      1  0.5666760000000  0.5031130000000  0.4827360000000 1.0
C      1  0.5439530000000  0.4605730000000  0.4383270000000 1.0
C      1  0.4790000000000  0.4230120000000  0.5029950000000 1.0
C      1  0.4913120000000  0.5004370000000  0.4462600000000 1.0
C      1  0.5027160000000  0.4261110000000  0.4493870000000 1.0
C      1  0.4722350000000  0.3865010000000  0.5255080000000 1.0
C      1  0.4655090000000  0.5563220000000  0.5494450000000 1.0
C      1  0.5258450000000  0.4172920000000  0.4312290000000 1.0
C      1  0.5298350000000  0.5668950000000  0.4214210000000 1.0
C      1  0.5919470000000  0.4422850000000  0.5020110000000 1.0
C      1  0.5477840000000  0.5517480000000  0.5629020000000 1.0
C      1  0.4103810000000  0.4596180000000  0.5362470000000 1.0
C      1  0.5380400000000  0.6027820000000  0.5183530000000 1.0
C      1  0.5166390000000  0.4680250000000  0.4249190000000 1.0
C      1  0.5189920000000  0.4649770000000  0.5548050000000 1.0
C      1  0.5415370000000  0.4609490000000  0.4717340000000 1.0
C      1  0.4357600000000  0.6037880000000  0.4864480000000 1.0
C      1  0.5422630000000  0.5134370000000  0.4438390000000 1.0
C      1  0.4815160000000  0.4789510000000  0.6100660000000 1.0
C      1  0.5110300000000  0.6147910000000  0.4902650000000 1.0
C      1  0.4957060000000  0.4654580000000  0.4698940000000 1.0
C      1  0.5146670000000  0.4574190000000  0.3980070000000 1.0
C      1  0.4744840000000  0.4157360000000  0.4498630000000 1.0
C      1  0.4479420000000  0.4858350000000  0.4564030000000 1.0
C      1  0.4294790000000  0.4185240000000  0.4802930000000 1.0
C      1  0.4110480000000  0.5621290000000  0.4862780000000 1.0
C      1  0.4899470000000  0.5993140000000  0.4415470000000 1.0
C      1  0.5259040000000  0.5200520000000  0.4207390000000 1.0
C      1  0.5416890000000  0.5391630000000  0.4949590000000 1.0
C      1  0.4381110000000  0.4723380000000  0.5355690000000 1.0
C      1  0.4241840000000  0.4760630000000  0.4421400000000 1.0
C      1  0.5720520000000  0.4228210000000  0.4912440000000 1.0
C      1  0.5314580000000  0.5654610000000  0.4507060000000 1.0
C      1  0.4533240000000  0.5539740000000  0.4914820000000 1.0
C      1  0.5156700000000  0.3938300000000  0.4919640000000 1.0
C      1  0.5195360000000  0.4789700000000  0.4777540000000 1.0
C      1  0.5559230000000  0.5545790000000  0.4196770000000 1.0
C      1  0.5047330000000  0.5151450000000  0.4679810000000 1.0
C      1  0.4762520000000  0.5955520000000  0.5217290000000 1.0
C      1  0.4418120000000  0.3987710000000  0.4981780000000 1.0
C      1  0.4891620000000  0.5105320000000  0.5757880000000 1.0
C      1  0.4196680000000  0.4387960000000  0.5199320000000 1.0
C      1  0.4303140000000  0.4941330000000  0.4183710000000 1.0
C      1  0.5350930000000  0.4013250000000  0.4541180000000 1.0
C      1  0.4109330000000  0.5414040000000  0.5327140000000 1.0
C      1  0.5576640000000  0.5897520000000  0.5367780000000 1.0
C      1  0.5905810000000  0.4757990000000  0.5694280000000 1.0
C      1  0.5263490000000  0.5244140000000  0.5978980000000 1.0
C      1  0.5385490000000  0.5199890000000  0.4720940000000 1.0
C      1  0.4790350000000  0.5652640000000  0.5023550000000 1.0
C      1  0.4575800000000  0.5240720000000  0.6046380000000 1.0
C      1  0.5439210000000  0.4801060000000  0.5444740000000 1.0
C      1  0.5064600000000  0.4385740000000  0.4741930000000 1.0
C      1  0.5773380000000  0.4501140000000  0.5756450000000 1.0
C      1  0.5710390000000  0.4216230000000  0.4405920000000 1.0
C      1  0.4461970000000  0.3979120000000  0.5268250000000 1.0
C      1  0.5013780000000  0.5066900000000  0.5363160000000 1.0
C      1  0.5952190000000  0.4443400000000  0.5307730000000 1.0
C      1  0.5050040000000  0.4807790000000  0.5757750000000 1.0
C      1  0.4208370000000  0.4854500000000  0.5788680000000 1.0
C      1  0.5115170000000  0.5805020000000  0.5493970000000 1.0
C      1  0.5779930000000  0.5003210000000  0.5774700000000 1.0
C      1  0.4211520000000  0.5625450000000  0.5448930000000 1.0
C      1  0.4903910000000  0.5576240000000  0.5919270000000 1.0
C      1  0.4496230000000  0.4239520000000  0.5451840000000 1.0
C      1  0.5822610000000  0.5231020000000  0.5313860000000 1.0
C      1  0.4501080000000  0.5803800000000  0.4700560000000 1.0
C      1  0.5351180000000  0.4192880000000  0.5573110000000 1.0
C      1  0.4037460000000  0.4966420000000  0.5575100000000 1.0
C      1  0.4537660000000  0.5255660000000  0.5430560000000 1.0
C      1  0.6021140000000  0.4704220000000  0.5418300000000 1.0
C      1  0.4663270000000  0.4645910000000  0.5866050000000 1.0
C      1  0.5688640000000  0.5033490000000  0.4372390000000 1.0
C      1  0.6095070000000  0.5312580000000  0.4782540000000 1.0
C      1  0.5062380000000  0.5081630000000  0.4005870000000 1.0
C      1  0.4869980000000  0.5157030000000  0.4920220000000 1.0
C      1  0.5790390000000  0.5701360000000  0.5402680000000 1.0
C      1  0.5228500000000  0.4800930000000  0.5061770000000 1.0
C      1  0.5496650000000  0.5300640000000  0.4056520000000 1.0
C      1  0.4581970000000  0.5625350000000  0.4272300000000 1.0
C      1  0.4292130000000  0.5852310000000  0.5313280000000 1.0
C      1  0.4738580000000  0.4688340000000  0.4909910000000 1.0
C      1  0.6090790000000  0.5391120000000  0.5068010000000 1.0
C      1  0.5802410000000  0.4325910000000  0.5523110000000 1.0
C      1  0.5366140000000  0.5688120000000  0.5396310000000 1.0
C      1  0.4621930000000  0.5081250000000  0.5626890000000 1.0
C      1  0.4085330000000  0.5249780000000  0.5573870000000 1.0
C      1  0.5407450000000  0.5199990000000  0.5197630000000 1.0
C      1  0.4458850000000  0.5479750000000  0.5927560000000 1.0
C      1  0.5232800000000  0.4835420000000  0.3864580000000 1.0
C      1  0.5797750000000  0.5708860000000  0.4639010000000 1.0
C      1  0.5590790000000  0.5559050000000  0.4486520000000 1.0
C      1  0.5684290000000  0.5064570000000  0.4067060000000 1.0
C      1  0.5757270000000  0.5518920000000  0.5637280000000 1.0
C      1  0.4777620000000  0.4227310000000  0.5567640000000 1.0
C      1  0.4012060000000  0.4785620000000  0.4714030000000 1.0
C      1  0.4410150000000  0.4330300000000  0.5745230000000 1.0
C      1  0.5435080000000  0.5076210000000  0.5486010000000 1.0
C      1  0.6030130000000  0.4698210000000  0.4964990000000 1.0
C      1  0.3916050000000  0.4571800000000  0.4901300000000 1.0
C      1  0.5692130000000  0.4758950000000  0.4344330000000 1.0
C      1  0.5292270000000  0.5518770000000  0.6059310000000 1.0
C      1  0.4732370000000  0.3960750000000  0.4937570000000 1.0
C      1  0.5339380000000  0.4991600000000  0.6068530000000 1.0
C      1  0.4460930000000  0.5054920000000  0.5226590000000 1.0
C      1  0.5181610000000  0.4047470000000  0.5394430000000 1.0
C      1  0.4773350000000  0.5886220000000  0.4648330000000 1.0
C      1  0.4844080000000  0.4483320000000  0.5116800000000 1.0
C      1  0.4846540000000  0.3924910000000  0.4663330000000 1.0
C      1  0.5867920000000  0.5583710000000  0.5145020000000 1.0
C      1  0.4904260000000  0.3989340000000  0.5450130000000 1.0
C      1  0.5128060000000  0.6095420000000  0.4625610000000 1.0
C      1  0.4288270000000  0.5102680000000  0.4995650000000 1.0
C      1  0.3848750000000  0.5054620000000  0.4797460000000 1.0
C      1  0.4953840000000  0.5550690000000  0.5448310000000 1.0
C      1  0.5448420000000  0.5661140000000  0.5862590000000 1.0
END
