TITL C-2441154-10-728 0.0226280917639522 125000 -8210.35046117259 0 0 59 (C1) n - 1
REM
REM in /home/bkarasulu/work/CARBON/AIRSS/Generating-Clusters/ReaxFF-fromJPCA2015/Units_Real/with-SteepDescent/Higher-Symm
REM
REM
REM
REM
REM
REM ./C.cell (1df0a924f5614ab8850e4351716899ee)
REM
REM compiler GCC version 9.2.1 20190827 (Red Hat 9.2.1-1)
REM options -cpp -mtune=generic -march=x86-64 -g -O0 -fpre-include=/usr/include/finclude/math-vector-fortran.h
REM seed 547678807 433557995 993077563 426133822 1807491529 107732048 -1972497035 -1004909793 -1874051817 -675717237 -185453662 1960559786 -183947592 -21922742 972174866 -2015932987 -592045708 -1430217535 1092488090 2072061844 367019182 -1986363825 -1345006496 1027571416 -607400169 1767691390 2067807456 354165053 -1869172057 2031508128 937457545 -651011295 612653981
REM
CELL 1.54180   50.00000   50.00000   50.00000   90.00000   90.00000   90.00000
LATT -1
SFAC C  
C      1  0.4754100000000  0.4446460000000  0.5328470000000 1.0
C      1  0.4423540000000  0.5226950000000  0.4726720000000 1.0
C      1  0.4732180000000  0.5043970000000  0.5654420000000 1.0
C      1  0.4975150000000  0.5175590000000  0.4299760000000 1.0
C      1  0.5350580000000  0.4350260000000  0.4900910000000 1.0
C      1  0.4971190000000  0.5534780000000  0.5440960000000 1.0
C      1  0.5430480000000  0.5507570000000  0.5346010000000 1.0
C      1  0.5548550000000  0.5266900000000  0.4934560000000 1.0
C      1  0.4331930000000  0.4971410000000  0.5134370000000 1.0
C      1  0.4579190000000  0.5255490000000  0.5506990000000 1.0
C      1  0.5174120000000  0.5639450000000  0.5271110000000 1.0
C      1  0.5096100000000  0.5269830000000  0.5502770000000 1.0
C      1  0.5107500000000  0.4577980000000  0.4286750000000 1.0
C      1  0.5280320000000  0.4877340000000  0.4526150000000 1.0
C      1  0.5341650000000  0.4683110000000  0.4333200000000 1.0
C      1  0.5232340000000  0.5180720000000  0.4485590000000 1.0
C      1  0.5592750000000  0.4789260000000  0.5129610000000 1.0
C      1  0.4907550000000  0.4351140000000  0.5129480000000 1.0
C      1  0.4739490000000  0.4400790000000  0.4875670000000 1.0
C      1  0.5015030000000  0.4833450000000  0.5237950000000 1.0
C      1  0.5333410000000  0.4805110000000  0.4814230000000 1.0
C      1  0.5483850000000  0.5058020000000  0.5572580000000 1.0
C      1  0.5125220000000  0.4370310000000  0.4727130000000 1.0
C      1  0.5062660000000  0.5695770000000  0.5000500000000 1.0
C      1  0.4788830000000  0.5669170000000  0.4864270000000 1.0
C      1  0.5514020000000  0.4992150000000  0.4927120000000 1.0
C      1  0.5048560000000  0.5104920000000  0.5215810000000 1.0
C      1  0.4741540000000  0.5317120000000  0.4405090000000 1.0
C      1  0.4672450000000  0.5327690000000  0.5091180000000 1.0
C      1  0.5518920000000  0.4590950000000  0.4899520000000 1.0
C      1  0.5025760000000  0.4778730000000  0.4949610000000 1.0
C      1  0.5014590000000  0.5060020000000  0.5707820000000 1.0
C      1  0.5247330000000  0.4896500000000  0.5664470000000 1.0
C      1  0.5377960000000  0.4590460000000  0.5290240000000 1.0
C      1  0.4390550000000  0.5049830000000  0.5410370000000 1.0
C      1  0.5174430000000  0.4696520000000  0.5463970000000 1.0
C      1  0.4385460000000  0.4772630000000  0.4769470000000 1.0
C      1  0.4836840000000  0.4642870000000  0.4359060000000 1.0
C      1  0.4541990000000  0.4594150000000  0.5426780000000 1.0
C      1  0.4835620000000  0.5508390000000  0.4618300000000 1.0
C      1  0.5235160000000  0.5600410000000  0.4787200000000 1.0
C      1  0.4879660000000  0.4437930000000  0.4622970000000 1.0
C      1  0.5377530000000  0.5326860000000  0.5559400000000 1.0
C      1  0.4876460000000  0.4917440000000  0.4296760000000 1.0
C      1  0.5216650000000  0.4389140000000  0.5163490000000 1.0
C      1  0.4404680000000  0.5239850000000  0.5002850000000 1.0
C      1  0.5078160000000  0.5358740000000  0.4718830000000 1.0
C      1  0.5599340000000  0.5306040000000  0.5209290000000 1.0
C      1  0.4821940000000  0.4917460000000  0.4809930000000 1.0
C      1  0.4707550000000  0.5464280000000  0.5342370000000 1.0
C      1  0.5507640000000  0.5332150000000  0.4486110000000 1.0
C      1  0.4602810000000  0.4862330000000  0.4612580000000 1.0
C      1  0.4476050000000  0.4546610000000  0.4909640000000 1.0
C      1  0.4523130000000  0.4848240000000  0.5580620000000 1.0
C      1  0.5613240000000  0.5037500000000  0.5316570000000 1.0
C      1  0.4907370000000  0.5185600000000  0.4967240000000 1.0
C      1  0.4518580000000  0.5136990000000  0.4488090000000 1.0
C      1  0.4445470000000  0.4705060000000  0.5162110000000 1.0
C      1  0.5504840000000  0.5483580000000  0.4734990000000 1.0
END
