TITL C-2441169-1362-1066 0.071920883247227 125000 -18214.0249088652 0 0 134 (C1) n - 1
REM
REM in /home/bkarasulu/work/CARBON/AIRSS/Generating-Clusters/ReaxFF-fromJPCA2015/Units_Real/with-SteepDescent/Higher-Symm
REM
REM
REM
REM
REM
REM ./C.cell (1df0a924f5614ab8850e4351716899ee)
REM
REM compiler GCC version 9.2.1 20190827 (Red Hat 9.2.1-1)
REM options -cpp -mtune=generic -march=x86-64 -g -O0 -fpre-include=/usr/include/finclude/math-vector-fortran.h
REM seed 144797734 1772597147 -1788053485 -1463597481 1545891719 -474972486 1459317248 53213963 301465504 597550512 527826737 -603560880 -1125738443 594441315 -1580902290 797671852 11821084 -1274950111 -1157085251 2079013411 -752488671 453364730 29253357 -1551876777 598379360 -462675880 402927773 436106364 -1957199893 -613151730 -2031447546 644331331 2100195738
REM
CELL 1.54180   50.00000   50.00000   50.00000   90.00000   90.00000   90.00000
LATT -1
SFAC C  
C      1  0.4920300000000  0.5316500000000  0.4170230000000 1.0
C      1  0.4934810000000  0.4508970000000  0.4238400000000 1.0
C      1  0.4821030000000  0.3991330000000  0.4880420000000 1.0
C      1  0.4850640000000  0.4297520000000  0.5661810000000 1.0
C      1  0.4831270000000  0.5097780000000  0.5994950000000 1.0
C      1  0.4841310000000  0.5808950000000  0.5547690000000 1.0
C      1  0.4806590000000  0.5913890000000  0.4696340000000 1.0
C      1  0.5087040000000  0.5201470000000  0.5914670000000 1.0
C      1  0.5083820000000  0.5850230000000  0.5374560000000 1.0
C      1  0.5086330000000  0.5852250000000  0.4635700000000 1.0
C      1  0.5175500000000  0.5193420000000  0.4170760000000 1.0
C      1  0.5180330000000  0.4388900000000  0.4341960000000 1.0
C      1  0.5089380000000  0.4028610000000  0.5004730000000 1.0
C      1  0.5096280000000  0.4450640000000  0.5699290000000 1.0
C      1  0.5132350000000  0.4258420000000  0.4601340000000 1.0
C      1  0.5118670000000  0.4159860000000  0.5264210000000 1.0
C      1  0.5077800000000  0.4709070000000  0.5797620000000 1.0
C      1  0.5110610000000  0.5430850000000  0.5753420000000 1.0
C      1  0.5072260000000  0.5879520000000  0.5088720000000 1.0
C      1  0.5129430000000  0.5677690000000  0.4408820000000 1.0
C      1  0.5127100000000  0.4913890000000  0.4109030000000 1.0
C      1  0.4274400000000  0.5288460000000  0.5524140000000 1.0
C      1  0.4306270000000  0.5643270000000  0.5118010000000 1.0
C      1  0.4191070000000  0.5465520000000  0.4666620000000 1.0
C      1  0.4152110000000  0.5029770000000  0.4427430000000 1.0
C      1  0.4325330000000  0.4455460000000  0.4705090000000 1.0
C      1  0.4263170000000  0.4425580000000  0.5194050000000 1.0
C      1  0.4295260000000  0.4768860000000  0.5603500000000 1.0
C      1  0.4134000000000  0.4654350000000  0.5095450000000 1.0
C      1  0.4200770000000  0.4875330000000  0.5316790000000 1.0
C      1  0.4134240000000  0.5163380000000  0.5320500000000 1.0
C      1  0.4189070000000  0.5318030000000  0.5084690000000 1.0
C      1  0.4095110000000  0.5239430000000  0.4816860000000 1.0
C      1  0.4108250000000  0.4973720000000  0.4710800000000 1.0
C      1  0.4178710000000  0.4698880000000  0.4811630000000 1.0
C      1  0.5799120000000  0.4922860000000  0.4468320000000 1.0
C      1  0.5626140000000  0.4640300000000  0.4743760000000 1.0
C      1  0.5620040000000  0.4625660000000  0.5185420000000 1.0
C      1  0.5711250000000  0.4944140000000  0.5445280000000 1.0
C      1  0.5706040000000  0.5214390000000  0.5358000000000 1.0
C      1  0.5656730000000  0.5421490000000  0.4993260000000 1.0
C      1  0.5658040000000  0.5275150000000  0.4738020000000 1.0
C      1  0.4352230000000  0.4275830000000  0.4937520000000 1.0
C      1  0.4353170000000  0.4491880000000  0.5479670000000 1.0
C      1  0.4355840000000  0.5061380000000  0.5700910000000 1.0
C      1  0.4352350000000  0.5572870000000  0.5410150000000 1.0
C      1  0.4341790000000  0.5681470000000  0.4811330000000 1.0
C      1  0.4255550000000  0.5317960000000  0.4423340000000 1.0
C      1  0.4286440000000  0.4800340000000  0.4344020000000 1.0
C      1  0.5873370000000  0.4741920000000  0.4848430000000 1.0
C      1  0.5879650000000  0.4666140000000  0.5127730000000 1.0
C      1  0.5959060000000  0.4886310000000  0.5308400000000 1.0
C      1  0.5980380000000  0.5170540000000  0.5249800000000 1.0
C      1  0.5940380000000  0.5340760000000  0.5020870000000 1.0
C      1  0.5942740000000  0.5267730000000  0.4743940000000 1.0
C      1  0.5954410000000  0.4971080000000  0.4686700000000 1.0
C      1  0.5031560000000  0.5128350000000  0.5446350000000 1.0
C      1  0.5051400000000  0.5444700000000  0.5107210000000 1.0
C      1  0.4984350000000  0.5331470000000  0.4844410000000 1.0
C      1  0.4949470000000  0.4969820000000  0.4603780000000 1.0
C      1  0.4850730000000  0.4700430000000  0.4664230000000 1.0
C      1  0.4873480000000  0.4635700000000  0.5021730000000 1.0
C      1  0.4974250000000  0.4713480000000  0.5274030000000 1.0
C      1  0.4631010000000  0.4681390000000  0.5697800000000 1.0
C      1  0.4660890000000  0.5327890000000  0.5681060000000 1.0
C      1  0.4644250000000  0.5703080000000  0.5159470000000 1.0
C      1  0.4664930000000  0.5582860000000  0.4453650000000 1.0
C      1  0.4648130000000  0.4880780000000  0.4145430000000 1.0
C      1  0.4490750000000  0.4455670000000  0.4464040000000 1.0
C      1  0.4671720000000  0.4245080000000  0.5187240000000 1.0
C      1  0.5472950000000  0.5099650000000  0.5818700000000 1.0
C      1  0.5354750000000  0.5748680000000  0.5403610000000 1.0
C      1  0.5499590000000  0.5788920000000  0.4715900000000 1.0
C      1  0.5450950000000  0.5271960000000  0.4245840000000 1.0
C      1  0.5468730000000  0.4461000000000  0.4310690000000 1.0
C      1  0.5508120000000  0.4184400000000  0.4967790000000 1.0
C      1  0.5439580000000  0.4448650000000  0.5609930000000 1.0
C      1  0.5286040000000  0.4093180000000  0.4796160000000 1.0
C      1  0.5330950000000  0.4203040000000  0.5463960000000 1.0
C      1  0.5297910000000  0.4875190000000  0.5903720000000 1.0
C      1  0.5337000000000  0.5605370000000  0.5687050000000 1.0
C      1  0.5281850000000  0.5921910000000  0.4880120000000 1.0
C      1  0.5353890000000  0.5554310000000  0.4263460000000 1.0
C      1  0.5360830000000  0.4758540000000  0.4086760000000 1.0
C      1  0.4861490000000  0.4238690000000  0.4724240000000 1.0
C      1  0.4875460000000  0.4212680000000  0.5386820000000 1.0
C      1  0.4828490000000  0.4847400000000  0.5831920000000 1.0
C      1  0.4861760000000  0.5521290000000  0.5617870000000 1.0
C      1  0.4821830000000  0.5827760000000  0.4971240000000 1.0
C      1  0.4899340000000  0.5566920000000  0.4295290000000 1.0
C      1  0.4894090000000  0.4755740000000  0.4111990000000 1.0
C      1  0.5645830000000  0.4447210000000  0.5377240000000 1.0
C      1  0.5649630000000  0.4911190000000  0.5708080000000 1.0
C      1  0.5631700000000  0.5452770000000  0.5485480000000 1.0
C      1  0.5653310000000  0.5720800000000  0.4955210000000 1.0
C      1  0.5661270000000  0.5364460000000  0.4463460000000 1.0
C      1  0.5691600000000  0.4740840000000  0.4303500000000 1.0
C      1  0.5655230000000  0.4341190000000  0.4769670000000 1.0
C      1  0.4774840000000  0.4506240000000  0.4469200000000 1.0
C      1  0.4815180000000  0.4374980000000  0.4976760000000 1.0
C      1  0.4796880000000  0.4679430000000  0.5468370000000 1.0
C      1  0.4794520000000  0.5091440000000  0.5577250000000 1.0
C      1  0.4836490000000  0.5501410000000  0.5277310000000 1.0
C      1  0.4771440000000  0.5504140000000  0.4736940000000 1.0
C      1  0.4668080000000  0.5169870000000  0.4177360000000 1.0
C      1  0.5259490000000  0.5268860000000  0.4804280000000 1.0
C      1  0.5220750000000  0.5007060000000  0.4692980000000 1.0
C      1  0.5367190000000  0.4772260000000  0.4787180000000 1.0
C      1  0.5388700000000  0.4707300000000  0.5064560000000 1.0
C      1  0.5229090000000  0.4823800000000  0.5263970000000 1.0
C      1  0.5264780000000  0.5110480000000  0.5310670000000 1.0
C      1  0.5317590000000  0.5323090000000  0.5092550000000 1.0
C      1  0.5533190000000  0.5395640000000  0.5738180000000 1.0
C      1  0.5475690000000  0.5832390000000  0.5149090000000 1.0
C      1  0.5539150000000  0.5623920000000  0.4468350000000 1.0
C      1  0.5555820000000  0.4948600000000  0.4147870000000 1.0
C      1  0.5538180000000  0.4283320000000  0.4516180000000 1.0
C      1  0.5535270000000  0.4206120000000  0.5257050000000 1.0
C      1  0.5498300000000  0.4685590000000  0.5788180000000 1.0
C      1  0.4496730000000  0.4874090000000  0.5247260000000 1.0
C      1  0.4654440000000  0.5112430000000  0.5194000000000 1.0
C      1  0.4471670000000  0.5263100000000  0.5035920000000 1.0
C      1  0.4579640000000  0.5302540000000  0.4783130000000 1.0
C      1  0.4671580000000  0.5065610000000  0.4646260000000 1.0
C      1  0.4576850000000  0.4806380000000  0.4751500000000 1.0
C      1  0.4589500000000  0.4721240000000  0.5032700000000 1.0
C      1  0.4504550000000  0.5365400000000  0.4308420000000 1.0
C      1  0.4468230000000  0.4645450000000  0.4231530000000 1.0
C      1  0.4559530000000  0.4067790000000  0.4992140000000 1.0
C      1  0.4566950000000  0.4390100000000  0.5657670000000 1.0
C      1  0.4552230000000  0.5175750000000  0.5900900000000 1.0
C      1  0.4566070000000  0.5776520000000  0.5449480000000 1.0
C      1  0.4534280000000  0.5817750000000  0.4634350000000 1.0
C      1  0.4878380000000  0.5059900000000  0.5000340000000 1.0
END
