TITL C-2441157-2117-1235 0.0453876655062427 125000 -20617.1095096798 0 0 147 (C1) n - 1
REM
REM in /home/bkarasulu/work/CARBON/AIRSS/Generating-Clusters/ReaxFF-fromJPCA2015/Units_Real/with-SteepDescent/Higher-Symm
REM
REM
REM
REM
REM
REM ./C.cell (1df0a924f5614ab8850e4351716899ee)
REM
REM compiler GCC version 9.2.1 20190827 (Red Hat 9.2.1-1)
REM options -cpp -mtune=generic -march=x86-64 -g -O0 -fpre-include=/usr/include/finclude/math-vector-fortran.h
REM seed 1489784071 439777671 -1068647346 65289426 1210785937 -847223868 -2010949950 -353476476 1813612822 -1012217744 -825967740 -472904272 1298118536 -879047389 -1753435568 1653983480 -1501464648 1772552135 -953185064 1088425693 1656172644 -382267694 -1619301231 1443593384 1064318593 -255601923 889075617 -1543088303 -171007461 -1219250373 1967928246 216401317 -1597176127
REM
CELL 1.54180   50.00000   50.00000   50.00000   90.00000   90.00000   90.00000
LATT -1
SFAC C  
C      1  0.5176010000000  0.5277210000000  0.5917880000000 1.0
C      1  0.5927720000000  0.5263200000000  0.5132520000000 1.0
C      1  0.5413770000000  0.5269260000000  0.4127030000000 1.0
C      1  0.4304460000000  0.5288690000000  0.4356440000000 1.0
C      1  0.4163610000000  0.5272470000000  0.5431210000000 1.0
C      1  0.4891670000000  0.4841750000000  0.5970760000000 1.0
C      1  0.5898150000000  0.4826070000000  0.5402390000000 1.0
C      1  0.5625880000000  0.4804970000000  0.4268480000000 1.0
C      1  0.4509980000000  0.4840350000000  0.4155870000000 1.0
C      1  0.4034590000000  0.4827870000000  0.5199080000000 1.0
C      1  0.5430050000000  0.4695890000000  0.5332050000000 1.0
C      1  0.5325260000000  0.4751210000000  0.4712750000000 1.0
C      1  0.4838480000000  0.4744850000000  0.4631600000000 1.0
C      1  0.4552560000000  0.4737050000000  0.4987140000000 1.0
C      1  0.4821740000000  0.4667880000000  0.5441470000000 1.0
C      1  0.5910530000000  0.4565580000000  0.4923200000000 1.0
C      1  0.5229200000000  0.4549620000000  0.4116610000000 1.0
C      1  0.4225460000000  0.4602030000000  0.4526370000000 1.0
C      1  0.4295110000000  0.4591850000000  0.5584980000000 1.0
C      1  0.5332860000000  0.4607730000000  0.5847720000000 1.0
C      1  0.4609480000000  0.4353010000000  0.5673150000000 1.0
C      1  0.5438490000000  0.4273060000000  0.5497390000000 1.0
C      1  0.5708760000000  0.4450430000000  0.4727440000000 1.0
C      1  0.4973130000000  0.4428610000000  0.4234580000000 1.0
C      1  0.4278190000000  0.4360340000000  0.4852540000000 1.0
C      1  0.5012040000000  0.4167950000000  0.4670770000000 1.0
C      1  0.4606930000000  0.4127110000000  0.4815920000000 1.0
C      1  0.4781190000000  0.4079030000000  0.5284800000000 1.0
C      1  0.5172930000000  0.4150310000000  0.5413910000000 1.0
C      1  0.5398890000000  0.4121220000000  0.4867430000000 1.0
C      1  0.5931360000000  0.5288690000000  0.4833600000000 1.0
C      1  0.5127560000000  0.5282780000000  0.4034100000000 1.0
C      1  0.4133570000000  0.5317380000000  0.4618830000000 1.0
C      1  0.4330270000000  0.5291120000000  0.5675400000000 1.0
C      1  0.5466490000000  0.5295930000000  0.5812150000000 1.0
C      1  0.4973800000000  0.4664740000000  0.4397960000000 1.0
C      1  0.4294540000000  0.4632140000000  0.4801420000000 1.0
C      1  0.4581930000000  0.4619120000000  0.5614490000000 1.0
C      1  0.5466600000000  0.4553080000000  0.5592250000000 1.0
C      1  0.5623860000000  0.4725280000000  0.4683850000000 1.0
C      1  0.4537450000000  0.4131460000000  0.5096940000000 1.0
C      1  0.4911710000000  0.4096410000000  0.5561570000000 1.0
C      1  0.5497960000000  0.4146440000000  0.5112910000000 1.0
C      1  0.5303510000000  0.4151060000000  0.4608960000000 1.0
C      1  0.4739680000000  0.4152200000000  0.4557030000000 1.0
C      1  0.5380870000000  0.5752130000000  0.4852240000000 1.0
C      1  0.4965480000000  0.5742930000000  0.4625390000000 1.0
C      1  0.4637790000000  0.5758120000000  0.4939620000000 1.0
C      1  0.4784330000000  0.5763640000000  0.5359170000000 1.0
C      1  0.5300390000000  0.5800480000000  0.5288810000000 1.0
C      1  0.4968300000000  0.5212000000000  0.5465750000000 1.0
C      1  0.5469200000000  0.5167530000000  0.5159930000000 1.0
C      1  0.5294850000000  0.5204690000000  0.4581740000000 1.0
C      1  0.4752720000000  0.5214550000000  0.4613360000000 1.0
C      1  0.4558550000000  0.5207250000000  0.5116640000000 1.0
C      1  0.5620620000000  0.5756670000000  0.4995260000000 1.0
C      1  0.5162900000000  0.5737700000000  0.4419430000000 1.0
C      1  0.4404440000000  0.5638840000000  0.4590690000000 1.0
C      1  0.4495810000000  0.5746120000000  0.5350300000000 1.0
C      1  0.5182250000000  0.5716630000000  0.5670410000000 1.0
C      1  0.4752310000000  0.4983420000000  0.4099920000000 1.0
C      1  0.4047780000000  0.4977070000000  0.4957900000000 1.0
C      1  0.4667790000000  0.4985650000000  0.5862830000000 1.0
C      1  0.5715600000000  0.4971270000000  0.5569840000000 1.0
C      1  0.5756290000000  0.4942250000000  0.4512490000000 1.0
C      1  0.5060930000000  0.4772990000000  0.5564180000000 1.0
C      1  0.5599910000000  0.4756730000000  0.5110760000000 1.0
C      1  0.5208470000000  0.4794510000000  0.4432410000000 1.0
C      1  0.4579460000000  0.4790400000000  0.4563160000000 1.0
C      1  0.4462250000000  0.4786470000000  0.5258540000000 1.0
C      1  0.4951050000000  0.4444000000000  0.4789050000000 1.0
C      1  0.4740000000000  0.4514140000000  0.4984890000000 1.0
C      1  0.4849690000000  0.4471920000000  0.5226840000000 1.0
C      1  0.5229480000000  0.4575850000000  0.5150800000000 1.0
C      1  0.5217200000000  0.4529470000000  0.4869470000000 1.0
C      1  0.4867880000000  0.4320790000000  0.5747770000000 1.0
C      1  0.5639940000000  0.4301200000000  0.5291620000000 1.0
C      1  0.5510080000000  0.4354340000000  0.4527550000000 1.0
C      1  0.4710070000000  0.4360640000000  0.4341520000000 1.0
C      1  0.4309520000000  0.4322250000000  0.5123480000000 1.0
C      1  0.4201780000000  0.4854950000000  0.5664500000000 1.0
C      1  0.5388400000000  0.4865520000000  0.5962570000000 1.0
C      1  0.6022550000000  0.4837360000000  0.4921290000000 1.0
C      1  0.5238380000000  0.4817680000000  0.4003930000000 1.0
C      1  0.4118640000000  0.4864090000000  0.4456820000000 1.0
C      1  0.4601970000000  0.5667890000000  0.4380590000000 1.0
C      1  0.4295120000000  0.5682320000000  0.5154950000000 1.0
C      1  0.4919790000000  0.5690180000000  0.5750690000000 1.0
C      1  0.5688280000000  0.5660770000000  0.5244740000000 1.0
C      1  0.5448070000000  0.5665290000000  0.4442900000000 1.0
C      1  0.5192210000000  0.5479540000000  0.4920760000000 1.0
C      1  0.4917960000000  0.5470320000000  0.4774680000000 1.0
C      1  0.4745050000000  0.5485030000000  0.5019710000000 1.0
C      1  0.4913790000000  0.5489230000000  0.5275000000000 1.0
C      1  0.5177850000000  0.5568080000000  0.5196470000000 1.0
C      1  0.4519680000000  0.5442060000000  0.4261750000000 1.0
C      1  0.4148740000000  0.5437170000000  0.5180430000000 1.0
C      1  0.4953770000000  0.5443120000000  0.5867610000000 1.0
C      1  0.5796200000000  0.5433700000000  0.5339500000000 1.0
C      1  0.5530060000000  0.5443310000000  0.4314100000000 1.0
C      1  0.4495200000000  0.4584730000000  0.4345680000000 1.0
C      1  0.4233310000000  0.4589250000000  0.5289420000000 1.0
C      1  0.5031540000000  0.4597510000000  0.5826840000000 1.0
C      1  0.5812710000000  0.4572740000000  0.5209890000000 1.0
C      1  0.5477070000000  0.4543150000000  0.4288280000000 1.0
C      1  0.5172940000000  0.6017080000000  0.5180470000000 1.0
C      1  0.5229440000000  0.6005510000000  0.4901990000000 1.0
C      1  0.4978170000000  0.5998370000000  0.4765070000000 1.0
C      1  0.4774680000000  0.6015130000000  0.4969060000000 1.0
C      1  0.4898670000000  0.6009820000000  0.5228320000000 1.0
C      1  0.5594240000000  0.5035920000000  0.5832340000000 1.0
C      1  0.5979290000000  0.5029180000000  0.4712140000000 1.0
C      1  0.5017160000000  0.5015160000000  0.3975260000000 1.0
C      1  0.4025370000000  0.5045210000000  0.4673190000000 1.0
C      1  0.4380920000000  0.5031300000000  0.5813360000000 1.0
C      1  0.5225140000000  0.5197290000000  0.5023590000000 1.0
C      1  0.5176500000000  0.5043310000000  0.4801900000000 1.0
C      1  0.4895380000000  0.5005080000000  0.4769260000000 1.0
C      1  0.4755950000000  0.5013970000000  0.5012430000000 1.0
C      1  0.4985880000000  0.5052680000000  0.5185690000000 1.0
C      1  0.5131850000000  0.5000830000000  0.6013260000000 1.0
C      1  0.6001610000000  0.4985570000000  0.5186700000000 1.0
C      1  0.5475360000000  0.4971300000000  0.4096970000000 1.0
C      1  0.4292830000000  0.5000240000000  0.4264890000000 1.0
C      1  0.4074220000000  0.4994730000000  0.5435960000000 1.0
C      1  0.5466140000000  0.5114270000000  0.5444700000000 1.0
C      1  0.5574830000000  0.5166640000000  0.4669020000000 1.0
C      1  0.4865820000000  0.5169140000000  0.4329970000000 1.0
C      1  0.4342840000000  0.5122870000000  0.4910160000000 1.0
C      1  0.4705370000000  0.5153150000000  0.5595900000000 1.0
C      1  0.5139640000000  0.5062310000000  0.4393900000000 1.0
C      1  0.4504720000000  0.5052310000000  0.4654110000000 1.0
C      1  0.4530220000000  0.5043930000000  0.5359090000000 1.0
C      1  0.5186370000000  0.5032760000000  0.5534210000000 1.0
C      1  0.5605710000000  0.5012600000000  0.4971490000000 1.0
C      1  0.4205850000000  0.5374410000000  0.4895050000000 1.0
C      1  0.4585580000000  0.5420860000000  0.5695580000000 1.0
C      1  0.5557720000000  0.5431660000000  0.5568440000000 1.0
C      1  0.5731720000000  0.5418110000000  0.4660630000000 1.0
C      1  0.4916820000000  0.5426530000000  0.4169810000000 1.0
C      1  0.4361850000000  0.5751930000000  0.4851420000000 1.0
C      1  0.4608650000000  0.5695790000000  0.5611170000000 1.0
C      1  0.5429310000000  0.5734720000000  0.5544650000000 1.0
C      1  0.5641530000000  0.5695560000000  0.4698170000000 1.0
C      1  0.4919750000000  0.5687680000000  0.4281940000000 1.0
C      1  0.5008810000000  0.4226130000000  0.5183120000000 1.0
C      1  0.5081620000000  0.4794320000000  0.5147490000000 1.0
END
