TITL C-2441167-4473-1286 0.0597368771893 125000 -27927.0552266426 0 0 200 (C1) n - 1
REM
REM in /home/bkarasulu/work/CARBON/AIRSS/Generating-Clusters/ReaxFF-fromJPCA2015/Units_Real/with-SteepDescent/Higher-Symm
REM
REM
REM
REM
REM
REM ./C.cell (1df0a924f5614ab8850e4351716899ee)
REM
REM compiler GCC version 9.2.1 20190827 (Red Hat 9.2.1-1)
REM options -cpp -mtune=generic -march=x86-64 -g -O0 -fpre-include=/usr/include/finclude/math-vector-fortran.h
REM seed 1389583316 -1118810740 1414494845 -1482268286 -929135964 -235593112 -1454080310 -1252323565 1608422906 -864915766 929874434 -1234503849 369921817 -331371455 1949180822 1782714795 1834502240 1907776675 1847060116 -1483516463 1287232531 -394746095 1511894868 -1714917522 -995697094 549496737 -413091861 1051835699 -1039273391 352014465 -1660143901 1218285166 935006189
REM
CELL 1.54180   50.00000   50.00000   50.00000   90.00000   90.00000   90.00000
LATT -1
SFAC C  
C      1  0.3967390000000  0.4650640000000  0.5276740000000 1.0
C      1  0.4438440000000  0.4669740000000  0.5909400000000 1.0
C      1  0.5079630000000  0.4585550000000  0.6008640000000 1.0
C      1  0.5824250000000  0.4621750000000  0.5638860000000 1.0
C      1  0.6106350000000  0.4653600000000  0.5074470000000 1.0
C      1  0.5829100000000  0.4674700000000  0.4329990000000 1.0
C      1  0.5300690000000  0.4573720000000  0.4033980000000 1.0
C      1  0.4513410000000  0.4675310000000  0.4108310000000 1.0
C      1  0.3963240000000  0.4696710000000  0.4601310000000 1.0
C      1  0.5715260000000  0.4550140000000  0.5374780000000 1.0
C      1  0.5652410000000  0.4531610000000  0.4836130000000 1.0
C      1  0.5554950000000  0.4576500000000  0.4370780000000 1.0
C      1  0.5048810000000  0.4551110000000  0.4222170000000 1.0
C      1  0.4539740000000  0.4590090000000  0.4402300000000 1.0
C      1  0.4126920000000  0.4556040000000  0.4834010000000 1.0
C      1  0.4443290000000  0.4564980000000  0.5361730000000 1.0
C      1  0.4679100000000  0.4537270000000  0.5800170000000 1.0
C      1  0.5138760000000  0.4617520000000  0.5702700000000 1.0
C      1  0.5692810000000  0.5789120000000  0.4638360000000 1.0
C      1  0.5347390000000  0.5775810000000  0.4225070000000 1.0
C      1  0.4785240000000  0.5817030000000  0.4194800000000 1.0
C      1  0.4377770000000  0.5854610000000  0.4506390000000 1.0
C      1  0.4201820000000  0.5818550000000  0.5044390000000 1.0
C      1  0.4462280000000  0.5778750000000  0.5526670000000 1.0
C      1  0.4928910000000  0.5770700000000  0.5811350000000 1.0
C      1  0.5464480000000  0.5783380000000  0.5653390000000 1.0
C      1  0.5743870000000  0.5827740000000  0.5191600000000 1.0
C      1  0.4207620000000  0.4175190000000  0.5085150000000 1.0
C      1  0.4441740000000  0.4131350000000  0.5565890000000 1.0
C      1  0.4952750000000  0.4155780000000  0.5800380000000 1.0
C      1  0.5487510000000  0.4234800000000  0.5654390000000 1.0
C      1  0.5791230000000  0.4187500000000  0.5179850000000 1.0
C      1  0.5742010000000  0.4133350000000  0.4649980000000 1.0
C      1  0.5333400000000  0.4119140000000  0.4274170000000 1.0
C      1  0.4791050000000  0.4158280000000  0.4200150000000 1.0
C      1  0.4338510000000  0.4176880000000  0.4530440000000 1.0
C      1  0.4903840000000  0.4797340000000  0.5368120000000 1.0
C      1  0.5186430000000  0.4932730000000  0.5361600000000 1.0
C      1  0.5355400000000  0.4793860000000  0.5172380000000 1.0
C      1  0.5370130000000  0.4913610000000  0.4873920000000 1.0
C      1  0.5187660000000  0.4765870000000  0.4687320000000 1.0
C      1  0.4927690000000  0.4856150000000  0.4587220000000 1.0
C      1  0.4678350000000  0.4929510000000  0.4726410000000 1.0
C      1  0.4624180000000  0.4785550000000  0.4968160000000 1.0
C      1  0.4691320000000  0.4930660000000  0.5242120000000 1.0
C      1  0.4207020000000  0.5087350000000  0.5836230000000 1.0
C      1  0.4792630000000  0.5238470000000  0.6260910000000 1.0
C      1  0.5580690000000  0.5181220000000  0.5962310000000 1.0
C      1  0.6223060000000  0.5176970000000  0.5426870000000 1.0
C      1  0.6052900000000  0.5112000000000  0.4564490000000 1.0
C      1  0.5582560000000  0.5252840000000  0.3921710000000 1.0
C      1  0.4756970000000  0.5213250000000  0.3941140000000 1.0
C      1  0.4027490000000  0.5149260000000  0.4288460000000 1.0
C      1  0.3728870000000  0.5277050000000  0.5065260000000 1.0
C      1  0.5010240000000  0.6000000000000  0.4644050000000 1.0
C      1  0.4751640000000  0.6015850000000  0.4692400000000 1.0
C      1  0.4606220000000  0.6011050000000  0.4946570000000 1.0
C      1  0.4615780000000  0.6054680000000  0.5213340000000 1.0
C      1  0.4852970000000  0.6005390000000  0.5391230000000 1.0
C      1  0.5065870000000  0.5879830000000  0.5231270000000 1.0
C      1  0.5336300000000  0.6006840000000  0.5213940000000 1.0
C      1  0.5427390000000  0.6025540000000  0.4939010000000 1.0
C      1  0.5275790000000  0.5998950000000  0.4672260000000 1.0
C      1  0.4556210000000  0.5163140000000  0.6104360000000 1.0
C      1  0.5342380000000  0.5245790000000  0.6086400000000 1.0
C      1  0.5991080000000  0.5157400000000  0.5582210000000 1.0
C      1  0.6109110000000  0.5110980000000  0.4833820000000 1.0
C      1  0.5767050000000  0.5166960000000  0.4131340000000 1.0
C      1  0.5017670000000  0.5172290000000  0.3841030000000 1.0
C      1  0.4271720000000  0.5135100000000  0.4139770000000 1.0
C      1  0.3823670000000  0.5192320000000  0.4795820000000 1.0
C      1  0.4037850000000  0.5088980000000  0.5594930000000 1.0
C      1  0.5653710000000  0.5340300000000  0.4351520000000 1.0
C      1  0.5151980000000  0.5459320000000  0.4026380000000 1.0
C      1  0.4452600000000  0.5390250000000  0.4277130000000 1.0
C      1  0.4062600000000  0.5377050000000  0.4827180000000 1.0
C      1  0.4210490000000  0.5328080000000  0.5428400000000 1.0
C      1  0.4612600000000  0.5384090000000  0.5903360000000 1.0
C      1  0.5171220000000  0.5463990000000  0.5973250000000 1.0
C      1  0.5757360000000  0.5385040000000  0.5461990000000 1.0
C      1  0.5913520000000  0.5338420000000  0.4876250000000 1.0
C      1  0.6107470000000  0.4868050000000  0.5304070000000 1.0
C      1  0.6010430000000  0.4634300000000  0.4565890000000 1.0
C      1  0.5472030000000  0.4808720000000  0.3987640000000 1.0
C      1  0.4745030000000  0.4660410000000  0.3915700000000 1.0
C      1  0.4098290000000  0.4654250000000  0.4336960000000 1.0
C      1  0.3859380000000  0.4836640000000  0.5081100000000 1.0
C      1  0.4209570000000  0.4626910000000  0.5718200000000 1.0
C      1  0.4880470000000  0.4784340000000  0.6112470000000 1.0
C      1  0.5482420000000  0.4647140000000  0.5972820000000 1.0
C      1  0.5486740000000  0.4049030000000  0.4515810000000 1.0
C      1  0.5049530000000  0.4054990000000  0.4289510000000 1.0
C      1  0.4587250000000  0.4092160000000  0.4404580000000 1.0
C      1  0.4334400000000  0.4104010000000  0.4823080000000 1.0
C      1  0.4373070000000  0.4061100000000  0.5296950000000 1.0
C      1  0.4728950000000  0.4069260000000  0.5617250000000 1.0
C      1  0.5222360000000  0.4122590000000  0.5691840000000 1.0
C      1  0.5579960000000  0.4128920000000  0.5390010000000 1.0
C      1  0.5711320000000  0.4067790000000  0.4927580000000 1.0
C      1  0.6099150000000  0.4791990000000  0.4816430000000 1.0
C      1  0.5735550000000  0.4862530000000  0.4116680000000 1.0
C      1  0.4929210000000  0.4870920000000  0.3821800000000 1.0
C      1  0.4269130000000  0.4834340000000  0.4140900000000 1.0
C      1  0.3844240000000  0.4890330000000  0.4787880000000 1.0
C      1  0.4049620000000  0.4787990000000  0.5531790000000 1.0
C      1  0.4594250000000  0.4858080000000  0.6063980000000 1.0
C      1  0.5380530000000  0.4869860000000  0.6098620000000 1.0
C      1  0.5996280000000  0.4857060000000  0.5589660000000 1.0
C      1  0.5227270000000  0.5717350000000  0.5827800000000 1.0
C      1  0.5542780000000  0.5916760000000  0.5395030000000 1.0
C      1  0.5687160000000  0.5916270000000  0.4908510000000 1.0
C      1  0.5467310000000  0.5881770000000  0.4470430000000 1.0
C      1  0.5075640000000  0.5729340000000  0.4095490000000 1.0
C      1  0.4652740000000  0.5951360000000  0.4415970000000 1.0
C      1  0.4267410000000  0.5885450000000  0.4769920000000 1.0
C      1  0.4369340000000  0.5912050000000  0.5280480000000 1.0
C      1  0.4730790000000  0.5879040000000  0.5616250000000 1.0
C      1  0.4644710000000  0.5173860000000  0.5698760000000 1.0
C      1  0.5078010000000  0.5083270000000  0.5811790000000 1.0
C      1  0.5598480000000  0.5129050000000  0.5476500000000 1.0
C      1  0.5739000000000  0.5163210000000  0.5033900000000 1.0
C      1  0.5564530000000  0.5093750000000  0.4503890000000 1.0
C      1  0.5208140000000  0.5009940000000  0.4273050000000 1.0
C      1  0.4622730000000  0.5142170000000  0.4385330000000 1.0
C      1  0.4249820000000  0.5184010000000  0.4731310000000 1.0
C      1  0.4244700000000  0.5117330000000  0.5230420000000 1.0
C      1  0.4377800000000  0.5559940000000  0.4519050000000 1.0
C      1  0.4180750000000  0.5523750000000  0.5061620000000 1.0
C      1  0.4445150000000  0.5484880000000  0.5517880000000 1.0
C      1  0.4874180000000  0.5522650000000  0.5943920000000 1.0
C      1  0.5502330000000  0.5513880000000  0.5563240000000 1.0
C      1  0.5762900000000  0.5540730000000  0.5177090000000 1.0
C      1  0.5732890000000  0.5494450000000  0.4638480000000 1.0
C      1  0.5357830000000  0.5476500000000  0.4253590000000 1.0
C      1  0.4719080000000  0.5540650000000  0.4235210000000 1.0
C      1  0.4857980000000  0.5246390000000  0.4540760000000 1.0
C      1  0.4531870000000  0.5199920000000  0.4794730000000 1.0
C      1  0.4498190000000  0.5235620000000  0.5065970000000 1.0
C      1  0.4725120000000  0.5202590000000  0.5209720000000 1.0
C      1  0.4922160000000  0.5223080000000  0.5628250000000 1.0
C      1  0.5340830000000  0.5186050000000  0.5321930000000 1.0
C      1  0.5483770000000  0.5238470000000  0.5105610000000 1.0
C      1  0.5363750000000  0.5179660000000  0.4717500000000 1.0
C      1  0.5148280000000  0.5212410000000  0.4506570000000 1.0
C      1  0.5647480000000  0.4808680000000  0.4800330000000 1.0
C      1  0.5388510000000  0.4827220000000  0.4422690000000 1.0
C      1  0.4955350000000  0.4858770000000  0.4290330000000 1.0
C      1  0.4478170000000  0.4887750000000  0.4507970000000 1.0
C      1  0.4308170000000  0.4735400000000  0.4950640000000 1.0
C      1  0.4433820000000  0.4865760000000  0.5388290000000 1.0
C      1  0.4868070000000  0.4688810000000  0.5642440000000 1.0
C      1  0.5256860000000  0.4902170000000  0.5664580000000 1.0
C      1  0.5624360000000  0.4820440000000  0.5295460000000 1.0
C      1  0.5286230000000  0.3981390000000  0.4701250000000 1.0
C      1  0.5034650000000  0.4040950000000  0.4576250000000 1.0
C      1  0.4750120000000  0.4079670000000  0.4656960000000 1.0
C      1  0.4590180000000  0.4010390000000  0.4887170000000 1.0
C      1  0.4647950000000  0.4060050000000  0.5167620000000 1.0
C      1  0.4846820000000  0.3997360000000  0.5374960000000 1.0
C      1  0.5130820000000  0.4081930000000  0.5397150000000 1.0
C      1  0.5366810000000  0.4014720000000  0.5246880000000 1.0
C      1  0.5403350000000  0.4058760000000  0.4960870000000 1.0
C      1  0.4977780000000  0.5461890000000  0.5479190000000 1.0
C      1  0.5261900000000  0.5457900000000  0.5403850000000 1.0
C      1  0.5482830000000  0.5516550000000  0.5059550000000 1.0
C      1  0.5445740000000  0.5467210000000  0.4759940000000 1.0
C      1  0.5189290000000  0.5502860000000  0.4508600000000 1.0
C      1  0.4886090000000  0.5527480000000  0.4497760000000 1.0
C      1  0.4557060000000  0.5499420000000  0.4745440000000 1.0
C      1  0.4475120000000  0.5517470000000  0.5031550000000 1.0
C      1  0.4707340000000  0.5446550000000  0.5349600000000 1.0
C      1  0.5351630000000  0.4511270000000  0.5198740000000 1.0
C      1  0.5385650000000  0.4396230000000  0.4931780000000 1.0
C      1  0.5210960000000  0.4491360000000  0.4722400000000 1.0
C      1  0.5024540000000  0.4401300000000  0.4527680000000 1.0
C      1  0.4748170000000  0.4431700000000  0.4635900000000 1.0
C      1  0.4706480000000  0.4514860000000  0.4907880000000 1.0
C      1  0.4659700000000  0.4413500000000  0.5178030000000 1.0
C      1  0.4909400000000  0.4530510000000  0.5265420000000 1.0
C      1  0.5144400000000  0.4426670000000  0.5390340000000 1.0
C      1  0.5616210000000  0.4476690000000  0.5794010000000 1.0
C      1  0.5928570000000  0.4447690000000  0.5195220000000 1.0
C      1  0.5859050000000  0.4407750000000  0.4676450000000 1.0
C      1  0.5447010000000  0.4371750000000  0.4178720000000 1.0
C      1  0.4847980000000  0.4413180000000  0.4057050000000 1.0
C      1  0.4282890000000  0.4440120000000  0.4407710000000 1.0
C      1  0.4056050000000  0.4427720000000  0.5102090000000 1.0
C      1  0.4318870000000  0.4405650000000  0.5550240000000 1.0
C      1  0.4873020000000  0.4380590000000  0.5972640000000 1.0
C      1  0.3940890000000  0.5088900000000  0.5203420000000 1.0
C      1  0.4441330000000  0.4999790000000  0.5650440000000 1.0
C      1  0.4990370000000  0.5055500000000  0.6089870000000 1.0
C      1  0.5549590000000  0.5019260000000  0.5738580000000 1.0
C      1  0.5846330000000  0.4949520000000  0.5176820000000 1.0
C      1  0.5804610000000  0.4979290000000  0.4605580000000 1.0
C      1  0.5330380000000  0.5074530000000  0.3970550000000 1.0
C      1  0.4745290000000  0.5030860000000  0.4149530000000 1.0
C      1  0.4203660000000  0.5000310000000  0.4527250000000 1.0
C      1  0.5025890000000  0.5643000000000  0.5076010000000 1.0
C      1  0.5005110000000  0.5430330000000  0.4953030000000 1.0
END
