TITL C-2441162-9305-776 0.125818939356995 125000 -16952.0619012758 0 0 141 (C1) n - 1
REM
REM in /home/bkarasulu/work/CARBON/AIRSS/Generating-Clusters/ReaxFF-fromJPCA2015/Units_Real/with-SteepDescent/Higher-Symm
REM
REM
REM
REM
REM
REM ./C.cell (1df0a924f5614ab8850e4351716899ee)
REM
REM compiler GCC version 9.2.1 20190827 (Red Hat 9.2.1-1)
REM options -cpp -mtune=generic -march=x86-64 -g -O0 -fpre-include=/usr/include/finclude/math-vector-fortran.h
REM seed -1647957986 984886771 -1818539665 -1125762579 1320654292 -1497720294 1783951719 -2135588145 -705960441 -1297836008 1023203491 -1882756592 1674292699 1471761041 2147216941 -1308744952 853202954 -434805006 -54605103 921270430 1147474564 1926227900 -2076460262 -794531326 191177054 1772442114 -1438858259 841503362 -583858561 1700296051 -1914519331 -804446969 1504006495
REM
CELL 1.54180   50.00000   50.00000   50.00000   90.00000   90.00000   90.00000
LATT -1
SFAC C  
C      1  0.4875750000000  0.5266470000000  0.5632170000000 1.0
C      1  0.5607100000000  0.5300760000000  0.4826670000000 1.0
C      1  0.4532310000000  0.5215870000000  0.4505580000000 1.0
C      1  0.4801340000000  0.4761220000000  0.5654300000000 1.0
C      1  0.5655580000000  0.4754000000000  0.4834160000000 1.0
C      1  0.4532710000000  0.4704860000000  0.4567370000000 1.0
C      1  0.5162000000000  0.5310920000000  0.5613270000000 1.0
C      1  0.4334390000000  0.5232750000000  0.4835010000000 1.0
C      1  0.5461250000000  0.5302500000000  0.4556590000000 1.0
C      1  0.5190240000000  0.4784150000000  0.5653160000000 1.0
C      1  0.4391230000000  0.4738620000000  0.4805120000000 1.0
C      1  0.5462860000000  0.4758690000000  0.4515160000000 1.0
C      1  0.4542830000000  0.6073440000000  0.5095340000000 1.0
C      1  0.5310190000000  0.6029130000000  0.5347470000000 1.0
C      1  0.5153260000000  0.6075200000000  0.4564400000000 1.0
C      1  0.4553820000000  0.3931440000000  0.5083330000000 1.0
C      1  0.5301330000000  0.3933920000000  0.5343860000000 1.0
C      1  0.5142760000000  0.3923180000000  0.4565970000000 1.0
C      1  0.5449810000000  0.6064830000000  0.5085760000000 1.0
C      1  0.4704450000000  0.6076770000000  0.5346460000000 1.0
C      1  0.4851280000000  0.6073300000000  0.4561410000000 1.0
C      1  0.5456440000000  0.3942320000000  0.5091030000000 1.0
C      1  0.4689410000000  0.3928140000000  0.5346840000000 1.0
C      1  0.4853050000000  0.3975220000000  0.4556190000000 1.0
C      1  0.4018000000000  0.4616050000000  0.4774270000000 1.0
C      1  0.5303320000000  0.4606740000000  0.5984650000000 1.0
C      1  0.5705310000000  0.4604210000000  0.4252740000000 1.0
C      1  0.3993370000000  0.5400300000000  0.4769650000000 1.0
C      1  0.5285250000000  0.5376040000000  0.5972610000000 1.0
C      1  0.5699200000000  0.5394980000000  0.4267270000000 1.0
C      1  0.6005790000000  0.4611930000000  0.4762920000000 1.0
C      1  0.4691470000000  0.4606370000000  0.5988780000000 1.0
C      1  0.4304970000000  0.4630230000000  0.4263050000000 1.0
C      1  0.5979670000000  0.5396280000000  0.4760890000000 1.0
C      1  0.4707830000000  0.5404100000000  0.5969440000000 1.0
C      1  0.4302720000000  0.5403540000000  0.4247370000000 1.0
C      1  0.5668680000000  0.4755130000000  0.5219880000000 1.0
C      1  0.4845750000000  0.4745560000000  0.4310290000000 1.0
C      1  0.4466690000000  0.4747230000000  0.5461670000000 1.0
C      1  0.5716670000000  0.5281770000000  0.5256940000000 1.0
C      1  0.4861910000000  0.5252460000000  0.4294670000000 1.0
C      1  0.4470990000000  0.5250100000000  0.5477420000000 1.0
C      1  0.4326050000000  0.4749670000000  0.5215790000000 1.0
C      1  0.5129390000000  0.4760590000000  0.4311770000000 1.0
C      1  0.5536420000000  0.4757910000000  0.5468740000000 1.0
C      1  0.4328280000000  0.5260690000000  0.5221370000000 1.0
C      1  0.5143040000000  0.5272180000000  0.4268600000000 1.0
C      1  0.5529420000000  0.5269170000000  0.5474390000000 1.0
C      1  0.4318660000000  0.4442680000000  0.5222390000000 1.0
C      1  0.5539900000000  0.4446470000000  0.5471460000000 1.0
C      1  0.5131820000000  0.4451280000000  0.4303820000000 1.0
C      1  0.4318800000000  0.5571500000000  0.5231280000000 1.0
C      1  0.5534920000000  0.5574720000000  0.5485510000000 1.0
C      1  0.5145240000000  0.5560010000000  0.4287170000000 1.0
C      1  0.5688530000000  0.4441530000000  0.5229150000000 1.0
C      1  0.4458490000000  0.4434270000000  0.5473620000000 1.0
C      1  0.4845690000000  0.4434250000000  0.4294330000000 1.0
C      1  0.5682340000000  0.5565660000000  0.5236040000000 1.0
C      1  0.4467470000000  0.5560540000000  0.5478790000000 1.0
C      1  0.4855960000000  0.5564980000000  0.4300320000000 1.0
C      1  0.4722040000000  0.5369300000000  0.4996890000000 1.0
C      1  0.5140370000000  0.5414290000000  0.5231660000000 1.0
C      1  0.5115970000000  0.5380120000000  0.4773090000000 1.0
C      1  0.4763020000000  0.4668540000000  0.5004810000000 1.0
C      1  0.5135390000000  0.4654370000000  0.5232180000000 1.0
C      1  0.5136650000000  0.4658990000000  0.4778390000000 1.0
C      1  0.5245390000000  0.5364540000000  0.5006730000000 1.0
C      1  0.4875840000000  0.5338010000000  0.5201030000000 1.0
C      1  0.4848450000000  0.5359440000000  0.4758380000000 1.0
C      1  0.5284070000000  0.4594250000000  0.5002760000000 1.0
C      1  0.4868750000000  0.4640450000000  0.5237590000000 1.0
C      1  0.4872290000000  0.4590960000000  0.4763170000000 1.0
C      1  0.5613250000000  0.5613680000000  0.4943460000000 1.0
C      1  0.4662570000000  0.5677680000000  0.4480100000000 1.0
C      1  0.4739190000000  0.5631580000000  0.5556580000000 1.0
C      1  0.5642340000000  0.4322150000000  0.4966600000000 1.0
C      1  0.4625010000000  0.4378340000000  0.4480730000000 1.0
C      1  0.4712190000000  0.4326510000000  0.5560420000000 1.0
C      1  0.4373110000000  0.5682080000000  0.4968790000000 1.0
C      1  0.5360570000000  0.5622700000000  0.4490020000000 1.0
C      1  0.5262050000000  0.5621310000000  0.5582640000000 1.0
C      1  0.4386470000000  0.4373790000000  0.4946020000000 1.0
C      1  0.5338000000000  0.4339830000000  0.4480120000000 1.0
C      1  0.5281930000000  0.4338090000000  0.5554870000000 1.0
C      1  0.4849530000000  0.5614970000000  0.5840240000000 1.0
C      1  0.5808820000000  0.5615690000000  0.4706550000000 1.0
C      1  0.4367560000000  0.5593790000000  0.4460740000000 1.0
C      1  0.4843960000000  0.4413330000000  0.5818110000000 1.0
C      1  0.5793300000000  0.4403610000000  0.4718130000000 1.0
C      1  0.4326500000000  0.4402750000000  0.4438900000000 1.0
C      1  0.5148310000000  0.5604070000000  0.5864070000000 1.0
C      1  0.4212090000000  0.5596530000000  0.4725710000000 1.0
C      1  0.5662380000000  0.5615090000000  0.4445070000000 1.0
C      1  0.5149710000000  0.4415610000000  0.5816610000000 1.0
C      1  0.4196480000000  0.4401280000000  0.4708470000000 1.0
C      1  0.5629780000000  0.4404640000000  0.4465690000000 1.0
C      1  0.5917130000000  0.4856590000000  0.4914450000000 1.0
C      1  0.4463550000000  0.4859590000000  0.4247880000000 1.0
C      1  0.4591810000000  0.4855870000000  0.5837740000000 1.0
C      1  0.5880340000000  0.5166910000000  0.4893370000000 1.0
C      1  0.4480910000000  0.5154090000000  0.4222860000000 1.0
C      1  0.4650250000000  0.5166640000000  0.5849780000000 1.0
C      1  0.4089060000000  0.4849350000000  0.4913770000000 1.0
C      1  0.5535990000000  0.4851700000000  0.4244990000000 1.0
C      1  0.5408080000000  0.4855530000000  0.5833510000000 1.0
C      1  0.4066960000000  0.5149920000000  0.4927210000000 1.0
C      1  0.5531460000000  0.5165640000000  0.4286450000000 1.0
C      1  0.5373700000000  0.5153190000000  0.5828540000000 1.0
C      1  0.4554870000000  0.4868660000000  0.5013300000000 1.0
C      1  0.5248090000000  0.4874480000000  0.5382180000000 1.0
C      1  0.5211560000000  0.4862880000000  0.4595040000000 1.0
C      1  0.4512420000000  0.5192800000000  0.5016820000000 1.0
C      1  0.5253350000000  0.5197010000000  0.5390270000000 1.0
C      1  0.5267860000000  0.5154600000000  0.4668330000000 1.0
C      1  0.5486200000000  0.4802850000000  0.5012720000000 1.0
C      1  0.4742480000000  0.4815310000000  0.5412030000000 1.0
C      1  0.4776030000000  0.4809110000000  0.4584900000000 1.0
C      1  0.5411420000000  0.5122990000000  0.4968140000000 1.0
C      1  0.4765520000000  0.5139820000000  0.5383460000000 1.0
C      1  0.4797860000000  0.5127190000000  0.4589600000000 1.0
C      1  0.5137830000000  0.4191600000000  0.5349420000000 1.0
C      1  0.5219040000000  0.4191090000000  0.4703610000000 1.0
C      1  0.4643530000000  0.4205000000000  0.4976560000000 1.0
C      1  0.5138300000000  0.5782210000000  0.5287000000000 1.0
C      1  0.5205530000000  0.5811800000000  0.4701830000000 1.0
C      1  0.4644810000000  0.5808500000000  0.4973730000000 1.0
C      1  0.4845270000000  0.4195510000000  0.5327180000000 1.0
C      1  0.4801380000000  0.4228010000000  0.4726670000000 1.0
C      1  0.5368640000000  0.4207270000000  0.4958210000000 1.0
C      1  0.4837840000000  0.5803290000000  0.5313690000000 1.0
C      1  0.4801130000000  0.5811390000000  0.4708530000000 1.0
C      1  0.5348390000000  0.5804800000000  0.4960290000000 1.0
C      1  0.4174310000000  0.4998760000000  0.5294830000000 1.0
C      1  0.4322870000000  0.4998680000000  0.5551520000000 1.0
C      1  0.5669800000000  0.5008500000000  0.5561670000000 1.0
C      1  0.5820270000000  0.5017930000000  0.5282060000000 1.0
C      1  0.4846180000000  0.4995710000000  0.4137800000000 1.0
C      1  0.5166300000000  0.5013420000000  0.4148160000000 1.0
C      1  0.4357120000000  0.5040330000000  0.4635830000000 1.0
C      1  0.5632830000000  0.4963120000000  0.4632370000000 1.0
C      1  0.4984960000000  0.4954640000000  0.5750700000000 1.0
END
