TITL C-2441164-471-1327 0.0215509844235194 125000 -1709.60542807244 0 0 19 (Cs) n - 1
REM
REM in /home/bkarasulu/work/CARBON/AIRSS/Generating-Clusters/ReaxFF-fromJPCA2015/Units_Real/with-SteepDescent/Higher-Symm
REM
REM
REM
REM
REM
REM ./C.cell (1df0a924f5614ab8850e4351716899ee)
REM
REM compiler GCC version 9.2.1 20190827 (Red Hat 9.2.1-1)
REM options -cpp -mtune=generic -march=x86-64 -g -O0 -fpre-include=/usr/include/finclude/math-vector-fortran.h
REM seed 1771673041 -1504287477 2012466620 -1583737764 -724388329 -1323150359 1526182262 2058921403 1302851942 -1163248433 -711899731 -1561446160 1376354669 336278860 -1475647583 -1441357914 -1129985260 971061128 -205617214 511607736 1962562604 569161437 -1300007283 1259835914 -648178970 1062506521 -553324833 -1840586963 1957247513 794608816 1789743363 1400480194 501765527
REM
CELL 1.54180   50.00000   50.00000   50.00000   90.00000   90.00000   90.00000
LATT -1
SFAC C  
C      1  0.5367870000000  0.4789640000000  0.4737350000000 1.0
C      1  0.4761390000000  0.4790440000000  0.4735220000000 1.0
C      1  0.4862300000000  0.5158800000000  0.5235990000000 1.0
C      1  0.5268430000000  0.5158810000000  0.5235960000000 1.0
C      1  0.5065380000000  0.4697760000000  0.4343610000000 1.0
C      1  0.5065330000000  0.5509280000000  0.5150410000000 1.0
C      1  0.5065360000000  0.4489330000000  0.5597020000000 1.0
C      1  0.5065150000000  0.4627040000000  0.5389800000000 1.0
C      1  0.5066240000000  0.4536230000000  0.5095770000000 1.0
C      1  0.5065360000000  0.5235340000000  0.4375450000000 1.0
C      1  0.5065270000000  0.5150900000000  0.5007490000000 1.0
C      1  0.5065050000000  0.4928500000000  0.4808210000000 1.0
C      1  0.5065340000000  0.5423280000000  0.4891230000000 1.0
C      1  0.5065340000000  0.4960770000000  0.5371220000000 1.0
C      1  0.5067120000000  0.4737180000000  0.4997080000000 1.0
C      1  0.5065470000000  0.5349940000000  0.5340330000000 1.0
C      1  0.5064910000000  0.4911610000000  0.4471320000000 1.0
C      1  0.5065310000000  0.5136040000000  0.5609050000000 1.0
C      1  0.5065370000000  0.5353170000000  0.4622140000000 1.0
END
