TITL C-2441160-1326-806 0.00123787680147615 125000 -4433.19472985939 0 0 32 (C3) n - 1
REM
REM in /home/bkarasulu/work/CARBON/AIRSS/Generating-Clusters/ReaxFF-fromJPCA2015/Units_Real/with-SteepDescent/Higher-Symm
REM
REM
REM
REM
REM
REM ./C.cell (1df0a924f5614ab8850e4351716899ee)
REM
REM compiler GCC version 9.2.1 20190827 (Red Hat 9.2.1-1)
REM options -cpp -mtune=generic -march=x86-64 -g -O0 -fpre-include=/usr/include/finclude/math-vector-fortran.h
REM seed -1602341541 -323041736 -2046603868 1464167931 -397800337 541887835 -975207846 -1402191065 1304427632 -490371547 -782178255 1640382743 1161216732 122598854 -1084091726 1299729203 -2003361247 -165672968 890133718 1490312838 -1195353474 228118047 -589639593 530731231 1166383263 410999608 616412072 -1137186170 1024445454 -1913687809 1883970157 2126364768 -1420363531
REM
CELL 1.54180   50.00000   50.00000   50.00000   90.00000   90.00000   90.00000
LATT -1
SFAC C  
C      1  0.4759850000000  0.5433250000000  0.5366420000000 1.0
C      1  0.4769920000000  0.5431260000000  0.4618860000000 1.0
C      1  0.5412200000000  0.5436450000000  0.5002590000000 1.0
C      1  0.5164850000000  0.4620860000000  0.4770010000000 1.0
C      1  0.5081750000000  0.4618270000000  0.5270310000000 1.0
C      1  0.4689240000000  0.4618610000000  0.4948350000000 1.0
C      1  0.4511460000000  0.5304520000000  0.4621330000000 1.0
C      1  0.5538750000000  0.5308920000000  0.4777710000000 1.0
C      1  0.4891100000000  0.5307430000000  0.5589560000000 1.0
C      1  0.4638530000000  0.4715060000000  0.5350110000000 1.0
C      1  0.4842110000000  0.4713960000000  0.4524320000000 1.0
C      1  0.5455830000000  0.4711700000000  0.5113740000000 1.0
C      1  0.5297980000000  0.5454520000000  0.4724720000000 1.0
C      1  0.5057340000000  0.5453250000000  0.5407630000000 1.0
C      1  0.4586250000000  0.5449250000000  0.4856720000000 1.0
C      1  0.4431780000000  0.4997220000000  0.4634300000000 1.0
C      1  0.5563620000000  0.5001280000000  0.4703360000000 1.0
C      1  0.4941360000000  0.4999760000000  0.5649790000000 1.0
C      1  0.4228860000000  0.4879230000000  0.4736760000000 1.0
C      1  0.5572770000000  0.4884430000000  0.4475910000000 1.0
C      1  0.5132120000000  0.4880670000000  0.5772220000000 1.0
C      1  0.4504950000000  0.4652310000000  0.5168080000000 1.0
C      1  0.5067260000000  0.4654070000000  0.4500060000000 1.0
C      1  0.5364750000000  0.4648400000000  0.5320260000000 1.0
C      1  0.4619130000000  0.4748470000000  0.4681500000000 1.0
C      1  0.5430770000000  0.4751300000000  0.4842850000000 1.0
C      1  0.4886370000000  0.4751680000000  0.5463160000000 1.0
C      1  0.5197040000000  0.5339390000000  0.5175490000000 1.0
C      1  0.4718860000000  0.5336070000000  0.5093450000000 1.0
C      1  0.5028100000000  0.5338080000000  0.4720320000000 1.0
C      1  0.4978520000000  0.4591600000000  0.4996110000000 1.0
C      1  0.4982090000000  0.5256700000000  0.4996530000000 1.0
END
