TITL C-2441169-1362-1313 0.198032260346246 125000 -15986.9393575797 0 0 140 (C1) n - 1
REM
REM in /home/bkarasulu/work/CARBON/AIRSS/Generating-Clusters/ReaxFF-fromJPCA2015/Units_Real/with-SteepDescent/Higher-Symm
REM
REM
REM
REM
REM
REM ./C.cell (1df0a924f5614ab8850e4351716899ee)
REM
REM compiler GCC version 9.2.1 20190827 (Red Hat 9.2.1-1)
REM options -cpp -mtune=generic -march=x86-64 -g -O0 -fpre-include=/usr/include/finclude/math-vector-fortran.h
REM seed -736019659 57464752 845912460 509976070 1413236453 -364371963 1934766679 -769212426 -75477217 477238463 2092747564 -1164146035 972080755 -1460444374 848884185 -1564391812 -779630274 1152724618 -413560105 -1476102926 438898606 -890096143 1530540133 -635499261 73322439 -1771373378 1448955329 -941736853 658308258 -1739090240 -1913561879 -1602327845 1617758005
REM
CELL 1.54180   50.00000   50.00000   50.00000   90.00000   90.00000   90.00000
LATT -1
SFAC C  
C      1  0.5798570000000  0.5351620000000  0.4582670000000 1.0
C      1  0.4662230000000  0.5797870000000  0.4595110000000 1.0
C      1  0.4204630000000  0.4646030000000  0.4585530000000 1.0
C      1  0.5342260000000  0.4207620000000  0.4586040000000 1.0
C      1  0.5298210000000  0.4507080000000  0.5269850000000 1.0
C      1  0.5459400000000  0.5307470000000  0.5291310000000 1.0
C      1  0.4683140000000  0.5458460000000  0.5312700000000 1.0
C      1  0.4515260000000  0.4704120000000  0.5275480000000 1.0
C      1  0.5518770000000  0.5731560000000  0.5067150000000 1.0
C      1  0.4271760000000  0.5497390000000  0.5064230000000 1.0
C      1  0.4493080000000  0.4257220000000  0.5064340000000 1.0
C      1  0.5740480000000  0.4491630000000  0.5061700000000 1.0
C      1  0.5950830000000  0.5107440000000  0.4624490000000 1.0
C      1  0.4903770000000  0.5954160000000  0.4639840000000 1.0
C      1  0.4047660000000  0.4889410000000  0.4626050000000 1.0
C      1  0.5097680000000  0.4042560000000  0.4616510000000 1.0
C      1  0.4795200000000  0.5306730000000  0.4059680000000 1.0
C      1  0.4699200000000  0.4793680000000  0.4057400000000 1.0
C      1  0.5206170000000  0.4697160000000  0.4059190000000 1.0
C      1  0.5300080000000  0.5210370000000  0.4055700000000 1.0
C      1  0.5582550000000  0.4464160000000  0.4860650000000 1.0
C      1  0.5541970000000  0.5581000000000  0.4862370000000 1.0
C      1  0.4411590000000  0.5537470000000  0.4858740000000 1.0
C      1  0.4460460000000  0.4417120000000  0.4863010000000 1.0
C      1  0.5525270000000  0.5376680000000  0.4489400000000 1.0
C      1  0.4637360000000  0.5530670000000  0.4501180000000 1.0
C      1  0.4480400000000  0.4626250000000  0.4498960000000 1.0
C      1  0.5370050000000  0.4472850000000  0.4492570000000 1.0
C      1  0.5201050000000  0.5410010000000  0.5459760000000 1.0
C      1  0.4579040000000  0.5204940000000  0.5467440000000 1.0
C      1  0.4823450000000  0.4570360000000  0.5497860000000 1.0
C      1  0.5441190000000  0.4804320000000  0.5493340000000 1.0
C      1  0.5203880000000  0.4575570000000  0.4320130000000 1.0
C      1  0.5415250000000  0.5200410000000  0.4318630000000 1.0
C      1  0.4804550000000  0.5418130000000  0.4327690000000 1.0
C      1  0.4577190000000  0.4800800000000  0.4316970000000 1.0
C      1  0.4720140000000  0.4104350000000  0.5033900000000 1.0
C      1  0.5898370000000  0.4719110000000  0.5033780000000 1.0
C      1  0.5294080000000  0.5891940000000  0.5032200000000 1.0
C      1  0.4097170000000  0.5280660000000  0.5036110000000 1.0
C      1  0.4089490000000  0.5152550000000  0.5295220000000 1.0
C      1  0.4850890000000  0.4099790000000  0.5281970000000 1.0
C      1  0.5899520000000  0.4841600000000  0.5283760000000 1.0
C      1  0.5162100000000  0.5895270000000  0.5281190000000 1.0
C      1  0.5596800000000  0.5199480000000  0.5533320000000 1.0
C      1  0.4805840000000  0.5607100000000  0.5533110000000 1.0
C      1  0.4425110000000  0.4788120000000  0.5525880000000 1.0
C      1  0.5207340000000  0.4418420000000  0.5513940000000 1.0
C      1  0.4894020000000  0.4149830000000  0.4807910000000 1.0
C      1  0.5848900000000  0.4909140000000  0.4817090000000 1.0
C      1  0.5108840000000  0.5840080000000  0.4808780000000 1.0
C      1  0.4149000000000  0.5093260000000  0.4814820000000 1.0
C      1  0.4417890000000  0.5641140000000  0.5270940000000 1.0
C      1  0.4369360000000  0.4429060000000  0.5273310000000 1.0
C      1  0.5572420000000  0.4364340000000  0.5273610000000 1.0
C      1  0.5632500000000  0.5567050000000  0.5280900000000 1.0
C      1  0.4622950000000  0.4685660000000  0.5874080000000 1.0
C      1  0.5273560000000  0.4634920000000  0.5869910000000 1.0
C      1  0.5367980000000  0.5255400000000  0.5870340000000 1.0
C      1  0.4746860000000  0.5388470000000  0.5876030000000 1.0
C      1  0.5447370000000  0.4860870000000  0.5793610000000 1.0
C      1  0.5149030000000  0.5433050000000  0.5795830000000 1.0
C      1  0.4560640000000  0.5174510000000  0.5780150000000 1.0
C      1  0.4877890000000  0.4565630000000  0.5791590000000 1.0
C      1  0.5016290000000  0.5243220000000  0.5318490000000 1.0
C      1  0.4793890000000  0.5040400000000  0.5324630000000 1.0
C      1  0.4965050000000  0.4774930000000  0.5331610000000 1.0
C      1  0.5244110000000  0.4926400000000  0.5337210000000 1.0
C      1  0.5052370000000  0.4794430000000  0.5768460000000 1.0
C      1  0.5222760000000  0.5034960000000  0.5735430000000 1.0
C      1  0.4948080000000  0.5253780000000  0.5734890000000 1.0
C      1  0.4701460000000  0.4936010000000  0.5801220000000 1.0
C      1  0.4913290000000  0.5430830000000  0.5139560000000 1.0
C      1  0.4589080000000  0.4942860000000  0.5116890000000 1.0
C      1  0.5059620000000  0.4581120000000  0.5113260000000 1.0
C      1  0.5401360000000  0.5060550000000  0.5145330000000 1.0
C      1  0.5720380000000  0.4718540000000  0.5475040000000 1.0
C      1  0.5266470000000  0.5705080000000  0.5475980000000 1.0
C      1  0.4280610000000  0.5276520000000  0.5481640000000 1.0
C      1  0.4731550000000  0.4288810000000  0.5475110000000 1.0
C      1  0.5075740000000  0.5385640000000  0.4043310000000 1.0
C      1  0.4623000000000  0.5076590000000  0.4036700000000 1.0
C      1  0.4925240000000  0.4620090000000  0.4045070000000 1.0
C      1  0.5376140000000  0.4927760000000  0.4036480000000 1.0
C      1  0.4616210000000  0.5076150000000  0.4729810000000 1.0
C      1  0.4918670000000  0.4611470000000  0.4725120000000 1.0
C      1  0.5374520000000  0.4899680000000  0.4705270000000 1.0
C      1  0.5105180000000  0.5373890000000  0.4707990000000 1.0
C      1  0.4377060000000  0.4586760000000  0.5719510000000 1.0
C      1  0.5396530000000  0.4386420000000  0.5717720000000 1.0
C      1  0.5589230000000  0.5408150000000  0.5738930000000 1.0
C      1  0.4588620000000  0.5605070000000  0.5728850000000 1.0
C      1  0.5772650000000  0.5450650000000  0.4854050000000 1.0
C      1  0.4543480000000  0.5774870000000  0.4859080000000 1.0
C      1  0.4224120000000  0.4546010000000  0.4854920000000 1.0
C      1  0.5442770000000  0.4235880000000  0.4854070000000 1.0
C      1  0.4909610000000  0.6029900000000  0.4916480000000 1.0
C      1  0.3974790000000  0.4867620000000  0.4904010000000 1.0
C      1  0.5125830000000  0.3981650000000  0.4903260000000 1.0
C      1  0.6025960000000  0.5136730000000  0.4902460000000 1.0
C      1  0.5865700000000  0.5200160000000  0.5571360000000 1.0
C      1  0.4789770000000  0.5878310000000  0.5483300000000 1.0
C      1  0.4176210000000  0.4804400000000  0.5568670000000 1.0
C      1  0.5192150000000  0.4173060000000  0.5566820000000 1.0
C      1  0.4081060000000  0.4660950000000  0.5083160000000 1.0
C      1  0.5336520000000  0.4082170000000  0.5078290000000 1.0
C      1  0.5916030000000  0.5341960000000  0.5080410000000 1.0
C      1  0.4588760000000  0.5850270000000  0.5128770000000 1.0
C      1  0.4078490000000  0.4859620000000  0.5309160000000 1.0
C      1  0.5139930000000  0.4065690000000  0.5307450000000 1.0
C      1  0.5937960000000  0.5131500000000  0.5306360000000 1.0
C      1  0.4859690000000  0.6002730000000  0.5233220000000 1.0
C      1  0.4155110000000  0.5434100000000  0.4361390000000 1.0
C      1  0.4575020000000  0.4171810000000  0.4381350000000 1.0
C      1  0.5844960000000  0.4570630000000  0.4361350000000 1.0
C      1  0.5423590000000  0.5829220000000  0.4381470000000 1.0
C      1  0.5019640000000  0.4788520000000  0.4930560000000 1.0
C      1  0.5240950000000  0.5003600000000  0.4922120000000 1.0
C      1  0.4958450000000  0.5264590000000  0.4925190000000 1.0
C      1  0.4789190000000  0.4998630000000  0.4932960000000 1.0
C      1  0.5195280000000  0.5744170000000  0.4453970000000 1.0
C      1  0.4284860000000  0.5230580000000  0.4448860000000 1.0
C      1  0.4808370000000  0.4251660000000  0.4445940000000 1.0
C      1  0.5718010000000  0.4775530000000  0.4448900000000 1.0
C      1  0.4355640000000  0.5544650000000  0.5558700000000 1.0
C      1  0.4452720000000  0.4345590000000  0.5536480000000 1.0
C      1  0.5645390000000  0.4448340000000  0.5540490000000 1.0
C      1  0.5543800000000  0.5636790000000  0.5547630000000 1.0
C      1  0.4506970000000  0.5353600000000  0.4682310000000 1.0
C      1  0.4638720000000  0.4541640000000  0.4709150000000 1.0
C      1  0.5497630000000  0.4643650000000  0.4679450000000 1.0
C      1  0.5370630000000  0.5462740000000  0.4701580000000 1.0
C      1  0.5187920000000  0.4923510000000  0.4499700000000 1.0
C      1  0.5070410000000  0.5177150000000  0.4503370000000 1.0
C      1  0.4808560000000  0.5070690000000  0.4509170000000 1.0
C      1  0.4924660000000  0.4809290000000  0.4500850000000 1.0
C      1  0.4437490000000  0.5045410000000  0.4255810000000 1.0
C      1  0.4960890000000  0.4434380000000  0.4265220000000 1.0
C      1  0.5555980000000  0.4958350000000  0.4260980000000 1.0
C      1  0.5045520000000  0.5559780000000  0.4273260000000 1.0
END
