TITL C-2441164-471-658 0.110349386606798 125000 -16360.479836957 0 0 126 (C1) n - 1
REM
REM in /home/bkarasulu/work/CARBON/AIRSS/Generating-Clusters/ReaxFF-fromJPCA2015/Units_Real/with-SteepDescent/Higher-Symm
REM
REM
REM
REM
REM
REM ./C.cell (1df0a924f5614ab8850e4351716899ee)
REM
REM compiler GCC version 9.2.1 20190827 (Red Hat 9.2.1-1)
REM options -cpp -mtune=generic -march=x86-64 -g -O0 -fpre-include=/usr/include/finclude/math-vector-fortran.h
REM seed -1218413987 1225962082 196688223 -2090742721 1936950794 426852619 -214488792 -484843658 -966513259 -524551815 2051436974 215865022 1425147728 -457407590 -771323581 1830672869 -109360816 -331964141 -360816956 -817384144 -1303095526 -2045606672 -297412943 347012066 802197743 275338649 1286809092 1510378910 1175155411 1970097895 1953094733 187207287 -886828842
REM
CELL 1.54180   50.00000   50.00000   50.00000   90.00000   90.00000   90.00000
LATT -1
SFAC C  
C      1  0.5349080000000  0.5888120000000  0.4972900000000 1.0
C      1  0.4052150000000  0.4856780000000  0.4966390000000 1.0
C      1  0.5599410000000  0.4248230000000  0.4967820000000 1.0
C      1  0.5349570000000  0.4112100000000  0.4971380000000 1.0
C      1  0.4054180000000  0.5142060000000  0.4967630000000 1.0
C      1  0.5600220000000  0.5753490000000  0.4968760000000 1.0
C      1  0.5704310000000  0.5148730000000  0.5217990000000 1.0
C      1  0.4538940000000  0.5511390000000  0.5199730000000 1.0
C      1  0.4774030000000  0.4312110000000  0.5219340000000 1.0
C      1  0.5666990000000  0.4853520000000  0.5207170000000 1.0
C      1  0.4519820000000  0.4452770000000  0.5210680000000 1.0
C      1  0.4783800000000  0.5676370000000  0.5214410000000 1.0
C      1  0.5684050000000  0.4862150000000  0.4646960000000 1.0
C      1  0.4788480000000  0.5655810000000  0.4628800000000 1.0
C      1  0.4545140000000  0.4472300000000  0.4654570000000 1.0
C      1  0.5682070000000  0.5134260000000  0.4658610000000 1.0
C      1  0.4785330000000  0.4343830000000  0.4629790000000 1.0
C      1  0.4544190000000  0.5530490000000  0.4657100000000 1.0
C      1  0.4746610000000  0.5155110000000  0.4652220000000 1.0
C      1  0.4992750000000  0.4723410000000  0.4713300000000 1.0
C      1  0.5233350000000  0.5140460000000  0.4617940000000 1.0
C      1  0.4749970000000  0.4855940000000  0.4649860000000 1.0
C      1  0.4995500000000  0.5278290000000  0.4716820000000 1.0
C      1  0.5235380000000  0.4846520000000  0.4629420000000 1.0
C      1  0.5003640000000  0.4755080000000  0.5118460000000 1.0
C      1  0.5256350000000  0.5146660000000  0.5056160000000 1.0
C      1  0.4712970000000  0.5161120000000  0.5093970000000 1.0
C      1  0.4991660000000  0.5252360000000  0.5125370000000 1.0
C      1  0.5289130000000  0.4857940000000  0.5075530000000 1.0
C      1  0.4726590000000  0.4867290000000  0.5090420000000 1.0
C      1  0.4969220000000  0.4407990000000  0.5717530000000 1.0
C      1  0.5541920000000  0.5274540000000  0.5732830000000 1.0
C      1  0.4493330000000  0.5353480000000  0.5722800000000 1.0
C      1  0.4964470000000  0.5593300000000  0.5715040000000 1.0
C      1  0.5542180000000  0.4724310000000  0.5731750000000 1.0
C      1  0.4491680000000  0.4647550000000  0.5726490000000 1.0
C      1  0.4833390000000  0.4443790000000  0.4347980000000 1.0
C      1  0.5596520000000  0.5151470000000  0.4372690000000 1.0
C      1  0.4539340000000  0.5478860000000  0.4372980000000 1.0
C      1  0.4832300000000  0.5542880000000  0.4353030000000 1.0
C      1  0.5600310000000  0.4865170000000  0.4367510000000 1.0
C      1  0.4539870000000  0.4519460000000  0.4370210000000 1.0
C      1  0.5368200000000  0.5350210000000  0.4859350000000 1.0
C      1  0.4530000000000  0.5153510000000  0.4849010000000 1.0
C      1  0.5123780000000  0.4499160000000  0.4836480000000 1.0
C      1  0.5368340000000  0.4667320000000  0.4848670000000 1.0
C      1  0.4530910000000  0.4850820000000  0.4859050000000 1.0
C      1  0.5127090000000  0.5509460000000  0.4825270000000 1.0
C      1  0.4998390000000  0.4663520000000  0.5846040000000 1.0
C      1  0.5258980000000  0.5172000000000  0.5809450000000 1.0
C      1  0.4743370000000  0.5217300000000  0.5800600000000 1.0
C      1  0.4998460000000  0.5340790000000  0.5847520000000 1.0
C      1  0.5259190000000  0.4829990000000  0.5810500000000 1.0
C      1  0.4743930000000  0.4784180000000  0.5788360000000 1.0
C      1  0.5163540000000  0.4184820000000  0.4751730000000 1.0
C      1  0.5642140000000  0.5550110000000  0.4754740000000 1.0
C      1  0.4209090000000  0.5271020000000  0.4748960000000 1.0
C      1  0.5163450000000  0.5820940000000  0.4750240000000 1.0
C      1  0.5634680000000  0.4454610000000  0.4752850000000 1.0
C      1  0.4210260000000  0.4727640000000  0.4749690000000 1.0
C      1  0.5195340000000  0.4827290000000  0.4322800000000 1.0
C      1  0.4952880000000  0.5286260000000  0.4260680000000 1.0
C      1  0.4714110000000  0.4871140000000  0.4320510000000 1.0
C      1  0.5193060000000  0.5128160000000  0.4322030000000 1.0
C      1  0.4938750000000  0.4703310000000  0.4260920000000 1.0
C      1  0.4712970000000  0.5129410000000  0.4292410000000 1.0
C      1  0.4200620000000  0.4855140000000  0.4468920000000 1.0
C      1  0.5554440000000  0.4369010000000  0.4473040000000 1.0
C      1  0.5307090000000  0.5794370000000  0.4464940000000 1.0
C      1  0.4203200000000  0.5142730000000  0.4469880000000 1.0
C      1  0.5566310000000  0.5653170000000  0.4475480000000 1.0
C      1  0.5308210000000  0.4208890000000  0.4468650000000 1.0
C      1  0.4425620000000  0.5226150000000  0.4302950000000 1.0
C      1  0.5198780000000  0.4390340000000  0.4275100000000 1.0
C      1  0.5463790000000  0.5451520000000  0.4289700000000 1.0
C      1  0.4419450000000  0.4767210000000  0.4301900000000 1.0
C      1  0.5210630000000  0.5595060000000  0.4281090000000 1.0
C      1  0.5436160000000  0.4572480000000  0.4279330000000 1.0
C      1  0.5484440000000  0.4456740000000  0.5643980000000 1.0
C      1  0.5226090000000  0.5686550000000  0.5639250000000 1.0
C      1  0.4304270000000  0.4855160000000  0.5648520000000 1.0
C      1  0.5483460000000  0.5542390000000  0.5646730000000 1.0
C      1  0.5228920000000  0.4310780000000  0.5640660000000 1.0
C      1  0.4307430000000  0.5147240000000  0.5642570000000 1.0
C      1  0.4785850000000  0.5146080000000  0.5517370000000 1.0
C      1  0.5014160000000  0.4693090000000  0.5400600000000 1.0
C      1  0.5223260000000  0.5141190000000  0.5515420000000 1.0
C      1  0.4782020000000  0.4857160000000  0.5501160000000 1.0
C      1  0.5011610000000  0.5305650000000  0.5403470000000 1.0
C      1  0.5223010000000  0.4859410000000  0.5516650000000 1.0
C      1  0.5838830000000  0.5386720000000  0.5118250000000 1.0
C      1  0.4256530000000  0.5531980000000  0.5115430000000 1.0
C      1  0.4915070000000  0.4093690000000  0.5111830000000 1.0
C      1  0.5829320000000  0.4621020000000  0.5119430000000 1.0
C      1  0.4246380000000  0.4462910000000  0.5112330000000 1.0
C      1  0.4913080000000  0.5907860000000  0.5116160000000 1.0
C      1  0.5470190000000  0.5537620000000  0.5351680000000 1.0
C      1  0.4285130000000  0.5134600000000  0.5362380000000 1.0
C      1  0.5210790000000  0.4353610000000  0.5357230000000 1.0
C      1  0.5466000000000  0.4461460000000  0.5349540000000 1.0
C      1  0.4286030000000  0.4862160000000  0.5358880000000 1.0
C      1  0.5212270000000  0.5642560000000  0.5355560000000 1.0
C      1  0.4391070000000  0.5766330000000  0.4741240000000 1.0
C      1  0.4653750000000  0.4096290000000  0.4713060000000 1.0
C      1  0.5966630000000  0.5144840000000  0.4732990000000 1.0
C      1  0.4392440000000  0.4234750000000  0.4736630000000 1.0
C      1  0.4655290000000  0.5905270000000  0.4712240000000 1.0
C      1  0.5967830000000  0.4854530000000  0.4732000000000 1.0
C      1  0.5694410000000  0.4852900000000  0.5513690000000 1.0
C      1  0.4774680000000  0.5661740000000  0.5502350000000 1.0
C      1  0.4520560000000  0.4454520000000  0.5509850000000 1.0
C      1  0.5698200000000  0.5141030000000  0.5516880000000 1.0
C      1  0.4779700000000  0.4335940000000  0.5507950000000 1.0
C      1  0.4521110000000  0.5536390000000  0.5499690000000 1.0
C      1  0.4133680000000  0.5287830000000  0.5196130000000 1.0
C      1  0.5179980000000  0.4127730000000  0.5199720000000 1.0
C      1  0.5683800000000  0.5608400000000  0.5194650000000 1.0
C      1  0.4132170000000  0.4710050000000  0.5193400000000 1.0
C      1  0.5180780000000  0.5869280000000  0.5200560000000 1.0
C      1  0.5680420000000  0.4392190000000  0.5194180000000 1.0
C      1  0.4196270000000  0.5575160000000  0.4836830000000 1.0
C      1  0.4909190000000  0.4024150000000  0.4831360000000 1.0
C      1  0.5904880000000  0.5410980000000  0.4835500000000 1.0
C      1  0.4194130000000  0.4425010000000  0.4829210000000 1.0
C      1  0.4907340000000  0.5975400000000  0.4834680000000 1.0
C      1  0.5902170000000  0.4595100000000  0.4840980000000 1.0
END
