TITL C-2441162-9305-1109 0.137228149297673 125000 -12978.3689803656 0 0 115 (C1) n - 1
REM
REM in /home/bkarasulu/work/CARBON/AIRSS/Generating-Clusters/ReaxFF-fromJPCA2015/Units_Real/with-SteepDescent/Higher-Symm
REM
REM
REM
REM
REM
REM ./C.cell (1df0a924f5614ab8850e4351716899ee)
REM
REM compiler GCC version 9.2.1 20190827 (Red Hat 9.2.1-1)
REM options -cpp -mtune=generic -march=x86-64 -g -O0 -fpre-include=/usr/include/finclude/math-vector-fortran.h
REM seed 1529669814 1869621829 671818325 -598576433 212195756 2078279710 207593945 -678499311 405353086 -1782597819 -1740145784 -1160559043 -1335111515 -305469507 1973639939 -189644317 -241667683 -1515221069 -147023888 -1376057157 -360427247 1935584948 1489334316 517932462 907963805 1566336387 -1617188663 190858651 -797878990 -515027848 1154202657 -632518403 1784503599
REM
CELL 1.54180   50.00000   50.00000   50.00000   90.00000   90.00000   90.00000
LATT -1
SFAC C  
C      1  0.4215620000000  0.5165310000000  0.5442510000000 1.0
C      1  0.4917920000000  0.5805230000000  0.5421500000000 1.0
C      1  0.5708710000000  0.5329480000000  0.5418850000000 1.0
C      1  0.5542650000000  0.4399160000000  0.5423820000000 1.0
C      1  0.4609360000000  0.4291600000000  0.5442650000000 1.0
C      1  0.4204440000000  0.5175310000000  0.4534080000000 1.0
C      1  0.4915020000000  0.5799740000000  0.4538290000000 1.0
C      1  0.5736700000000  0.5324180000000  0.4555250000000 1.0
C      1  0.5529950000000  0.4403320000000  0.4524880000000 1.0
C      1  0.4597660000000  0.4313530000000  0.4529150000000 1.0
C      1  0.4811650000000  0.5574690000000  0.4394670000000 1.0
C      1  0.5515830000000  0.5400310000000  0.4404470000000 1.0
C      1  0.5495490000000  0.4647000000000  0.4381100000000 1.0
C      1  0.4820120000000  0.4464630000000  0.4430600000000 1.0
C      1  0.4376200000000  0.4995590000000  0.4398030000000 1.0
C      1  0.4793500000000  0.5619630000000  0.5580110000000 1.0
C      1  0.5441000000000  0.5329380000000  0.5540270000000 1.0
C      1  0.5518330000000  0.4634700000000  0.5568450000000 1.0
C      1  0.4821910000000  0.4413510000000  0.5589190000000 1.0
C      1  0.4369130000000  0.4978700000000  0.5594370000000 1.0
C      1  0.5631950000000  0.4898780000000  0.4371480000000 1.0
C      1  0.5077740000000  0.4358330000000  0.4354110000000 1.0
C      1  0.4428740000000  0.4731300000000  0.4362300000000 1.0
C      1  0.4549900000000  0.5444910000000  0.4384230000000 1.0
C      1  0.5312980000000  0.5569550000000  0.4368070000000 1.0
C      1  0.5621670000000  0.4881910000000  0.5612720000000 1.0
C      1  0.5106210000000  0.4374620000000  0.5606350000000 1.0
C      1  0.4425530000000  0.4717360000000  0.5595700000000 1.0
C      1  0.4560400000000  0.5481360000000  0.5629470000000 1.0
C      1  0.5312630000000  0.5572520000000  0.5629090000000 1.0
C      1  0.4875050000000  0.5196390000000  0.4174300000000 1.0
C      1  0.5154150000000  0.5173360000000  0.4173980000000 1.0
C      1  0.5213520000000  0.4907440000000  0.4168400000000 1.0
C      1  0.4984000000000  0.4754270000000  0.4197370000000 1.0
C      1  0.4762530000000  0.4937630000000  0.4177030000000 1.0
C      1  0.4859100000000  0.5206280000000  0.5728960000000 1.0
C      1  0.5145250000000  0.5185890000000  0.5804080000000 1.0
C      1  0.5217920000000  0.4918170000000  0.5804160000000 1.0
C      1  0.4984790000000  0.4766550000000  0.5813820000000 1.0
C      1  0.4777300000000  0.4940160000000  0.5811540000000 1.0
C      1  0.5484510000000  0.5319010000000  0.5113950000000 1.0
C      1  0.5469010000000  0.4624780000000  0.5115440000000 1.0
C      1  0.4777880000000  0.4449780000000  0.5132300000000 1.0
C      1  0.4438270000000  0.5062580000000  0.5132680000000 1.0
C      1  0.4848090000000  0.5564280000000  0.5115470000000 1.0
C      1  0.5556830000000  0.5245380000000  0.4895390000000 1.0
C      1  0.5418020000000  0.4517090000000  0.4890170000000 1.0
C      1  0.4667740000000  0.4453600000000  0.4897860000000 1.0
C      1  0.4415780000000  0.5144120000000  0.4873700000000 1.0
C      1  0.4907700000000  0.5581140000000  0.4864990000000 1.0
C      1  0.4729080000000  0.5447720000000  0.4151810000000 1.0
C      1  0.5303130000000  0.5402570000000  0.4066450000000 1.0
C      1  0.5459110000000  0.4811440000000  0.4164820000000 1.0
C      1  0.5026470000000  0.4478470000000  0.4071200000000 1.0
C      1  0.4513060000000  0.4840080000000  0.4053570000000 1.0
C      1  0.4670440000000  0.5401310000000  0.5902580000000 1.0
C      1  0.5281560000000  0.5430600000000  0.5909540000000 1.0
C      1  0.5493630000000  0.4858000000000  0.5907800000000 1.0
C      1  0.4961210000000  0.4499050000000  0.5814580000000 1.0
C      1  0.4524700000000  0.4869570000000  0.5927120000000 1.0
C      1  0.5162980000000  0.5464890000000  0.4803220000000 1.0
C      1  0.5510350000000  0.4984780000000  0.4827360000000 1.0
C      1  0.5139530000000  0.4497690000000  0.4830560000000 1.0
C      1  0.4566690000000  0.4702200000000  0.4837770000000 1.0
C      1  0.4615750000000  0.5322910000000  0.4779890000000 1.0
C      1  0.5249320000000  0.5431100000000  0.5153060000000 1.0
C      1  0.5497400000000  0.4887100000000  0.5135530000000 1.0
C      1  0.5041610000000  0.4499410000000  0.5143180000000 1.0
C      1  0.4548220000000  0.4804940000000  0.5152180000000 1.0
C      1  0.4677570000000  0.5360270000000  0.5208410000000 1.0
C      1  0.5378860000000  0.5669620000000  0.4781150000000 1.0
C      1  0.5762500000000  0.4829570000000  0.4779530000000 1.0
C      1  0.5076940000000  0.4214780000000  0.4771600000000 1.0
C      1  0.4282270000000  0.4685730000000  0.4759520000000 1.0
C      1  0.4475900000000  0.5583230000000  0.4780090000000 1.0
C      1  0.5391120000000  0.5692030000000  0.5196730000000 1.0
C      1  0.5786820000000  0.4843930000000  0.5193310000000 1.0
C      1  0.5088120000000  0.4206910000000  0.5188220000000 1.0
C      1  0.4283360000000  0.4680070000000  0.5207780000000 1.0
C      1  0.4468420000000  0.5571710000000  0.5196550000000 1.0
C      1  0.5266010000000  0.4952390000000  0.5357430000000 1.0
C      1  0.5052290000000  0.4748370000000  0.5359310000000 1.0
C      1  0.4793830000000  0.4880260000000  0.5350820000000 1.0
C      1  0.4835530000000  0.5167940000000  0.5401980000000 1.0
C      1  0.5174780000000  0.5232780000000  0.5377180000000 1.0
C      1  0.5249000000000  0.4975400000000  0.4625040000000 1.0
C      1  0.5058710000000  0.4749640000000  0.4617510000000 1.0
C      1  0.4785240000000  0.4865060000000  0.4622470000000 1.0
C      1  0.4812940000000  0.5172550000000  0.4598090000000 1.0
C      1  0.5106140000000  0.5225310000000  0.4615210000000 1.0
C      1  0.4339770000000  0.5435230000000  0.5427570000000 1.0
C      1  0.5219890000000  0.5764090000000  0.5427940000000 1.0
C      1  0.5780810000000  0.5038340000000  0.5418270000000 1.0
C      1  0.5279120000000  0.4256170000000  0.5412930000000 1.0
C      1  0.4388490000000  0.4500110000000  0.5417000000000 1.0
C      1  0.4320650000000  0.5455430000000  0.4552670000000 1.0
C      1  0.5213840000000  0.5770820000000  0.4552600000000 1.0
C      1  0.5797750000000  0.5027890000000  0.4560170000000 1.0
C      1  0.5270390000000  0.4251280000000  0.4546030000000 1.0
C      1  0.4368580000000  0.4508700000000  0.4541330000000 1.0
C      1  0.5640700000000  0.5498390000000  0.4789050000000 1.0
C      1  0.5657080000000  0.4549690000000  0.4743830000000 1.0
C      1  0.4771240000000  0.4220760000000  0.4755880000000 1.0
C      1  0.4198850000000  0.4979920000000  0.4763400000000 1.0
C      1  0.4713020000000  0.5765740000000  0.4749880000000 1.0
C      1  0.5653260000000  0.5536850000000  0.5202800000000 1.0
C      1  0.5724900000000  0.4547180000000  0.5225760000000 1.0
C      1  0.4791450000000  0.4181150000000  0.5239780000000 1.0
C      1  0.4178010000000  0.4959880000000  0.5228160000000 1.0
C      1  0.4693860000000  0.5784150000000  0.5217920000000 1.0
C      1  0.4960730000000  0.5207010000000  0.5002890000000 1.0
C      1  0.5189180000000  0.5094150000000  0.4997160000000 1.0
C      1  0.4890010000000  0.4809970000000  0.4996200000000 1.0
C      1  0.4791940000000  0.5030170000000  0.4937410000000 1.0
C      1  0.5139530000000  0.4842020000000  0.4986290000000 1.0
END
