TITL C-2441168-9922-44 0.0257686857661621 125000 -18492.3930237057 0 0 132 (C1) n - 1
REM
REM in /home/bkarasulu/work/CARBON/AIRSS/Generating-Clusters/ReaxFF-fromJPCA2015/Units_Real/with-SteepDescent/Higher-Symm
REM
REM
REM
REM
REM
REM ./C.cell (1df0a924f5614ab8850e4351716899ee)
REM
REM compiler GCC version 9.2.1 20190827 (Red Hat 9.2.1-1)
REM options -cpp -mtune=generic -march=x86-64 -g -O0 -fpre-include=/usr/include/finclude/math-vector-fortran.h
REM seed -677027818 -42174183 468791717 261142834 -59546247 420818350 1844451631 456537268 338756718 -2003963120 652071291 -1462887188 1609692525 1783875255 -147391926 -1238501395 -1872164170 -297663781 1071879966 434959086 -202550601 -1317763296 314145236 543139162 -1098532930 -631245763 129516343 17225287 2112111048 -113681951 1686019057 1746445196 66054244
REM
CELL 1.54180   50.00000   50.00000   50.00000   90.00000   90.00000   90.00000
LATT -1
SFAC C  
C      1  0.4757350000000  0.5154890000000  0.5118370000000 1.0
C      1  0.4837420000000  0.5071410000000  0.4845560000000 1.0
C      1  0.4727650000000  0.4808850000000  0.4807800000000 1.0
C      1  0.4898240000000  0.4936260000000  0.5250760000000 1.0
C      1  0.5225550000000  0.5188440000000  0.5063030000000 1.0
C      1  0.5119450000000  0.5096590000000  0.4799690000000 1.0
C      1  0.5252280000000  0.4832360000000  0.4887970000000 1.0
C      1  0.5174190000000  0.4928450000000  0.5183090000000 1.0
C      1  0.4436470000000  0.4370810000000  0.4713040000000 1.0
C      1  0.4417340000000  0.4699440000000  0.5699250000000 1.0
C      1  0.4433050000000  0.5621280000000  0.5268030000000 1.0
C      1  0.4432930000000  0.5297670000000  0.4332950000000 1.0
C      1  0.5471360000000  0.4309650000000  0.4726340000000 1.0
C      1  0.5548290000000  0.4692750000000  0.5649560000000 1.0
C      1  0.5451090000000  0.5690910000000  0.5279340000000 1.0
C      1  0.5542300000000  0.5294230000000  0.4338560000000 1.0
C      1  0.5210790000000  0.4155220000000  0.4732320000000 1.0
C      1  0.5209650000000  0.4735480000000  0.5863490000000 1.0
C      1  0.5208790000000  0.5868760000000  0.5269390000000 1.0
C      1  0.5148760000000  0.5298360000000  0.4188900000000 1.0
C      1  0.4911990000000  0.4233620000000  0.4701640000000 1.0
C      1  0.4941900000000  0.4606500000000  0.5905160000000 1.0
C      1  0.4911240000000  0.5783830000000  0.5283620000000 1.0
C      1  0.4833610000000  0.5286730000000  0.4182160000000 1.0
C      1  0.5996640000000  0.5404980000000  0.4978920000000 1.0
C      1  0.5987140000000  0.4978530000000  0.4601520000000 1.0
C      1  0.6023090000000  0.4614720000000  0.4991540000000 1.0
C      1  0.5996600000000  0.5039020000000  0.5373610000000 1.0
C      1  0.3999270000000  0.5403390000000  0.4979530000000 1.0
C      1  0.3998650000000  0.4964420000000  0.4622110000000 1.0
C      1  0.3999690000000  0.4592990000000  0.5011960000000 1.0
C      1  0.3993940000000  0.5038790000000  0.5378060000000 1.0
C      1  0.5230870000000  0.4876210000000  0.4418510000000 1.0
C      1  0.5232940000000  0.4443510000000  0.5131580000000 1.0
C      1  0.5234940000000  0.5102440000000  0.5584320000000 1.0
C      1  0.5226780000000  0.5553470000000  0.4869390000000 1.0
C      1  0.4767030000000  0.4882160000000  0.4402430000000 1.0
C      1  0.4777290000000  0.4468850000000  0.5145950000000 1.0
C      1  0.4744400000000  0.5110880000000  0.5614370000000 1.0
C      1  0.4786650000000  0.5550720000000  0.4872130000000 1.0
C      1  0.4848310000000  0.4730130000000  0.4158470000000 1.0
C      1  0.4830160000000  0.4206120000000  0.5256730000000 1.0
C      1  0.4839290000000  0.5306010000000  0.5810280000000 1.0
C      1  0.4844260000000  0.5811180000000  0.4740630000000 1.0
C      1  0.5166980000000  0.4725740000000  0.4177220000000 1.0
C      1  0.5132260000000  0.4216650000000  0.5271430000000 1.0
C      1  0.5150320000000  0.5264240000000  0.5821130000000 1.0
C      1  0.5164140000000  0.5808950000000  0.4732570000000 1.0
C      1  0.4396700000000  0.5676350000000  0.5002710000000 1.0
C      1  0.4358110000000  0.5034720000000  0.4276740000000 1.0
C      1  0.4397440000000  0.4317800000000  0.4982720000000 1.0
C      1  0.4360330000000  0.4986990000000  0.5697420000000 1.0
C      1  0.5585770000000  0.5666100000000  0.5017330000000 1.0
C      1  0.5603860000000  0.5024950000000  0.4304520000000 1.0
C      1  0.5605700000000  0.4324940000000  0.4983340000000 1.0
C      1  0.5612570000000  0.4964820000000  0.5671370000000 1.0
C      1  0.4133180000000  0.5635740000000  0.4866700000000 1.0
C      1  0.4113180000000  0.4880360000000  0.4368940000000 1.0
C      1  0.4133180000000  0.4357440000000  0.5115840000000 1.0
C      1  0.4107260000000  0.5126890000000  0.5630540000000 1.0
C      1  0.5849310000000  0.5639850000000  0.4885760000000 1.0
C      1  0.5852850000000  0.4881140000000  0.4361840000000 1.0
C      1  0.5883070000000  0.4364170000000  0.5079560000000 1.0
C      1  0.5855900000000  0.5121870000000  0.5616140000000 1.0
C      1  0.5442250000000  0.4465410000000  0.5524890000000 1.0
C      1  0.5518860000000  0.5503970000000  0.5512140000000 1.0
C      1  0.5542580000000  0.5542950000000  0.4457580000000 1.0
C      1  0.5530720000000  0.4490070000000  0.4490000000000 1.0
C      1  0.4422800000000  0.4446700000000  0.5546490000000 1.0
C      1  0.4451020000000  0.5516250000000  0.5523490000000 1.0
C      1  0.4454650000000  0.5537300000000  0.4474910000000 1.0
C      1  0.4456460000000  0.4462150000000  0.4457990000000 1.0
C      1  0.5259450000000  0.5688770000000  0.4473970000000 1.0
C      1  0.5257610000000  0.4483410000000  0.4326420000000 1.0
C      1  0.5188970000000  0.4324960000000  0.5550380000000 1.0
C      1  0.5263950000000  0.5515050000000  0.5686270000000 1.0
C      1  0.4756990000000  0.5683740000000  0.4486210000000 1.0
C      1  0.4751860000000  0.4489330000000  0.4312900000000 1.0
C      1  0.4701920000000  0.4320330000000  0.5517340000000 1.0
C      1  0.4749930000000  0.5543000000000  0.5681400000000 1.0
C      1  0.4866530000000  0.4069440000000  0.4945620000000 1.0
C      1  0.4847130000000  0.4860720000000  0.6003060000000 1.0
C      1  0.4870990000000  0.5951190000000  0.5044940000000 1.0
C      1  0.4865150000000  0.5036140000000  0.4022330000000 1.0
C      1  0.5142710000000  0.4028210000000  0.4983650000000 1.0
C      1  0.5103180000000  0.4977450000000  0.5998560000000 1.0
C      1  0.5150150000000  0.5994110000000  0.5013220000000 1.0
C      1  0.5145270000000  0.5050860000000  0.4034290000000 1.0
C      1  0.5921720000000  0.4450940000000  0.5358220000000 1.0
C      1  0.5813500000000  0.5390390000000  0.5503800000000 1.0
C      1  0.5806740000000  0.5519590000000  0.4618040000000 1.0
C      1  0.5820180000000  0.4614500000000  0.4481800000000 1.0
C      1  0.4174890000000  0.4469820000000  0.5380170000000 1.0
C      1  0.4149830000000  0.5395740000000  0.5517680000000 1.0
C      1  0.4173740000000  0.5504230000000  0.4609040000000 1.0
C      1  0.4173200000000  0.4613300000000  0.4479530000000 1.0
C      1  0.5600860000000  0.5179620000000  0.4899520000000 1.0
C      1  0.5529140000000  0.4902420000000  0.4812240000000 1.0
C      1  0.5630270000000  0.4790680000000  0.5130020000000 1.0
C      1  0.5579240000000  0.5072910000000  0.5183320000000 1.0
C      1  0.4400970000000  0.5181260000000  0.4874730000000 1.0
C      1  0.4469450000000  0.4914860000000  0.4759190000000 1.0
C      1  0.4386110000000  0.4801110000000  0.5162180000000 1.0
C      1  0.4471660000000  0.5082730000000  0.5183640000000 1.0
C      1  0.4106170000000  0.5234860000000  0.4751370000000 1.0
C      1  0.4027830000000  0.4693760000000  0.4732020000000 1.0
C      1  0.4099410000000  0.4754720000000  0.5252280000000 1.0
C      1  0.4017290000000  0.5306260000000  0.5264790000000 1.0
C      1  0.5904160000000  0.5249140000000  0.4736980000000 1.0
C      1  0.5975360000000  0.4708950000000  0.4717500000000 1.0
C      1  0.5924260000000  0.4765260000000  0.5234550000000 1.0
C      1  0.5965780000000  0.5308350000000  0.5261510000000 1.0
C      1  0.5151190000000  0.4832400000000  0.5576600000000 1.0
C      1  0.5155480000000  0.5458010000000  0.5127720000000 1.0
C      1  0.5144230000000  0.5145300000000  0.4481400000000 1.0
C      1  0.5140540000000  0.4567680000000  0.4911980000000 1.0
C      1  0.4871500000000  0.4876330000000  0.5521580000000 1.0
C      1  0.4862280000000  0.5497660000000  0.5148210000000 1.0
C      1  0.4847560000000  0.5152160000000  0.4450600000000 1.0
C      1  0.4854870000000  0.4534410000000  0.4869810000000 1.0
C      1  0.5485680000000  0.4831540000000  0.4525820000000 1.0
C      1  0.5486480000000  0.4507320000000  0.5207160000000 1.0
C      1  0.5480100000000  0.5159940000000  0.5460820000000 1.0
C      1  0.5476180000000  0.5452540000000  0.4842630000000 1.0
C      1  0.4498550000000  0.4849240000000  0.4475330000000 1.0
C      1  0.4509820000000  0.4544720000000  0.5152520000000 1.0
C      1  0.4494120000000  0.5170880000000  0.5494950000000 1.0
C      1  0.4525430000000  0.5456380000000  0.4820980000000 1.0
C      1  0.4933540000000  0.4403060000000  0.5669190000000 1.0
C      1  0.5007410000000  0.5608890000000  0.4372120000000 1.0
C      1  0.5011230000000  0.5627110000000  0.5616170000000 1.0
C      1  0.4996810000000  0.4376790000000  0.4406340000000 1.0
END
