TITL C-2441160-1326-319 0.00821821603861389 125000 -17065.8944975756 0 0 111 (C1) n - 1
REM
REM in /home/bkarasulu/work/CARBON/AIRSS/Generating-Clusters/ReaxFF-fromJPCA2015/Units_Real/with-SteepDescent/Higher-Symm
REM
REM
REM
REM
REM
REM ./C.cell (1df0a924f5614ab8850e4351716899ee)
REM
REM compiler GCC version 9.2.1 20190827 (Red Hat 9.2.1-1)
REM options -cpp -mtune=generic -march=x86-64 -g -O0 -fpre-include=/usr/include/finclude/math-vector-fortran.h
REM seed -627068352 67336766 1712327508 1610966840 182208286 -407924545 -1550713316 1100730612 1455475899 -2144664530 -25596767 -657070447 -1121577714 -1948399584 -1568076116 1352048764 426784290 -999422105 1225442094 921419962 1238449615 1480335086 -1829951041 -1624217067 -1626206181 1992543270 -1004775087 -1268223928 -1530372462 371060338 698970428 -402874346 277766873
REM
CELL 1.54180   50.00000   50.00000   50.00000   90.00000   90.00000   90.00000
LATT -1
SFAC C  
C      1  0.4473630000000  0.5704770000000  0.5055850000000 1.0
C      1  0.5310570000000  0.5717300000000  0.5426240000000 1.0
C      1  0.5212620000000  0.5715550000000  0.4521060000000 1.0
C      1  0.4837940000000  0.4594630000000  0.5715620000000 1.0
C      1  0.5698730000000  0.4564290000000  0.4680510000000 1.0
C      1  0.4363150000000  0.4536870000000  0.4481350000000 1.0
C      1  0.5656260000000  0.5437280000000  0.4532620000000 1.0
C      1  0.4281350000000  0.5416510000000  0.4664770000000 1.0
C      1  0.5086080000000  0.5445160000000  0.5818180000000 1.0
C      1  0.5110270000000  0.4306290000000  0.4386110000000 1.0
C      1  0.4369800000000  0.4281680000000  0.5208830000000 1.0
C      1  0.5486710000000  0.4302770000000  0.5435600000000 1.0
C      1  0.5227010000000  0.5269450000000  0.4715320000000 1.0
C      1  0.4583700000000  0.5222330000000  0.4966210000000 1.0
C      1  0.5174820000000  0.5245640000000  0.5376790000000 1.0
C      1  0.5297780000000  0.4345070000000  0.5656830000000 1.0
C      1  0.5397480000000  0.4327840000000  0.4410140000000 1.0
C      1  0.4257420000000  0.4321370000000  0.4946110000000 1.0
C      1  0.4623250000000  0.5587580000000  0.5512330000000 1.0
C      1  0.5657900000000  0.5618700000000  0.5083020000000 1.0
C      1  0.4749470000000  0.5581970000000  0.4388320000000 1.0
C      1  0.5511440000000  0.5751710000000  0.4877400000000 1.0
C      1  0.4641320000000  0.5729040000000  0.4613000000000 1.0
C      1  0.4851700000000  0.5746670000000  0.5505370000000 1.0
C      1  0.4439380000000  0.4904510000000  0.5706930000000 1.0
C      1  0.5893260000000  0.4924150000000  0.5145220000000 1.0
C      1  0.4863560000000  0.4895300000000  0.4138850000000 1.0
C      1  0.4435960000000  0.4650420000000  0.5558280000000 1.0
C      1  0.5756730000000  0.4653710000000  0.5172190000000 1.0
C      1  0.4762090000000  0.4645590000000  0.4193710000000 1.0
C      1  0.5583300000000  0.4665370000000  0.4933330000000 1.0
C      1  0.4608800000000  0.4686650000000  0.4466940000000 1.0
C      1  0.4718550000000  0.4655510000000  0.5461680000000 1.0
C      1  0.4878650000000  0.5174550000000  0.5353870000000 1.0
C      1  0.5375870000000  0.5111990000000  0.4905430000000 1.0
C      1  0.4735330000000  0.5135500000000  0.4734400000000 1.0
C      1  0.5007960000000  0.4366420000000  0.5632900000000 1.0
C      1  0.5564820000000  0.4304240000000  0.4652950000000 1.0
C      1  0.4407200000000  0.4325850000000  0.4686380000000 1.0
C      1  0.5420770000000  0.4549000000000  0.5837370000000 1.0
C      1  0.5486820000000  0.4567660000000  0.4260160000000 1.0
C      1  0.4045210000000  0.4532320000000  0.4950710000000 1.0
C      1  0.5033680000000  0.5574790000000  0.4346290000000 1.0
C      1  0.4417590000000  0.5566090000000  0.5310760000000 1.0
C      1  0.5555850000000  0.5580000000000  0.5350670000000 1.0
C      1  0.4624710000000  0.5344130000000  0.4295890000000 1.0
C      1  0.4677020000000  0.5314520000000  0.5597140000000 1.0
C      1  0.5814560000000  0.5391930000000  0.5006270000000 1.0
C      1  0.4789960000000  0.4831170000000  0.4737560000000 1.0
C      1  0.4857150000000  0.4848960000000  0.5262690000000 1.0
C      1  0.5293310000000  0.4800080000000  0.4931200000000 1.0
C      1  0.5091270000000  0.4785740000000  0.4697630000000 1.0
C      1  0.4675850000000  0.4797730000000  0.5021140000000 1.0
C      1  0.5160230000000  0.4780190000000  0.5213100000000 1.0
C      1  0.4946520000000  0.4220160000000  0.4627510000000 1.0
C      1  0.4641330000000  0.4179780000000  0.5260810000000 1.0
C      1  0.5418210000000  0.4177610000000  0.5181460000000 1.0
C      1  0.5746310000000  0.4996130000000  0.4410500000000 1.0
C      1  0.4059010000000  0.5014160000000  0.4667390000000 1.0
C      1  0.5161630000000  0.5009630000000  0.5983640000000 1.0
C      1  0.4886960000000  0.4231500000000  0.5402210000000 1.0
C      1  0.5484180000000  0.4170900000000  0.4898640000000 1.0
C      1  0.4679930000000  0.4261660000000  0.4669500000000 1.0
C      1  0.4240670000000  0.5030520000000  0.4431400000000 1.0
C      1  0.4860180000000  0.5037350000000  0.5958310000000 1.0
C      1  0.5916150000000  0.5065510000000  0.4645960000000 1.0
C      1  0.5291630000000  0.5239820000000  0.5836200000000 1.0
C      1  0.5573490000000  0.5220940000000  0.4372200000000 1.0
C      1  0.4147670000000  0.5238510000000  0.4831490000000 1.0
C      1  0.5336040000000  0.4751400000000  0.5413340000000 1.0
C      1  0.5197730000000  0.4868530000000  0.4444130000000 1.0
C      1  0.4400070000000  0.4854030000000  0.5080200000000 1.0
C      1  0.5100490000000  0.5654450000000  0.5615350000000 1.0
C      1  0.5482410000000  0.5650640000000  0.4609180000000 1.0
C      1  0.4424640000000  0.5632120000000  0.4777720000000 1.0
C      1  0.5540570000000  0.4711270000000  0.5605260000000 1.0
C      1  0.5235810000000  0.4711380000000  0.4196140000000 1.0
C      1  0.4172620000000  0.4693720000000  0.5179630000000 1.0
C      1  0.5272900000000  0.4321210000000  0.4996660000000 1.0
C      1  0.5008430000000  0.4299040000000  0.4913830000000 1.0
C      1  0.4844110000000  0.4320660000000  0.5140480000000 1.0
C      1  0.4310340000000  0.5162290000000  0.5066550000000 1.0
C      1  0.5400840000000  0.5197550000000  0.5570830000000 1.0
C      1  0.5281080000000  0.5177120000000  0.4405220000000 1.0
C      1  0.5086260000000  0.5321500000000  0.4240840000000 1.0
C      1  0.4303840000000  0.5302650000000  0.5351330000000 1.0
C      1  0.5636420000000  0.5311490000000  0.5434290000000 1.0
C      1  0.5274770000000  0.5882410000000  0.4950420000000 1.0
C      1  0.4816960000000  0.5873340000000  0.4781510000000 1.0
C      1  0.4900720000000  0.5882550000000  0.5266450000000 1.0
C      1  0.4030630000000  0.4761980000000  0.4795750000000 1.0
C      1  0.5286690000000  0.4769060000000  0.5929830000000 1.0
C      1  0.5681380000000  0.4713000000000  0.4419290000000 1.0
C      1  0.4689490000000  0.4824010000000  0.5852220000000 1.0
C      1  0.5914630000000  0.4882890000000  0.4865520000000 1.0
C      1  0.4365140000000  0.4792000000000  0.4373400000000 1.0
C      1  0.5801680000000  0.5198660000000  0.5220100000000 1.0
C      1  0.4842950000000  0.5178130000000  0.4167040000000 1.0
C      1  0.4404410000000  0.5168650000000  0.5583090000000 1.0
C      1  0.5181880000000  0.5872120000000  0.5218860000000 1.0
C      1  0.5095320000000  0.5869640000000  0.4732340000000 1.0
C      1  0.4712530000000  0.5864930000000  0.5049400000000 1.0
C      1  0.4962150000000  0.5297770000000  0.4821920000000 1.0
C      1  0.4821770000000  0.5312480000000  0.5098290000000 1.0
C      1  0.5275720000000  0.5238990000000  0.5120290000000 1.0
C      1  0.4374200000000  0.5282600000000  0.4425260000000 1.0
C      1  0.4834940000000  0.5301710000000  0.5855690000000 1.0
C      1  0.5840380000000  0.5337490000000  0.4723590000000 1.0
C      1  0.5019480000000  0.4505790000000  0.4188170000000 1.0
C      1  0.4262440000000  0.4498910000000  0.5376340000000 1.0
C      1  0.5685410000000  0.4521130000000  0.5427780000000 1.0
END
