TITL C-2441163-1170-774 0.0547934274144354 125000 -15483.0275996637 0 0 112 (C1) n - 1
REM
REM in /home/bkarasulu/work/CARBON/AIRSS/Generating-Clusters/ReaxFF-fromJPCA2015/Units_Real/with-SteepDescent/Higher-Symm
REM
REM
REM
REM
REM
REM ./C.cell (1df0a924f5614ab8850e4351716899ee)
REM
REM compiler GCC version 9.2.1 20190827 (Red Hat 9.2.1-1)
REM options -cpp -mtune=generic -march=x86-64 -g -O0 -fpre-include=/usr/include/finclude/math-vector-fortran.h
REM seed -2121148475 -1462568185 902924311 1343755009 -1118343336 -295009800 241114930 -1665481988 -416064349 1036973760 -1605049126 -2132942229 1698932763 834267409 242239524 2067658158 -760495443 528841810 880005995 -807808470 714557427 -2008969238 -580950157 1495838113 1576216217 1225441690 787980099 1475753565 -925319147 -215213502 -2044647301 1676985359 1376233012
REM
CELL 1.54180   50.00000   50.00000   50.00000   90.00000   90.00000   90.00000
LATT -1
SFAC C  
C      1  0.4287090000000  0.4533430000000  0.5243290000000 1.0
C      1  0.5757050000000  0.4610250000000  0.5235940000000 1.0
C      1  0.4948900000000  0.5839170000000  0.5241470000000 1.0
C      1  0.4400350000000  0.4412980000000  0.4763560000000 1.0
C      1  0.5793120000000  0.4774640000000  0.4772070000000 1.0
C      1  0.4794260000000  0.5798140000000  0.4778250000000 1.0
C      1  0.5357590000000  0.4560420000000  0.5706050000000 1.0
C      1  0.5195130000000  0.5490540000000  0.5699830000000 1.0
C      1  0.4443750000000  0.4930640000000  0.5660170000000 1.0
C      1  0.4830720000000  0.4173500000000  0.5000980000000 1.0
C      1  0.5790080000000  0.5264760000000  0.4993850000000 1.0
C      1  0.4354820000000  0.5556180000000  0.4998400000000 1.0
C      1  0.5379380000000  0.5273760000000  0.5776300000000 1.0
C      1  0.4528900000000  0.5189260000000  0.5784080000000 1.0
C      1  0.5075830000000  0.4519280000000  0.5786030000000 1.0
C      1  0.5516500000000  0.4304870000000  0.5098850000000 1.0
C      1  0.5331370000000  0.5785260000000  0.5100010000000 1.0
C      1  0.4149970000000  0.4898770000000  0.5107810000000 1.0
C      1  0.5128800000000  0.4752010000000  0.4495830000000 1.0
C      1  0.5141000000000  0.5244050000000  0.4473910000000 1.0
C      1  0.4720060000000  0.5002630000000  0.4498750000000 1.0
C      1  0.5468930000000  0.4597950000000  0.5182890000000 1.0
C      1  0.5099210000000  0.5591530000000  0.5185800000000 1.0
C      1  0.4422020000000  0.4776970000000  0.5158070000000 1.0
C      1  0.5455950000000  0.4654060000000  0.4197790000000 1.0
C      1  0.5021820000000  0.5615790000000  0.4253400000000 1.0
C      1  0.4487820000000  0.4766600000000  0.4193230000000 1.0
C      1  0.4565130000000  0.4668980000000  0.5624430000000 1.0
C      1  0.5510440000000  0.4799440000000  0.5629580000000 1.0
C      1  0.4902840000000  0.5512120000000  0.5620260000000 1.0
C      1  0.4838540000000  0.5218570000000  0.4067070000000 1.0
C      1  0.4885100000000  0.4729070000000  0.4074480000000 1.0
C      1  0.5284600000000  0.5008410000000  0.4060970000000 1.0
C      1  0.4426650000000  0.5401280000000  0.5579280000000 1.0
C      1  0.4947680000000  0.4330000000000  0.5586610000000 1.0
C      1  0.5606370000000  0.5279270000000  0.5577670000000 1.0
C      1  0.5541570000000  0.4631710000000  0.4722220000000 1.0
C      1  0.5046230000000  0.5658130000000  0.4740220000000 1.0
C      1  0.4403110000000  0.4701720000000  0.4709170000000 1.0
C      1  0.5654290000000  0.5512120000000  0.5405090000000 1.0
C      1  0.4215070000000  0.5306330000000  0.5405620000000 1.0
C      1  0.5119290000000  0.4169220000000  0.5411220000000 1.0
C      1  0.4369680000000  0.5516480000000  0.4720550000000 1.0
C      1  0.4854940000000  0.4197240000000  0.4726450000000 1.0
C      1  0.5751960000000  0.5276500000000  0.4721880000000 1.0
C      1  0.5257320000000  0.5552450000000  0.5429330000000 1.0
C      1  0.4473700000000  0.4986740000000  0.5371600000000 1.0
C      1  0.5358130000000  0.4488650000000  0.5427860000000 1.0
C      1  0.4847270000000  0.5081290000000  0.5585210000000 1.0
C      1  0.5007270000000  0.4837140000000  0.5592370000000 1.0
C      1  0.5121970000000  0.5066500000000  0.5591630000000 1.0
C      1  0.5535750000000  0.4934420000000  0.4184270000000 1.0
C      1  0.4779390000000  0.5487080000000  0.4169460000000 1.0
C      1  0.4687430000000  0.4552480000000  0.4186520000000 1.0
C      1  0.5113070000000  0.5225790000000  0.4149790000000 1.0
C      1  0.4723080000000  0.4958850000000  0.4148230000000 1.0
C      1  0.5167830000000  0.4757470000000  0.4152560000000 1.0
C      1  0.5224490000000  0.4452330000000  0.4486690000000 1.0
C      1  0.5350440000000  0.5478890000000  0.4474710000000 1.0
C      1  0.4409730000000  0.5066380000000  0.4481270000000 1.0
C      1  0.5314680000000  0.5064740000000  0.5183210000000 1.0
C      1  0.4675550000000  0.5177440000000  0.5230110000000 1.0
C      1  0.4904530000000  0.4692270000000  0.5189420000000 1.0
C      1  0.4426740000000  0.4454620000000  0.5492510000000 1.0
C      1  0.5757010000000  0.4774930000000  0.5485860000000 1.0
C      1  0.4812450000000  0.5755260000000  0.5491120000000 1.0
C      1  0.5555000000000  0.5490040000000  0.4677670000000 1.0
C      1  0.4289970000000  0.5233540000000  0.4684770000000 1.0
C      1  0.5139920000000  0.4262320000000  0.4687440000000 1.0
C      1  0.5187050000000  0.5065660000000  0.5882720000000 1.0
C      1  0.4791560000000  0.5121430000000  0.5875510000000 1.0
C      1  0.5033530000000  0.4805650000000  0.5867710000000 1.0
C      1  0.5356330000000  0.4985850000000  0.5430100000000 1.0
C      1  0.4845760000000  0.5319720000000  0.5402260000000 1.0
C      1  0.4817160000000  0.4688300000000  0.5441400000000 1.0
C      1  0.5285280000000  0.5004110000000  0.4593410000000 1.0
C      1  0.4850600000000  0.5247510000000  0.4597640000000 1.0
C      1  0.4851470000000  0.4742090000000  0.4598220000000 1.0
C      1  0.5830450000000  0.5045790000000  0.5155420000000 1.0
C      1  0.4531620000000  0.5695180000000  0.5157360000000 1.0
C      1  0.4627550000000  0.4257220000000  0.5167220000000 1.0
C      1  0.4589110000000  0.5672830000000  0.4610810000000 1.0
C      1  0.4615680000000  0.4295580000000  0.4610350000000 1.0
C      1  0.5787020000000  0.5016030000000  0.4611950000000 1.0
C      1  0.4384720000000  0.4347450000000  0.5045630000000 1.0
C      1  0.5857160000000  0.4792540000000  0.5044070000000 1.0
C      1  0.4741660000000  0.5841330000000  0.5050520000000 1.0
C      1  0.5518050000000  0.5636220000000  0.4931120000000 1.0
C      1  0.4172530000000  0.5135570000000  0.4935140000000 1.0
C      1  0.5288900000000  0.4220000000000  0.4935100000000 1.0
C      1  0.5111030000000  0.5457860000000  0.4928740000000 1.0
C      1  0.4550180000000  0.4854430000000  0.4905080000000 1.0
C      1  0.5341320000000  0.4671180000000  0.4923520000000 1.0
C      1  0.5771980000000  0.5064420000000  0.5443740000000 1.0
C      1  0.4547140000000  0.5637910000000  0.5449290000000 1.0
C      1  0.4675460000000  0.4305130000000  0.5453490000000 1.0
C      1  0.4684900000000  0.5444950000000  0.4460190000000 1.0
C      1  0.4760250000000  0.4495390000000  0.4461280000000 1.0
C      1  0.5544460000000  0.5032410000000  0.4455640000000 1.0
C      1  0.5403740000000  0.4220480000000  0.5359350000000 1.0
C      1  0.5461730000000  0.5729440000000  0.5359100000000 1.0
C      1  0.4180490000000  0.5020540000000  0.5370190000000 1.0
C      1  0.5176430000000  0.5712080000000  0.4469150000000 1.0
C      1  0.4326790000000  0.4795260000000  0.4439240000000 1.0
C      1  0.5502610000000  0.4514080000000  0.4451990000000 1.0
C      1  0.4216810000000  0.5351980000000  0.5117160000000 1.0
C      1  0.5076030000000  0.4166090000000  0.5122160000000 1.0
C      1  0.5673720000000  0.5479010000000  0.5115910000000 1.0
C      1  0.5043080000000  0.4731460000000  0.4931790000000 1.0
C      1  0.5208730000000  0.5175240000000  0.4921140000000 1.0
C      1  0.4727350000000  0.5086890000000  0.4951150000000 1.0
C      1  0.4987270000000  0.5007970000000  0.4912920000000 1.0
END
