TITL C-2441155-8282-189 0.0788575873964189 125000 -22975.5988679887 0 0 169 (C1) n - 1
REM
REM in /home/bkarasulu/work/CARBON/AIRSS/Generating-Clusters/ReaxFF-fromJPCA2015/Units_Real/with-SteepDescent/Higher-Symm
REM
REM
REM
REM
REM
REM ./C.cell (1df0a924f5614ab8850e4351716899ee)
REM
REM compiler GCC version 9.2.1 20190827 (Red Hat 9.2.1-1)
REM options -cpp -mtune=generic -march=x86-64 -g -O0 -fpre-include=/usr/include/finclude/math-vector-fortran.h
REM seed -152439891 1190566009 1465915852 986954703 569916345 -399120172 -784253463 1522468464 -302289269 -1071157858 -11591694 327186058 -233349891 1040595112 356107811 -1260422947 1660125921 897665638 -79510691 1500630026 -1048416464 1193277875 1975202921 -439234267 -1204288944 -2113202971 724818913 -1869980128 -1056656108 558751942 -694505659 906961339 1789761055
REM
CELL 1.54180   50.00000   50.00000   50.00000   90.00000   90.00000   90.00000
LATT -1
SFAC C  
C      1  0.5100010000000  0.5101960000000  0.3939280000000 1.0
C      1  0.5086610000000  0.4889010000000  0.6050040000000 1.0
C      1  0.4912550000000  0.4871810000000  0.3938900000000 1.0
C      1  0.4904540000000  0.5126130000000  0.6044550000000 1.0
C      1  0.5127130000000  0.4684020000000  0.4778100000000 1.0
C      1  0.5139610000000  0.5294070000000  0.5212880000000 1.0
C      1  0.4869760000000  0.5282490000000  0.4765400000000 1.0
C      1  0.4815390000000  0.4625090000000  0.5241400000000 1.0
C      1  0.4670580000000  0.4973940000000  0.6007550000000 1.0
C      1  0.4672590000000  0.5032930000000  0.3963830000000 1.0
C      1  0.5317320000000  0.5038190000000  0.6043540000000 1.0
C      1  0.5337370000000  0.4966080000000  0.3983810000000 1.0
C      1  0.5490880000000  0.4056140000000  0.4841560000000 1.0
C      1  0.5510850000000  0.5925720000000  0.5171690000000 1.0
C      1  0.4585360000000  0.5917840000000  0.4817750000000 1.0
C      1  0.4592420000000  0.4163300000000  0.5162520000000 1.0
C      1  0.5299840000000  0.4852720000000  0.4692780000000 1.0
C      1  0.5337570000000  0.5088860000000  0.5279130000000 1.0
C      1  0.4661250000000  0.5096990000000  0.4726760000000 1.0
C      1  0.4678820000000  0.4841220000000  0.5299860000000 1.0
C      1  0.5159910000000  0.5545460000000  0.4720980000000 1.0
C      1  0.5206080000000  0.4579040000000  0.5316620000000 1.0
C      1  0.4784680000000  0.4482070000000  0.4673340000000 1.0
C      1  0.4787710000000  0.5542150000000  0.5315980000000 1.0
C      1  0.4060080000000  0.5114410000000  0.4680260000000 1.0
C      1  0.4087190000000  0.4905310000000  0.5311520000000 1.0
C      1  0.5929700000000  0.4910900000000  0.4667800000000 1.0
C      1  0.5933040000000  0.5117040000000  0.5321950000000 1.0
C      1  0.5069290000000  0.4896200000000  0.5610310000000 1.0
C      1  0.5072640000000  0.5140750000000  0.4353730000000 1.0
C      1  0.4907210000000  0.5130230000000  0.5617620000000 1.0
C      1  0.4902840000000  0.4897250000000  0.4404420000000 1.0
C      1  0.5716390000000  0.5133470000000  0.5827410000000 1.0
C      1  0.5719370000000  0.4855170000000  0.4169640000000 1.0
C      1  0.4271840000000  0.4846690000000  0.5819140000000 1.0
C      1  0.4278930000000  0.5147680000000  0.4181530000000 1.0
C      1  0.4521710000000  0.5198140000000  0.5224650000000 1.0
C      1  0.4387540000000  0.4759520000000  0.4718690000000 1.0
C      1  0.5631430000000  0.4777820000000  0.5199420000000 1.0
C      1  0.5461200000000  0.5212300000000  0.4725670000000 1.0
C      1  0.4824140000000  0.5551500000000  0.4398310000000 1.0
C      1  0.4822060000000  0.4441180000000  0.5626280000000 1.0
C      1  0.5169950000000  0.4453090000000  0.4398550000000 1.0
C      1  0.5164420000000  0.5550450000000  0.5597950000000 1.0
C      1  0.4624350000000  0.5183350000000  0.5622250000000 1.0
C      1  0.4620640000000  0.4829460000000  0.4392270000000 1.0
C      1  0.5340230000000  0.4838070000000  0.5661330000000 1.0
C      1  0.5377900000000  0.5182740000000  0.4402600000000 1.0
C      1  0.5211660000000  0.5097580000000  0.4806160000000 1.0
C      1  0.5230320000000  0.4842200000000  0.5187850000000 1.0
C      1  0.4799930000000  0.4873450000000  0.4843220000000 1.0
C      1  0.4797810000000  0.5082660000000  0.5217820000000 1.0
C      1  0.4738560000000  0.5311110000000  0.4008810000000 1.0
C      1  0.4730170000000  0.4695400000000  0.5989700000000 1.0
C      1  0.5270920000000  0.4688760000000  0.4021650000000 1.0
C      1  0.5263940000000  0.5318600000000  0.5991070000000 1.0
C      1  0.5568830000000  0.5106530000000  0.4133190000000 1.0
C      1  0.5523340000000  0.4919880000000  0.5880990000000 1.0
C      1  0.4467470000000  0.4933030000000  0.4146150000000 1.0
C      1  0.4430140000000  0.5101280000000  0.5864420000000 1.0
C      1  0.4997190000000  0.4630500000000  0.4544420000000 1.0
C      1  0.4996650000000  0.5380340000000  0.5457180000000 1.0
C      1  0.5001060000000  0.5387200000000  0.4542160000000 1.0
C      1  0.4967840000000  0.4623010000000  0.5468530000000 1.0
C      1  0.4976460000000  0.5661800000000  0.4892370000000 1.0
C      1  0.5120460000000  0.4357990000000  0.5066620000000 1.0
C      1  0.4924560000000  0.4298250000000  0.4856580000000 1.0
C      1  0.4951800000000  0.5741530000000  0.5171220000000 1.0
C      1  0.4792960000000  0.5589330000000  0.5798150000000 1.0
C      1  0.4799220000000  0.4412770000000  0.4203350000000 1.0
C      1  0.5205470000000  0.4439710000000  0.5789570000000 1.0
C      1  0.5224510000000  0.5590660000000  0.4240970000000 1.0
C      1  0.4843590000000  0.4174190000000  0.4377930000000 1.0
C      1  0.4838320000000  0.5825940000000  0.5628050000000 1.0
C      1  0.5159450000000  0.5830540000000  0.4390110000000 1.0
C      1  0.5155050000000  0.4193120000000  0.5628610000000 1.0
C      1  0.4481780000000  0.5354880000000  0.4126570000000 1.0
C      1  0.4471150000000  0.4636800000000  0.5888400000000 1.0
C      1  0.5531050000000  0.4633500000000  0.4122330000000 1.0
C      1  0.5524400000000  0.5350350000000  0.5875250000000 1.0
C      1  0.4565870000000  0.4506100000000  0.5658120000000 1.0
C      1  0.4573210000000  0.5464900000000  0.4368110000000 1.0
C      1  0.5420200000000  0.5474320000000  0.5643590000000 1.0
C      1  0.5428020000000  0.4522540000000  0.4358520000000 1.0
C      1  0.5723970000000  0.4482490000000  0.5508520000000 1.0
C      1  0.5739110000000  0.5460380000000  0.4479490000000 1.0
C      1  0.4265610000000  0.5482540000000  0.5542380000000 1.0
C      1  0.4266840000000  0.4472680000000  0.4441060000000 1.0
C      1  0.4595680000000  0.4523620000000  0.4394050000000 1.0
C      1  0.4590490000000  0.5476400000000  0.5603920000000 1.0
C      1  0.5440070000000  0.5470530000000  0.4384120000000 1.0
C      1  0.5385500000000  0.4559790000000  0.5575560000000 1.0
C      1  0.5309880000000  0.4120040000000  0.5393940000000 1.0
C      1  0.5303780000000  0.5931780000000  0.4639650000000 1.0
C      1  0.4641730000000  0.5912460000000  0.5412020000000 1.0
C      1  0.4654800000000  0.4093230000000  0.4600550000000 1.0
C      1  0.4483580000000  0.5247380000000  0.4555490000000 1.0
C      1  0.4470830000000  0.4745290000000  0.5475180000000 1.0
C      1  0.5512350000000  0.4737880000000  0.4541400000000 1.0
C      1  0.5533060000000  0.5232320000000  0.5432540000000 1.0
C      1  0.4813390000000  0.3982390000000  0.5114510000000 1.0
C      1  0.4816820000000  0.6062800000000  0.4914890000000 1.0
C      1  0.5285590000000  0.6009520000000  0.5055700000000 1.0
C      1  0.5238680000000  0.3972340000000  0.4909850000000 1.0
C      1  0.4413050000000  0.4227620000000  0.4679670000000 1.0
C      1  0.4420890000000  0.5783960000000  0.5280040000000 1.0
C      1  0.5539510000000  0.5784220000000  0.4733770000000 1.0
C      1  0.5557960000000  0.4233950000000  0.5320100000000 1.0
C      1  0.5563420000000  0.4598990000000  0.4988220000000 1.0
C      1  0.5417610000000  0.5498710000000  0.4833570000000 1.0
C      1  0.4603000000000  0.5451310000000  0.5113790000000 1.0
C      1  0.4623590000000  0.4640580000000  0.4861910000000 1.0
C      1  0.4716330000000  0.5522230000000  0.4857300000000 1.0
C      1  0.4630180000000  0.4463260000000  0.5121320000000 1.0
C      1  0.5311230000000  0.4499890000000  0.4899970000000 1.0
C      1  0.5330660000000  0.5493370000000  0.5138350000000 1.0
C      1  0.5028490000000  0.4616340000000  0.5956690000000 1.0
C      1  0.5028900000000  0.5345840000000  0.4092420000000 1.0
C      1  0.4973990000000  0.5396740000000  0.5948880000000 1.0
C      1  0.4980190000000  0.4607160000000  0.4046570000000 1.0
C      1  0.4860870000000  0.4164980000000  0.5600530000000 1.0
C      1  0.4862560000000  0.5829930000000  0.4391150000000 1.0
C      1  0.5129160000000  0.5828670000000  0.5580470000000 1.0
C      1  0.5133750000000  0.4175300000000  0.4427020000000 1.0
C      1  0.4843910000000  0.4019000000000  0.4826600000000 1.0
C      1  0.4829890000000  0.6003730000000  0.5200130000000 1.0
C      1  0.5120130000000  0.6059970000000  0.4844800000000 1.0
C      1  0.5112400000000  0.3995650000000  0.5166400000000 1.0
C      1  0.4056190000000  0.5386160000000  0.4783280000000 1.0
C      1  0.4066660000000  0.4620650000000  0.5224840000000 1.0
C      1  0.5948320000000  0.4639220000000  0.4751580000000 1.0
C      1  0.5946710000000  0.5390660000000  0.5231980000000 1.0
C      1  0.4402520000000  0.5672790000000  0.4471790000000 1.0
C      1  0.4401390000000  0.4302520000000  0.5521950000000 1.0
C      1  0.5594240000000  0.4318670000000  0.4479610000000 1.0
C      1  0.5583610000000  0.5678650000000  0.5519370000000 1.0
C      1  0.4154880000000  0.5492170000000  0.5287630000000 1.0
C      1  0.4167330000000  0.4560280000000  0.4715970000000 1.0
C      1  0.5858290000000  0.4599610000000  0.5271300000000 1.0
C      1  0.5851670000000  0.5389560000000  0.4741700000000 1.0
C      1  0.5875420000000  0.5541550000000  0.4986290000000 1.0
C      1  0.5836450000000  0.4467880000000  0.5002900000000 1.0
C      1  0.4131630000000  0.4451670000000  0.4989050000000 1.0
C      1  0.4159310000000  0.5562360000000  0.5021590000000 1.0
C      1  0.5757980000000  0.5112600000000  0.4831610000000 1.0
C      1  0.5735250000000  0.5042660000000  0.5133070000000 1.0
C      1  0.4253600000000  0.4981340000000  0.4852350000000 1.0
C      1  0.4271070000000  0.5046300000000  0.5140820000000 1.0
C      1  0.4327290000000  0.4239290000000  0.4951670000000 1.0
C      1  0.4365400000000  0.5787080000000  0.5013770000000 1.0
C      1  0.5700430000000  0.5780340000000  0.4969240000000 1.0
C      1  0.5657310000000  0.4209770000000  0.5056080000000 1.0
C      1  0.5400300000000  0.5884860000000  0.5442010000000 1.0
C      1  0.5404650000000  0.4119260000000  0.4563730000000 1.0
C      1  0.4607560000000  0.4114420000000  0.5445980000000 1.0
C      1  0.4595200000000  0.5875630000000  0.4532960000000 1.0
C      1  0.5714040000000  0.5454250000000  0.5386840000000 1.0
C      1  0.5729240000000  0.4551680000000  0.4593450000000 1.0
C      1  0.4274730000000  0.4539770000000  0.5405000000000 1.0
C      1  0.4276950000000  0.5449790000000  0.4612590000000 1.0
C      1  0.4194500000000  0.5241860000000  0.5692160000000 1.0
C      1  0.4166550000000  0.4730000000000  0.4341270000000 1.0
C      1  0.5802880000000  0.4731440000000  0.5646840000000 1.0
C      1  0.5808030000000  0.5241660000000  0.4304010000000 1.0
C      1  0.4118970000000  0.5009340000000  0.4391070000000 1.0
C      1  0.4117130000000  0.4981760000000  0.5599600000000 1.0
C      1  0.5893230000000  0.4975620000000  0.4382380000000 1.0
C      1  0.5873360000000  0.5003470000000  0.5603540000000 1.0
C      1  0.5004170000000  0.4971390000000  0.5026680000000 1.0
END
