TITL C-2441159-1093-104 0.0446045237643239 125000 -16285.4108161967 0 0 117 (C1) n - 1
REM
REM in /home/bkarasulu/work/CARBON/AIRSS/Generating-Clusters/ReaxFF-fromJPCA2015/Units_Real/with-SteepDescent/Higher-Symm
REM
REM
REM
REM
REM
REM ./C.cell (1df0a924f5614ab8850e4351716899ee)
REM
REM compiler GCC version 9.2.1 20190827 (Red Hat 9.2.1-1)
REM options -cpp -mtune=generic -march=x86-64 -g -O0 -fpre-include=/usr/include/finclude/math-vector-fortran.h
REM seed 364864861 -601618476 173770822 -556170757 1677866548 -1816996255 1235016561 1028638543 -489175333 -1525545511 225666379 -1384546239 1338283119 -2113877247 -842677839 1134655183 -504693697 -2087160792 -1395753335 -196772292 -1831014749 -953373997 1392445145 -662527609 1814691654 2129358932 1128379791 -368400078 -92991610 416977369 -21220640 -526927590 -173080979
REM
CELL 1.54180   50.00000   50.00000   50.00000   90.00000   90.00000   90.00000
LATT -1
SFAC C  
C      1  0.4418410000000  0.5712240000000  0.5571920000000 1.0
C      1  0.4413970000000  0.4431540000000  0.4448580000000 1.0
C      1  0.5461490000000  0.5361790000000  0.5123280000000 1.0
C      1  0.5438360000000  0.4642890000000  0.4922290000000 1.0
C      1  0.4730130000000  0.4754390000000  0.4743660000000 1.0
C      1  0.4565870000000  0.5010170000000  0.5127790000000 1.0
C      1  0.4554620000000  0.5562910000000  0.4954770000000 1.0
C      1  0.4617820000000  0.4477160000000  0.5095410000000 1.0
C      1  0.5788240000000  0.4652770000000  0.4503040000000 1.0
C      1  0.5728340000000  0.5358750000000  0.5526390000000 1.0
C      1  0.4468770000000  0.5592620000000  0.4659350000000 1.0
C      1  0.4536570000000  0.4436870000000  0.5371920000000 1.0
C      1  0.4361800000000  0.5157900000000  0.4374010000000 1.0
C      1  0.4351940000000  0.4822630000000  0.5635710000000 1.0
C      1  0.4599680000000  0.5270000000000  0.4224710000000 1.0
C      1  0.4617970000000  0.4718580000000  0.5761030000000 1.0
C      1  0.4509340000000  0.5475770000000  0.5438510000000 1.0
C      1  0.4646940000000  0.4520280000000  0.4617830000000 1.0
C      1  0.5243760000000  0.4997860000000  0.5412310000000 1.0
C      1  0.5237290000000  0.4939620000000  0.4486910000000 1.0
C      1  0.4703220000000  0.4660320000000  0.4150750000000 1.0
C      1  0.4728230000000  0.5336360000000  0.5817980000000 1.0
C      1  0.5859210000000  0.4618150000000  0.5071000000000 1.0
C      1  0.5872250000000  0.5396260000000  0.4944980000000 1.0
C      1  0.4317370000000  0.4881010000000  0.4428920000000 1.0
C      1  0.4339480000000  0.5098380000000  0.5556690000000 1.0
C      1  0.5056590000000  0.4462890000000  0.5772720000000 1.0
C      1  0.5001300000000  0.5543960000000  0.4412030000000 1.0
C      1  0.5607130000000  0.4428060000000  0.5352320000000 1.0
C      1  0.5619860000000  0.5590320000000  0.4669500000000 1.0
C      1  0.5784690000000  0.4639470000000  0.5350100000000 1.0
C      1  0.5805270000000  0.5379080000000  0.4659530000000 1.0
C      1  0.4781300000000  0.5932620000000  0.4796790000000 1.0
C      1  0.4832910000000  0.4136060000000  0.5201760000000 1.0
C      1  0.4093210000000  0.4956490000000  0.5148970000000 1.0
C      1  0.4079540000000  0.5035510000000  0.4878320000000 1.0
C      1  0.5639870000000  0.5609910000000  0.5407380000000 1.0
C      1  0.5642000000000  0.4428920000000  0.4608600000000 1.0
C      1  0.5259210000000  0.5779690000000  0.4718360000000 1.0
C      1  0.5257700000000  0.4203150000000  0.5325090000000 1.0
C      1  0.5515900000000  0.5745510000000  0.4850640000000 1.0
C      1  0.5496140000000  0.4286240000000  0.5184160000000 1.0
C      1  0.4305710000000  0.5360660000000  0.4583580000000 1.0
C      1  0.4319210000000  0.4619080000000  0.5428600000000 1.0
C      1  0.5521390000000  0.5289280000000  0.5728290000000 1.0
C      1  0.5573290000000  0.4725740000000  0.4326630000000 1.0
C      1  0.5329730000000  0.4834570000000  0.5846750000000 1.0
C      1  0.5294310000000  0.5201400000000  0.4178710000000 1.0
C      1  0.5176770000000  0.4031500000000  0.4851390000000 1.0
C      1  0.5146220000000  0.5926790000000  0.5117750000000 1.0
C      1  0.4466570000000  0.5320720000000  0.5671500000000 1.0
C      1  0.4432130000000  0.4666470000000  0.4271640000000 1.0
C      1  0.5611010000000  0.4901610000000  0.5377990000000 1.0
C      1  0.5672770000000  0.5110280000000  0.4618480000000 1.0
C      1  0.4537880000000  0.5926190000000  0.5507300000000 1.0
C      1  0.4559010000000  0.4160090000000  0.4450310000000 1.0
C      1  0.4814830000000  0.4311190000000  0.4483250000000 1.0
C      1  0.4792430000000  0.5584550000000  0.5442130000000 1.0
C      1  0.4881620000000  0.5431000000000  0.4853570000000 1.0
C      1  0.4890580000000  0.4389030000000  0.5086010000000 1.0
C      1  0.4884220000000  0.4438400000000  0.4224340000000 1.0
C      1  0.4909190000000  0.5528480000000  0.5704440000000 1.0
C      1  0.5103400000000  0.4027050000000  0.5140360000000 1.0
C      1  0.5079270000000  0.5976020000000  0.4852020000000 1.0
C      1  0.5230370000000  0.4543570000000  0.4741740000000 1.0
C      1  0.5212090000000  0.5458880000000  0.5197740000000 1.0
C      1  0.5667910000000  0.5573780000000  0.5094800000000 1.0
C      1  0.5653700000000  0.4444510000000  0.4913000000000 1.0
C      1  0.4759180000000  0.4265380000000  0.5459460000000 1.0
C      1  0.4646390000000  0.5806270000000  0.4554820000000 1.0
C      1  0.5025820000000  0.5108060000000  0.4052620000000 1.0
C      1  0.5037060000000  0.4889760000000  0.5942000000000 1.0
C      1  0.5922740000000  0.5144220000000  0.5083090000000 1.0
C      1  0.5934940000000  0.4872350000000  0.4948740000000 1.0
C      1  0.5162320000000  0.4513110000000  0.4244920000000 1.0
C      1  0.5253340000000  0.5450820000000  0.5696330000000 1.0
C      1  0.5065400000000  0.5024550000000  0.4686810000000 1.0
C      1  0.5095930000000  0.5020330000000  0.5168640000000 1.0
C      1  0.5386100000000  0.5668650000000  0.5537270000000 1.0
C      1  0.5398640000000  0.4505150000000  0.4440870000000 1.0
C      1  0.4652740000000  0.5835470000000  0.5033960000000 1.0
C      1  0.4404860000000  0.4343700000000  0.4917320000000 1.0
C      1  0.4864110000000  0.4660500000000  0.5923750000000 1.0
C      1  0.4777150000000  0.5254310000000  0.3974600000000 1.0
C      1  0.5479180000000  0.5129010000000  0.4924560000000 1.0
C      1  0.5466720000000  0.4873820000000  0.5086670000000 1.0
C      1  0.4318610000000  0.5145630000000  0.5261350000000 1.0
C      1  0.4258850000000  0.4828510000000  0.4738770000000 1.0
C      1  0.4920820000000  0.5113660000000  0.5790700000000 1.0
C      1  0.4860480000000  0.4900950000000  0.4183650000000 1.0
C      1  0.5857950000000  0.4888840000000  0.4671060000000 1.0
C      1  0.5794780000000  0.5139980000000  0.5340810000000 1.0
C      1  0.5217390000000  0.5172570000000  0.4811280000000 1.0
C      1  0.4993420000000  0.4758400000000  0.5111180000000 1.0
C      1  0.4750620000000  0.4831200000000  0.5268820000000 1.0
C      1  0.4835580000000  0.5206350000000  0.4673390000000 1.0
C      1  0.5194140000000  0.5744420000000  0.5318720000000 1.0
C      1  0.5201560000000  0.4247420000000  0.4788970000000 1.0
C      1  0.4192270000000  0.5305330000000  0.4850280000000 1.0
C      1  0.4161280000000  0.4675860000000  0.5178360000000 1.0
C      1  0.5232090000000  0.5412260000000  0.4334050000000 1.0
C      1  0.5270270000000  0.4608180000000  0.5707810000000 1.0
C      1  0.5086660000000  0.4777840000000  0.4315260000000 1.0
C      1  0.5121030000000  0.5192360000000  0.5585860000000 1.0
C      1  0.5078140000000  0.5566870000000  0.4667950000000 1.0
C      1  0.5047150000000  0.4332250000000  0.5508910000000 1.0
C      1  0.4988930000000  0.5295420000000  0.5109700000000 1.0
C      1  0.4998950000000  0.4752800000000  0.4828580000000 1.0
C      1  0.5522830000000  0.5004410000000  0.5705830000000 1.0
C      1  0.5495870000000  0.5016690000000  0.4359510000000 1.0
C      1  0.4222110000000  0.4571680000000  0.4913710000000 1.0
C      1  0.4329420000000  0.5411380000000  0.5084750000000 1.0
C      1  0.4755700000000  0.4765340000000  0.5540670000000 1.0
C      1  0.4785200000000  0.5346110000000  0.4427170000000 1.0
C      1  0.4515660000000  0.4152290000000  0.4730930000000 1.0
C      1  0.4742130000000  0.5859710000000  0.5318840000000 1.0
C      1  0.4537470000000  0.4925790000000  0.4862470000000 1.0
END
