TITL C-2441158-471-1354 -0.00220851047047473 125000 -10114.0014415974 0 0 69 (C1) n - 1
REM
REM in /home/bkarasulu/work/CARBON/AIRSS/Generating-Clusters/ReaxFF-fromJPCA2015/Units_Real/with-SteepDescent/Higher-Symm
REM
REM
REM
REM
REM
REM ./C.cell (1df0a924f5614ab8850e4351716899ee)
REM
REM compiler GCC version 9.2.1 20190827 (Red Hat 9.2.1-1)
REM options -cpp -mtune=generic -march=x86-64 -g -O0 -fpre-include=/usr/include/finclude/math-vector-fortran.h
REM seed 64503254 -1045749130 -176822123 -1453292113 -1136120495 535651950 -1727524888 -965599473 -550064632 -982023832 -89769248 -921817978 2140420635 415750673 1440968717 645293685 697785532 -1035160062 -1792230625 428538379 -1363484749 -509753907 -278049370 -335988791 944001541 1298026361 -1231138449 -1389242961 1172053644 1734130565 -674289327 -1560036623 -1058847711
REM
CELL 1.54180   50.00000   50.00000   50.00000   90.00000   90.00000   90.00000
LATT -1
SFAC C  
C      1  0.5136490000000  0.5281190000000  0.5150690000000 1.0
C      1  0.5150850000000  0.4716930000000  0.5144520000000 1.0
C      1  0.4690590000000  0.5005000000000  0.5160690000000 1.0
C      1  0.5171940000000  0.5265950000000  0.4842620000000 1.0
C      1  0.5173790000000  0.4727320000000  0.4836660000000 1.0
C      1  0.4675370000000  0.4997580000000  0.4847490000000 1.0
C      1  0.4838700000000  0.5264140000000  0.5161740000000 1.0
C      1  0.4826890000000  0.4739340000000  0.5150900000000 1.0
C      1  0.5319060000000  0.5012340000000  0.5147320000000 1.0
C      1  0.4839400000000  0.5281670000000  0.4848630000000 1.0
C      1  0.4853350000000  0.4715890000000  0.4843200000000 1.0
C      1  0.5321830000000  0.4981610000000  0.4839410000000 1.0
C      1  0.4366700000000  0.5043630000000  0.4519390000000 1.0
C      1  0.5376610000000  0.5533010000000  0.4514200000000 1.0
C      1  0.5276510000000  0.4427670000000  0.4527840000000 1.0
C      1  0.4359160000000  0.5055010000000  0.5495760000000 1.0
C      1  0.5326560000000  0.5525170000000  0.5438410000000 1.0
C      1  0.5271090000000  0.4415430000000  0.5480350000000 1.0
C      1  0.5632300000000  0.5039130000000  0.4533620000000 1.0
C      1  0.4647830000000  0.5527280000000  0.4520490000000 1.0
C      1  0.4720730000000  0.4407490000000  0.4507750000000 1.0
C      1  0.5641760000000  0.5064320000000  0.5479320000000 1.0
C      1  0.4629500000000  0.5530670000000  0.5499560000000 1.0
C      1  0.4713760000000  0.4453660000000  0.5439170000000 1.0
C      1  0.5305290000000  0.5000570000000  0.5883440000000 1.0
C      1  0.4858580000000  0.4739850000000  0.5867330000000 1.0
C      1  0.4859010000000  0.5255180000000  0.5883480000000 1.0
C      1  0.5305140000000  0.4995220000000  0.4121260000000 1.0
C      1  0.4858650000000  0.4738320000000  0.4105270000000 1.0
C      1  0.4859030000000  0.5256260000000  0.4105730000000 1.0
C      1  0.4710130000000  0.4995510000000  0.5882220000000 1.0
C      1  0.5155360000000  0.4739160000000  0.5883140000000 1.0
C      1  0.5154650000000  0.5256180000000  0.5867970000000 1.0
C      1  0.4708760000000  0.4998670000000  0.4104540000000 1.0
C      1  0.5155980000000  0.4738940000000  0.4118740000000 1.0
C      1  0.5159450000000  0.5254410000000  0.4108200000000 1.0
C      1  0.4658310000000  0.4634560000000  0.5671330000000 1.0
C      1  0.4848910000000  0.5490900000000  0.5703860000000 1.0
C      1  0.5500160000000  0.4883740000000  0.5695700000000 1.0
C      1  0.4656770000000  0.4627770000000  0.4291180000000 1.0
C      1  0.4863980000000  0.5483440000000  0.4294400000000 1.0
C      1  0.5497030000000  0.4882880000000  0.4318350000000 1.0
C      1  0.5355100000000  0.4630260000000  0.5695870000000 1.0
C      1  0.5144060000000  0.5482480000000  0.5672130000000 1.0
C      1  0.4502930000000  0.4885830000000  0.5700470000000 1.0
C      1  0.5347280000000  0.4624550000000  0.4315130000000 1.0
C      1  0.5155000000000  0.5482900000000  0.4296090000000 1.0
C      1  0.4512810000000  0.4880410000000  0.4291460000000 1.0
C      1  0.5216760000000  0.5575140000000  0.5148160000000 1.0
C      1  0.5291390000000  0.4470270000000  0.5201580000000 1.0
C      1  0.4381240000000  0.4979770000000  0.5200520000000 1.0
C      1  0.5323420000000  0.5509920000000  0.4795020000000 1.0
C      1  0.5371230000000  0.4490090000000  0.4819030000000 1.0
C      1  0.4391190000000  0.4968190000000  0.4794490000000 1.0
C      1  0.4703590000000  0.5543440000000  0.5204180000000 1.0
C      1  0.4614260000000  0.4522050000000  0.5149850000000 1.0
C      1  0.5603720000000  0.5018280000000  0.5200600000000 1.0
C      1  0.4723290000000  0.5543040000000  0.4796330000000 1.0
C      1  0.4715860000000  0.4465440000000  0.4787900000000 1.0
C      1  0.5625630000000  0.4924350000000  0.4824660000000 1.0
C      1  0.4478540000000  0.5301920000000  0.4568800000000 1.0
C      1  0.4482740000000  0.5299660000000  0.5489870000000 1.0
C      1  0.5540470000000  0.5301600000000  0.4523200000000 1.0
C      1  0.5514420000000  0.5319340000000  0.5455870000000 1.0
C      1  0.4986630000000  0.4395650000000  0.5456400000000 1.0
C      1  0.5002970000000  0.4377560000000  0.4516530000000 1.0
C      1  0.4937430000000  0.5702050000000  0.5097540000000 1.0
C      1  0.4364550000000  0.4697710000000  0.5096400000000 1.0
C      1  0.5637560000000  0.4625130000000  0.4830850000000 1.0
END
