TITL C-2441158-471-690 0.0639534319491009 125000 -16737.3298926436 0 0 126 (C1) n - 1
REM
REM in /home/bkarasulu/work/CARBON/AIRSS/Generating-Clusters/ReaxFF-fromJPCA2015/Units_Real/with-SteepDescent/Higher-Symm
REM
REM
REM
REM
REM
REM ./C.cell (1df0a924f5614ab8850e4351716899ee)
REM
REM compiler GCC version 9.2.1 20190827 (Red Hat 9.2.1-1)
REM options -cpp -mtune=generic -march=x86-64 -g -O0 -fpre-include=/usr/include/finclude/math-vector-fortran.h
REM seed -1340934187 -2112656094 -822848203 1002699725 1783442292 -756119287 1962518577 2033859982 389650988 -1365180229 1532501492 -1554522815 426981793 1566061397 1701150125 1010059248 1845475816 -1452732728 1325061028 2127770786 -1822776653 -1767622485 -1617415037 -166288529 1505753918 -534246216 2067439488 1985305358 -1903225168 -91496821 -563683229 117130398 -751486151
REM
CELL 1.54180   50.00000   50.00000   50.00000   90.00000   90.00000   90.00000
LATT -1
SFAC C  
C      1  0.4998770000000  0.5470040000000  0.4749160000000 1.0
C      1  0.5245320000000  0.5443260000000  0.4916280000000 1.0
C      1  0.5174420000000  0.5366830000000  0.5198690000000 1.0
C      1  0.4892010000000  0.5495770000000  0.5212680000000 1.0
C      1  0.4774530000000  0.5392190000000  0.4929600000000 1.0
C      1  0.4387050000000  0.5321080000000  0.5673600000000 1.0
C      1  0.4025810000000  0.5277610000000  0.4681390000000 1.0
C      1  0.5030110000000  0.5293880000000  0.3967070000000 1.0
C      1  0.5893410000000  0.5320320000000  0.4779370000000 1.0
C      1  0.5456790000000  0.5310900000000  0.5802070000000 1.0
C      1  0.4792480000000  0.4720170000000  0.4441660000000 1.0
C      1  0.5459060000000  0.4719360000000  0.4621230000000 1.0
C      1  0.5501550000000  0.4689730000000  0.5326820000000 1.0
C      1  0.4837930000000  0.4716420000000  0.5567790000000 1.0
C      1  0.4478220000000  0.4676740000000  0.5002390000000 1.0
C      1  0.4909370000000  0.4945860000000  0.5200880000000 1.0
C      1  0.4776290000000  0.5077970000000  0.4976890000000 1.0
C      1  0.4950460000000  0.4934750000000  0.4778710000000 1.0
C      1  0.5203120000000  0.4954500000000  0.4891660000000 1.0
C      1  0.5178340000000  0.5047470000000  0.5154040000000 1.0
C      1  0.4604500000000  0.4651980000000  0.5723380000000 1.0
C      1  0.4223470000000  0.4616630000000  0.4850980000000 1.0
C      1  0.4880650000000  0.4631760000000  0.4181500000000 1.0
C      1  0.5737790000000  0.4649960000000  0.4624780000000 1.0
C      1  0.5571670000000  0.4635400000000  0.5604730000000 1.0
C      1  0.4201760000000  0.4842670000000  0.5511350000000 1.0
C      1  0.4271660000000  0.4835290000000  0.4390180000000 1.0
C      1  0.5343500000000  0.4828230000000  0.4126210000000 1.0
C      1  0.5960030000000  0.4800200000000  0.5102610000000 1.0
C      1  0.5235350000000  0.4826590000000  0.5919150000000 1.0
C      1  0.5665030000000  0.5110040000000  0.5162260000000 1.0
C      1  0.5047510000000  0.5109740000000  0.5669670000000 1.0
C      1  0.4379940000000  0.5106230000000  0.5240670000000 1.0
C      1  0.4553780000000  0.5138460000000  0.4480800000000 1.0
C      1  0.5356490000000  0.5140670000000  0.4420530000000 1.0
C      1  0.4811350000000  0.5922720000000  0.5415920000000 1.0
C      1  0.4620280000000  0.5859940000000  0.4939190000000 1.0
C      1  0.4907620000000  0.5940610000000  0.4516160000000 1.0
C      1  0.5355580000000  0.5917690000000  0.4791290000000 1.0
C      1  0.5286040000000  0.5850720000000  0.5295910000000 1.0
C      1  0.5416790000000  0.4979450000000  0.4728640000000 1.0
C      1  0.5398670000000  0.4959350000000  0.5311880000000 1.0
C      1  0.4828210000000  0.4980570000000  0.5460730000000 1.0
C      1  0.4505570000000  0.4984690000000  0.4977870000000 1.0
C      1  0.4863750000000  0.4986290000000  0.4512770000000 1.0
C      1  0.5317540000000  0.4595210000000  0.5766240000000 1.0
C      1  0.4360650000000  0.4606640000000  0.5538590000000 1.0
C      1  0.4297270000000  0.4603130000000  0.4560440000000 1.0
C      1  0.5183660000000  0.4595580000000  0.4199610000000 1.0
C      1  0.5827270000000  0.4610920000000  0.4919540000000 1.0
C      1  0.5514000000000  0.5519830000000  0.4883630000000 1.0
C      1  0.5332490000000  0.5484190000000  0.5465880000000 1.0
C      1  0.4661740000000  0.5518310000000  0.5450930000000 1.0
C      1  0.4486680000000  0.5488820000000  0.4789890000000 1.0
C      1  0.5044350000000  0.5498610000000  0.4412560000000 1.0
C      1  0.4894060000000  0.5530350000000  0.5786100000000 1.0
C      1  0.4246410000000  0.5538120000000  0.5126670000000 1.0
C      1  0.4652290000000  0.5560400000000  0.4280770000000 1.0
C      1  0.5553230000000  0.5569710000000  0.4437350000000 1.0
C      1  0.5711470000000  0.5527360000000  0.5344450000000 1.0
C      1  0.5056040000000  0.4138900000000  0.4729800000000 1.0
C      1  0.5489130000000  0.4113980000000  0.4953400000000 1.0
C      1  0.5144820000000  0.4129890000000  0.5256520000000 1.0
C      1  0.4721950000000  0.4111120000000  0.5285110000000 1.0
C      1  0.4597010000000  0.4112710000000  0.4817860000000 1.0
C      1  0.4396670000000  0.5046610000000  0.4714890000000 1.0
C      1  0.5085810000000  0.5053970000000  0.4342350000000 1.0
C      1  0.5649580000000  0.5012060000000  0.4885360000000 1.0
C      1  0.5304860000000  0.5015010000000  0.5571890000000 1.0
C      1  0.4555000000000  0.5024120000000  0.5453570000000 1.0
C      1  0.4634160000000  0.5887350000000  0.5199290000000 1.0
C      1  0.4872330000000  0.5786180000000  0.4758330000000 1.0
C      1  0.5086870000000  0.5959600000000  0.4723020000000 1.0
C      1  0.5377120000000  0.5878080000000  0.5058030000000 1.0
C      1  0.5010730000000  0.5759450000000  0.5289710000000 1.0
C      1  0.5857940000000  0.4950050000000  0.5340670000000 1.0
C      1  0.4958960000000  0.4945030000000  0.5911130000000 1.0
C      1  0.4127930000000  0.4932540000000  0.5241260000000 1.0
C      1  0.4493430000000  0.4943400000000  0.4232950000000 1.0
C      1  0.5558900000000  0.4952380000000  0.4279990000000 1.0
C      1  0.5097890000000  0.4585460000000  0.5536400000000 1.0
C      1  0.4472800000000  0.4566250000000  0.5282160000000 1.0
C      1  0.4590730000000  0.4586570000000  0.4581640000000 1.0
C      1  0.5223970000000  0.4572870000000  0.4502530000000 1.0
C      1  0.5572360000000  0.4561890000000  0.5081060000000 1.0
C      1  0.5500480000000  0.5721750000000  0.5408570000000 1.0
C      1  0.4762350000000  0.5734760000000  0.5626920000000 1.0
C      1  0.4366470000000  0.5725220000000  0.4932580000000 1.0
C      1  0.4885230000000  0.5739450000000  0.4317110000000 1.0
C      1  0.5551160000000  0.5730540000000  0.4685310000000 1.0
C      1  0.5069650000000  0.4307280000000  0.5627480000000 1.0
C      1  0.4367500000000  0.4308590000000  0.5265040000000 1.0
C      1  0.4572160000000  0.4316970000000  0.4479160000000 1.0
C      1  0.5316850000000  0.4305410000000  0.4459390000000 1.0
C      1  0.5643750000000  0.4295770000000  0.5094880000000 1.0
C      1  0.5736710000000  0.4871470000000  0.5603480000000 1.0
C      1  0.4668060000000  0.4877270000000  0.5891110000000 1.0
C      1  0.4080270000000  0.4836120000000  0.4959840000000 1.0
C      1  0.4739170000000  0.4862570000000  0.4074060000000 1.0
C      1  0.5793450000000  0.4886870000000  0.4460910000000 1.0
C      1  0.4842240000000  0.4650360000000  0.5169520000000 1.0
C      1  0.4750960000000  0.4531490000000  0.4914230000000 1.0
C      1  0.4999720000000  0.4632450000000  0.4785670000000 1.0
C      1  0.5229730000000  0.4619910000000  0.4979940000000 1.0
C      1  0.5100870000000  0.4552470000000  0.5223040000000 1.0
C      1  0.4667380000000  0.5349510000000  0.5737560000000 1.0
C      1  0.4191410000000  0.5348070000000  0.4909930000000 1.0
C      1  0.4845310000000  0.5349920000000  0.4189710000000 1.0
C      1  0.5745320000000  0.5389450000000  0.4554360000000 1.0
C      1  0.5596450000000  0.5353280000000  0.5552010000000 1.0
C      1  0.5489470000000  0.5013300000000  0.5795720000000 1.0
C      1  0.4397230000000  0.5016490000000  0.5695080000000 1.0
C      1  0.4123630000000  0.4978530000000  0.4667510000000 1.0
C      1  0.5045710000000  0.4999700000000  0.4063780000000 1.0
C      1  0.5884730000000  0.5035210000000  0.4710660000000 1.0
C      1  0.5318670000000  0.5423980000000  0.4361130000000 1.0
C      1  0.5732250000000  0.5413050000000  0.5069210000000 1.0
C      1  0.5178780000000  0.5414420000000  0.5731650000000 1.0
C      1  0.4377610000000  0.5427490000000  0.5379140000000 1.0
C      1  0.4508360000000  0.5435600000000  0.4496710000000 1.0
C      1  0.4496230000000  0.4108150000000  0.5100070000000 1.0
C      1  0.4752660000000  0.4128560000000  0.4586500000000 1.0
C      1  0.5355030000000  0.4129190000000  0.4675710000000 1.0
C      1  0.5437020000000  0.4145390000000  0.5232200000000 1.0
C      1  0.4912260000000  0.4117790000000  0.5499150000000 1.0
C      1  0.5068260000000  0.4129170000000  0.4992470000000 1.0
END
