TITL C-2441160-1326-376 0.000146498999187931 125000 -6901.5053060473 0 0 44 (Cs) n - 1
REM
REM in /home/bkarasulu/work/CARBON/AIRSS/Generating-Clusters/ReaxFF-fromJPCA2015/Units_Real/with-SteepDescent/Higher-Symm
REM
REM
REM
REM
REM
REM ./C.cell (1df0a924f5614ab8850e4351716899ee)
REM
REM compiler GCC version 9.2.1 20190827 (Red Hat 9.2.1-1)
REM options -cpp -mtune=generic -march=x86-64 -g -O0 -fpre-include=/usr/include/finclude/math-vector-fortran.h
REM seed 1208216882 -2024266162 -822784144 -452394461 1709485427 -1507343533 1725144964 852795856 850549917 130663694 1643907249 942092633 -1236212030 578770736 1174407856 -949446288 -1089166134 -101524264 1041201196 -550970756 1788618244 43888915 1341783349 1180416906 1842164388 1417690238 -451786578 12983785 -332924229 412537982 1357720697 -1841360509 -2103778432
REM
CELL 1.54180   50.00000   50.00000   50.00000   90.00000   90.00000   90.00000
LATT -1
SFAC C  
C      1  0.5549420000000  0.4813020000000  0.4847880000000 1.0
C      1  0.5499260000000  0.5309920000000  0.4847480000000 1.0
C      1  0.5072240000000  0.5583740000000  0.4845270000000 1.0
C      1  0.4598800000000  0.5423820000000  0.4846560000000 1.0
C      1  0.4426480000000  0.4954220000000  0.4845130000000 1.0
C      1  0.4688910000000  0.4520460000000  0.4847220000000 1.0
C      1  0.5184270000000  0.4457370000000  0.4847710000000 1.0
C      1  0.5336200000000  0.5061660000000  0.5486360000000 1.0
C      1  0.5188660000000  0.5300410000000  0.5481900000000 1.0
C      1  0.4904330000000  0.5318950000000  0.5479610000000 1.0
C      1  0.4695130000000  0.5114930000000  0.5479550000000 1.0
C      1  0.4706260000000  0.4830550000000  0.5481570000000 1.0
C      1  0.4941090000000  0.4676820000000  0.5486180000000 1.0
C      1  0.5195210000000  0.4811210000000  0.5412870000000 1.0
C      1  0.4936760000000  0.4487460000000  0.4711320000000 1.0
C      1  0.5371210000000  0.4630770000000  0.4712540000000 1.0
C      1  0.5525710000000  0.5061310000000  0.4711510000000 1.0
C      1  0.5289970000000  0.5454940000000  0.4709880000000 1.0
C      1  0.4836320000000  0.5508540000000  0.4709790000000 1.0
C      1  0.4507350000000  0.5188310000000  0.4709910000000 1.0
C      1  0.4549280000000  0.4733550000000  0.4709820000000 1.0
C      1  0.5234750000000  0.4771100000000  0.4501550000000 1.0
C      1  0.5334460000000  0.5041960000000  0.4503070000000 1.0
C      1  0.5184150000000  0.5288030000000  0.4499580000000 1.0
C      1  0.4897490000000  0.5324520000000  0.4499030000000 1.0
C      1  0.4690000000000  0.5122470000000  0.4498980000000 1.0
C      1  0.4718840000000  0.4835030000000  0.4499490000000 1.0
C      1  0.4961160000000  0.4678340000000  0.4502540000000 1.0
C      1  0.5536990000000  0.5065590000000  0.5280290000000 1.0
C      1  0.5293890000000  0.5462130000000  0.5272980000000 1.0
C      1  0.4836960000000  0.5505970000000  0.5271490000000 1.0
C      1  0.4509530000000  0.5187590000000  0.5271500000000 1.0
C      1  0.4542050000000  0.4729570000000  0.5272590000000 1.0
C      1  0.4932040000000  0.4476240000000  0.5280050000000 1.0
C      1  0.5377690000000  0.4623930000000  0.5263280000000 1.0
C      1  0.5073610000000  0.5587400000000  0.5131540000000 1.0
C      1  0.4599330000000  0.5423570000000  0.5135830000000 1.0
C      1  0.4422400000000  0.4952550000000  0.5130860000000 1.0
C      1  0.4683490000000  0.4516160000000  0.5136160000000 1.0
C      1  0.5187340000000  0.4449220000000  0.5138020000000 1.0
C      1  0.5557390000000  0.4809690000000  0.5138200000000 1.0
C      1  0.5503560000000  0.5315160000000  0.5136460000000 1.0
C      1  0.5067300000000  0.4942730000000  0.5128290000000 1.0
C      1  0.4977280000000  0.5035280000000  0.4928010000000 1.0
END
