TITL C-2441163-1170-432 0.0979018150833798 125000 -24023.9157029025 0 0 182 (C1) n - 1
REM
REM in /home/bkarasulu/work/CARBON/AIRSS/Generating-Clusters/ReaxFF-fromJPCA2015/Units_Real/with-SteepDescent/Higher-Symm
REM
REM
REM
REM
REM
REM ./C.cell (1df0a924f5614ab8850e4351716899ee)
REM
REM compiler GCC version 9.2.1 20190827 (Red Hat 9.2.1-1)
REM options -cpp -mtune=generic -march=x86-64 -g -O0 -fpre-include=/usr/include/finclude/math-vector-fortran.h
REM seed -1344126398 -670454704 -275125369 1794422953 -626896470 -1246834815 1092138024 1824370351 21836028 132099843 -789610870 -153230903 -1039216827 750472752 -923521307 -454545570 1251698897 -31046483 -109999176 -964624011 490467113 626102556 -67494654 -1880327134 -1246172415 1878673359 1815339622 325562184 474692814 665534592 -1061250833 476369743 2119198215
REM
CELL 1.54180   50.00000   50.00000   50.00000   90.00000   90.00000   90.00000
LATT -1
SFAC C  
C      1  0.4566460000000  0.5142660000000  0.5949010000000 1.0
C      1  0.4502830000000  0.4105330000000  0.4706100000000 1.0
C      1  0.4507560000000  0.5692560000000  0.4388360000000 1.0
C      1  0.5455660000000  0.5166310000000  0.5939870000000 1.0
C      1  0.5502790000000  0.4130520000000  0.4703370000000 1.0
C      1  0.5531710000000  0.5674050000000  0.4369780000000 1.0
C      1  0.5953200000000  0.4780980000000  0.5174650000000 1.0
C      1  0.5824270000000  0.4996040000000  0.5023050000000 1.0
C      1  0.5959250000000  0.5262630000000  0.5059930000000 1.0
C      1  0.4023540000000  0.4795970000000  0.5231240000000 1.0
C      1  0.4172290000000  0.4909480000000  0.5000540000000 1.0
C      1  0.3967100000000  0.5343330000000  0.4976240000000 1.0
C      1  0.3941930000000  0.5043180000000  0.5418580000000 1.0
C      1  0.3973980000000  0.4465570000000  0.4893880000000 1.0
C      1  0.4001080000000  0.5380210000000  0.4680990000000 1.0
C      1  0.6020690000000  0.5113770000000  0.5480610000000 1.0
C      1  0.6017820000000  0.4481920000000  0.4856300000000 1.0
C      1  0.6030170000000  0.5310320000000  0.4610330000000 1.0
C      1  0.5157880000000  0.4313220000000  0.5376360000000 1.0
C      1  0.5153450000000  0.4999670000000  0.4222180000000 1.0
C      1  0.5124270000000  0.5616960000000  0.5461250000000 1.0
C      1  0.4873040000000  0.4291060000000  0.5324750000000 1.0
C      1  0.4868720000000  0.5065550000000  0.4234050000000 1.0
C      1  0.4842440000000  0.5654150000000  0.5420300000000 1.0
C      1  0.4552710000000  0.4092780000000  0.5002300000000 1.0
C      1  0.4556050000000  0.5459860000000  0.4221260000000 1.0
C      1  0.4696810000000  0.5363870000000  0.5769050000000 1.0
C      1  0.5426640000000  0.4112730000000  0.4988760000000 1.0
C      1  0.5464690000000  0.5433970000000  0.4216130000000 1.0
C      1  0.5391490000000  0.5405910000000  0.5768700000000 1.0
C      1  0.4850910000000  0.6184410000000  0.5327820000000 1.0
C      1  0.4872580000000  0.4138880000000  0.5878240000000 1.0
C      1  0.4904550000000  0.4643840000000  0.3798550000000 1.0
C      1  0.5137220000000  0.6189160000000  0.5301010000000 1.0
C      1  0.5158370000000  0.4137730000000  0.5884540000000 1.0
C      1  0.5174610000000  0.4654550000000  0.3797550000000 1.0
C      1  0.4337110000000  0.5264720000000  0.4261840000000 1.0
C      1  0.4323570000000  0.5559770000000  0.5499010000000 1.0
C      1  0.4344630000000  0.4215820000000  0.5173150000000 1.0
C      1  0.5663960000000  0.5216740000000  0.4233530000000 1.0
C      1  0.5634160000000  0.5515100000000  0.5582240000000 1.0
C      1  0.5644620000000  0.4243850000000  0.5167920000000 1.0
C      1  0.4734080000000  0.4537190000000  0.4955680000000 1.0
C      1  0.4762140000000  0.5264090000000  0.4582840000000 1.0
C      1  0.4853100000000  0.5181190000000  0.5352250000000 1.0
C      1  0.5276230000000  0.4536340000000  0.4944870000000 1.0
C      1  0.5301920000000  0.5257700000000  0.4620620000000 1.0
C      1  0.5135790000000  0.5207370000000  0.5369430000000 1.0
C      1  0.4839710000000  0.5424140000000  0.4055600000000 1.0
C      1  0.4881360000000  0.5602290000000  0.5880720000000 1.0
C      1  0.4829900000000  0.3976190000000  0.5078170000000 1.0
C      1  0.5144770000000  0.5418240000000  0.4065120000000 1.0
C      1  0.5176090000000  0.5596050000000  0.5867720000000 1.0
C      1  0.5158730000000  0.4006720000000  0.5109200000000 1.0
C      1  0.6075850000000  0.5037190000000  0.4704590000000 1.0
C      1  0.6161760000000  0.5131270000000  0.5214350000000 1.0
C      1  0.6171000000000  0.4687920000000  0.5009440000000 1.0
C      1  0.4029300000000  0.4973160000000  0.4759540000000 1.0
C      1  0.3852220000000  0.5151100000000  0.5156020000000 1.0
C      1  0.3823410000000  0.4678770000000  0.5029290000000 1.0
C      1  0.5576070000000  0.5863030000000  0.5167470000000 1.0
C      1  0.5571940000000  0.4405170000000  0.5663960000000 1.0
C      1  0.5582250000000  0.4715470000000  0.4148050000000 1.0
C      1  0.4426540000000  0.5912760000000  0.5183270000000 1.0
C      1  0.4447840000000  0.4413720000000  0.5662050000000 1.0
C      1  0.4435430000000  0.4754930000000  0.4160660000000 1.0
C      1  0.5816410000000  0.5509050000000  0.5102770000000 1.0
C      1  0.5820390000000  0.4679990000000  0.5418700000000 1.0
C      1  0.5860890000000  0.4830730000000  0.4529470000000 1.0
C      1  0.4170560000000  0.5553890000000  0.5029370000000 1.0
C      1  0.4223340000000  0.4648300000000  0.5402400000000 1.0
C      1  0.4178810000000  0.4857940000000  0.4528540000000 1.0
C      1  0.5947880000000  0.5597580000000  0.4683450000000 1.0
C      1  0.5897170000000  0.4901020000000  0.5645770000000 1.0
C      1  0.5901840000000  0.4517440000000  0.4590740000000 1.0
C      1  0.4107200000000  0.5648430000000  0.4729110000000 1.0
C      1  0.4096950000000  0.5073930000000  0.5667110000000 1.0
C      1  0.4089130000000  0.4383240000000  0.4646910000000 1.0
C      1  0.4237690000000  0.5279290000000  0.4532800000000 1.0
C      1  0.4276200000000  0.5261000000000  0.5538080000000 1.0
C      1  0.4251570000000  0.4433510000000  0.5008330000000 1.0
C      1  0.5753640000000  0.5282710000000  0.4506380000000 1.0
C      1  0.5765050000000  0.5269850000000  0.5508790000000 1.0
C      1  0.5755430000000  0.4419310000000  0.4968060000000 1.0
C      1  0.4746240000000  0.4817770000000  0.5716530000000 1.0
C      1  0.4781340000000  0.4446020000000  0.4454740000000 1.0
C      1  0.4752490000000  0.5805040000000  0.4844190000000 1.0
C      1  0.5264000000000  0.4827120000000  0.5718840000000 1.0
C      1  0.5253870000000  0.4461770000000  0.4451220000000 1.0
C      1  0.5261270000000  0.5772220000000  0.4798720000000 1.0
C      1  0.5666100000000  0.4935460000000  0.5821180000000 1.0
C      1  0.5675750000000  0.4339910000000  0.4535770000000 1.0
C      1  0.5691880000000  0.5731630000000  0.4634640000000 1.0
C      1  0.4351740000000  0.4965100000000  0.5821380000000 1.0
C      1  0.4329670000000  0.4283430000000  0.4541150000000 1.0
C      1  0.4350900000000  0.5769640000000  0.4640220000000 1.0
C      1  0.5746320000000  0.4928880000000  0.4249390000000 1.0
C      1  0.5708980000000  0.5655360000000  0.5335860000000 1.0
C      1  0.5709980000000  0.4380130000000  0.5422960000000 1.0
C      1  0.4267980000000  0.4964730000000  0.4262410000000 1.0
C      1  0.4237720000000  0.5724570000000  0.5277440000000 1.0
C      1  0.4291410000000  0.4367070000000  0.5425680000000 1.0
C      1  0.4636490000000  0.5997670000000  0.5383290000000 1.0
C      1  0.4658360000000  0.4198810000000  0.5656130000000 1.0
C      1  0.4632690000000  0.4851990000000  0.3981880000000 1.0
C      1  0.5370830000000  0.5999760000000  0.5315620000000 1.0
C      1  0.5374920000000  0.4174040000000  0.5679430000000 1.0
C      1  0.5377360000000  0.4811700000000  0.3952060000000 1.0
C      1  0.4865120000000  0.4931500000000  0.5213390000000 1.0
C      1  0.4852130000000  0.4795360000000  0.4880510000000 1.0
C      1  0.4876740000000  0.5276470000000  0.4849280000000 1.0
C      1  0.5153620000000  0.4966950000000  0.5241400000000 1.0
C      1  0.5144610000000  0.4777390000000  0.4853860000000 1.0
C      1  0.5158400000000  0.5234850000000  0.4868500000000 1.0
C      1  0.5548000000000  0.4631460000000  0.4851650000000 1.0
C      1  0.5561210000000  0.5310630000000  0.4703180000000 1.0
C      1  0.5558040000000  0.5090390000000  0.5388890000000 1.0
C      1  0.4459820000000  0.4595510000000  0.4862350000000 1.0
C      1  0.4466170000000  0.5280130000000  0.4731600000000 1.0
C      1  0.4423820000000  0.5092690000000  0.5362840000000 1.0
C      1  0.5473030000000  0.5293820000000  0.5205930000000 1.0
C      1  0.5549650000000  0.4878710000000  0.5035360000000 1.0
C      1  0.5267270000000  0.4987110000000  0.4990360000000 1.0
C      1  0.4559570000000  0.5242320000000  0.5147390000000 1.0
C      1  0.4428960000000  0.4846950000000  0.5019110000000 1.0
C      1  0.4569780000000  0.5062940000000  0.4913510000000 1.0
C      1  0.4850370000000  0.5902600000000  0.5214380000000 1.0
C      1  0.4871530000000  0.4381930000000  0.5737730000000 1.0
C      1  0.4859780000000  0.4672370000000  0.4067120000000 1.0
C      1  0.5131420000000  0.5945690000000  0.5162080000000 1.0
C      1  0.5156480000000  0.4368170000000  0.5700210000000 1.0
C      1  0.5154360000000  0.4730310000000  0.4120530000000 1.0
C      1  0.4857350000000  0.5954240000000  0.4612170000000 1.0
C      1  0.4859930000000  0.4828840000000  0.6010760000000 1.0
C      1  0.4881900000000  0.4161480000000  0.4392300000000 1.0
C      1  0.5139530000000  0.5935370000000  0.4566540000000 1.0
C      1  0.5154320000000  0.4845080000000  0.6014290000000 1.0
C      1  0.5163100000000  0.4185830000000  0.4341510000000 1.0
C      1  0.5250310000000  0.5168730000000  0.3998710000000 1.0
C      1  0.5155890000000  0.5816520000000  0.5670960000000 1.0
C      1  0.5277030000000  0.4036790000000  0.5365620000000 1.0
C      1  0.4752890000000  0.5160850000000  0.3984080000000 1.0
C      1  0.4853330000000  0.5817870000000  0.5678970000000 1.0
C      1  0.4768630000000  0.4023430000000  0.5353920000000 1.0
C      1  0.4428430000000  0.4723850000000  0.4584810000000 1.0
C      1  0.4450530000000  0.5447920000000  0.4973400000000 1.0
C      1  0.4447330000000  0.4810220000000  0.5323400000000 1.0
C      1  0.5579580000000  0.4815100000000  0.4612270000000 1.0
C      1  0.5587150000000  0.5398280000000  0.4967380000000 1.0
C      1  0.5560470000000  0.4803130000000  0.5323750000000 1.0
C      1  0.4906870000000  0.5497950000000  0.4465490000000 1.0
C      1  0.4866890000000  0.5128480000000  0.5635390000000 1.0
C      1  0.4873280000000  0.4340340000000  0.4762310000000 1.0
C      1  0.5176650000000  0.5520800000000  0.4511920000000 1.0
C      1  0.5166290000000  0.5139530000000  0.5651330000000 1.0
C      1  0.5161060000000  0.4347270000000  0.4746020000000 1.0
C      1  0.5245290000000  0.4064950000000  0.4590220000000 1.0
C      1  0.5260430000000  0.5770760000000  0.4353080000000 1.0
C      1  0.5196470000000  0.5118330000000  0.6065680000000 1.0
C      1  0.4787270000000  0.4059290000000  0.4660690000000 1.0
C      1  0.4793620000000  0.5765270000000  0.4391220000000 1.0
C      1  0.4832140000000  0.5104390000000  0.6069450000000 1.0
C      1  0.5155820000000  0.4765550000000  0.4566300000000 1.0
C      1  0.5139450000000  0.5551820000000  0.4982170000000 1.0
C      1  0.5167140000000  0.4731860000000  0.5425550000000 1.0
C      1  0.4867090000000  0.4751990000000  0.4563710000000 1.0
C      1  0.4845880000000  0.5548700000000  0.4959760000000 1.0
C      1  0.4855500000000  0.4711590000000  0.5424150000000 1.0
C      1  0.4478320000000  0.5886220000000  0.4887790000000 1.0
C      1  0.4476080000000  0.4709120000000  0.5756730000000 1.0
C      1  0.4494930000000  0.4510820000000  0.4379080000000 1.0
C      1  0.5536490000000  0.5829660000000  0.4872300000000 1.0
C      1  0.5527130000000  0.4690130000000  0.5773370000000 1.0
C      1  0.5531620000000  0.4481100000000  0.4330570000000 1.0
C      1  0.4600480000000  0.5511430000000  0.5529320000000 1.0
C      1  0.4716000000000  0.4516030000000  0.5250900000000 1.0
C      1  0.4708820000000  0.4979580000000  0.4458930000000 1.0
C      1  0.5265020000000  0.5477940000000  0.5258890000000 1.0
C      1  0.5305090000000  0.4542500000000  0.5247350000000 1.0
C      1  0.5341550000000  0.4972660000000  0.4499220000000 1.0
C      1  0.6229550000000  0.4971580000000  0.4948520000000 1.0
C      1  0.3780960000000  0.4948270000000  0.4937210000000 1.0
END
