TITL C-2441164-471-1194 0.011179036519273 125000 -11892.2216914537 0 0 80 (C1) n - 1
REM
REM in /home/bkarasulu/work/CARBON/AIRSS/Generating-Clusters/ReaxFF-fromJPCA2015/Units_Real/with-SteepDescent/Higher-Symm
REM
REM
REM
REM
REM
REM ./C.cell (1df0a924f5614ab8850e4351716899ee)
REM
REM compiler GCC version 9.2.1 20190827 (Red Hat 9.2.1-1)
REM options -cpp -mtune=generic -march=x86-64 -g -O0 -fpre-include=/usr/include/finclude/math-vector-fortran.h
REM seed 2091474746 -1952920975 1736751911 1478039068 710245091 1066756310 -1146619812 1083899281 -1953803697 1821886207 848778151 -1590484598 348778609 -2067303463 -1727512894 -1585437737 -1013231104 -751791665 1051466852 2077907963 -462316785 -1887489316 382851192 -1600327194 -2121325013 -557893114 1993336775 573717744 1927537981 989094717 726692247 1862707828 -1255989884
REM
CELL 1.54180   50.00000   50.00000   50.00000   90.00000   90.00000   90.00000
LATT -1
SFAC C  
C      1  0.5418160000000  0.4367020000000  0.4770790000000 1.0
C      1  0.5632950000000  0.5407060000000  0.4673230000000 1.0
C      1  0.5003290000000  0.5435170000000  0.5722000000000 1.0
C      1  0.4784450000000  0.5058230000000  0.4635500000000 1.0
C      1  0.5549320000000  0.4914720000000  0.5092040000000 1.0
C      1  0.5639450000000  0.5423630000000  0.4957460000000 1.0
C      1  0.4980840000000  0.5425620000000  0.4337610000000 1.0
C      1  0.5598790000000  0.4469540000000  0.4973690000000 1.0
C      1  0.5303580000000  0.4760940000000  0.4399640000000 1.0
C      1  0.5445650000000  0.5610100000000  0.5085980000000 1.0
C      1  0.4774550000000  0.4974920000000  0.5682500000000 1.0
C      1  0.5172140000000  0.5256590000000  0.5854460000000 1.0
C      1  0.4874110000000  0.4550370000000  0.4510080000000 1.0
C      1  0.5315530000000  0.4483460000000  0.4515860000000 1.0
C      1  0.5392600000000  0.4664840000000  0.5660560000000 1.0
C      1  0.5369220000000  0.5556800000000  0.5363800000000 1.0
C      1  0.5606670000000  0.4615840000000  0.5460020000000 1.0
C      1  0.4482110000000  0.4890980000000  0.4304930000000 1.0
C      1  0.4491920000000  0.4423840000000  0.4672920000000 1.0
C      1  0.5128810000000  0.4600180000000  0.5561900000000 1.0
C      1  0.4772880000000  0.5581060000000  0.4773960000000 1.0
C      1  0.4529840000000  0.5045960000000  0.5544710000000 1.0
C      1  0.5208080000000  0.5510460000000  0.4452900000000 1.0
C      1  0.4583410000000  0.5537970000000  0.5271590000000 1.0
C      1  0.4863200000000  0.5293110000000  0.4801720000000 1.0
C      1  0.5011330000000  0.5784410000000  0.4875620000000 1.0
C      1  0.4302700000000  0.5186880000000  0.5158570000000 1.0
C      1  0.4512550000000  0.5378530000000  0.4389170000000 1.0
C      1  0.5515190000000  0.4928720000000  0.5718660000000 1.0
C      1  0.4619690000000  0.5134570000000  0.4234850000000 1.0
C      1  0.4462920000000  0.5279870000000  0.5371400000000 1.0
C      1  0.5192470000000  0.4512270000000  0.5278250000000 1.0
C      1  0.4713210000000  0.4726680000000  0.4982580000000 1.0
C      1  0.5148770000000  0.4824960000000  0.4876040000000 1.0
C      1  0.5714510000000  0.5162630000000  0.5391730000000 1.0
C      1  0.5251900000000  0.4827850000000  0.5146930000000 1.0
C      1  0.4314110000000  0.5383640000000  0.4917630000000 1.0
C      1  0.5693010000000  0.5169560000000  0.5102550000000 1.0
C      1  0.5668050000000  0.5138590000000  0.4544220000000 1.0
C      1  0.4367080000000  0.4826660000000  0.5458160000000 1.0
C      1  0.4611840000000  0.4352040000000  0.5413600000000 1.0
C      1  0.4904480000000  0.5112910000000  0.4327550000000 1.0
C      1  0.4590530000000  0.4628810000000  0.4211770000000 1.0
C      1  0.5490530000000  0.4464350000000  0.5241690000000 1.0
C      1  0.5119640000000  0.5290210000000  0.4937330000000 1.0
C      1  0.5258410000000  0.5072350000000  0.4785990000000 1.0
C      1  0.5713300000000  0.4741740000000  0.4913400000000 1.0
C      1  0.5714860000000  0.4891110000000  0.5514180000000 1.0
C      1  0.4877350000000  0.4702230000000  0.5665180000000 1.0
C      1  0.5063120000000  0.4331900000000  0.4557560000000 1.0
C      1  0.4380720000000  0.5383850000000  0.4641090000000 1.0
C      1  0.4679170000000  0.4501980000000  0.5642070000000 1.0
C      1  0.4484930000000  0.4961390000000  0.4594940000000 1.0
C      1  0.5386190000000  0.5022340000000  0.4521180000000 1.0
C      1  0.4815810000000  0.5700570000000  0.5356570000000 1.0
C      1  0.4503560000000  0.4447410000000  0.4418160000000 1.0
C      1  0.4233180000000  0.4904360000000  0.5204390000000 1.0
C      1  0.5295100000000  0.5720450000000  0.4861730000000 1.0
C      1  0.4514740000000  0.4478720000000  0.4961840000000 1.0
C      1  0.5034090000000  0.5008670000000  0.5291770000000 1.0
C      1  0.4724090000000  0.4336120000000  0.5149230000000 1.0
C      1  0.5073490000000  0.4860510000000  0.4252340000000 1.0
C      1  0.4433290000000  0.4551820000000  0.5525110000000 1.0
C      1  0.4268570000000  0.4695500000000  0.5000990000000 1.0
C      1  0.5063230000000  0.5523390000000  0.5441150000000 1.0
C      1  0.4889900000000  0.4637430000000  0.4229890000000 1.0
C      1  0.5407910000000  0.5193570000000  0.5721640000000 1.0
C      1  0.4906610000000  0.5186960000000  0.5813900000000 1.0
C      1  0.5140350000000  0.4271370000000  0.4840940000000 1.0
C      1  0.5005720000000  0.4337580000000  0.5093040000000 1.0
C      1  0.4832530000000  0.4860750000000  0.5169040000000 1.0
C      1  0.5517830000000  0.5353840000000  0.5508750000000 1.0
C      1  0.5077740000000  0.5287930000000  0.5229200000000 1.0
C      1  0.4741690000000  0.5543540000000  0.4469920000000 1.0
C      1  0.4346160000000  0.4853200000000  0.4805020000000 1.0
C      1  0.4889720000000  0.4779350000000  0.4748390000000 1.0
C      1  0.4914850000000  0.5811510000000  0.5128560000000 1.0
C      1  0.4529200000000  0.5563640000000  0.4989110000000 1.0
C      1  0.5740890000000  0.4907790000000  0.4685880000000 1.0
C      1  0.5415660000000  0.5602560000000  0.4609710000000 1.0
END
