TITL C-2441165-58-244 0.0739161768477396 125000 -15540.1290047237 0 0 120 (C1) n - 1
REM
REM in /home/bkarasulu/work/CARBON/AIRSS/Generating-Clusters/ReaxFF-fromJPCA2015/Units_Real/with-SteepDescent/Higher-Symm
REM
REM
REM
REM
REM
REM ./C.cell (1df0a924f5614ab8850e4351716899ee)
REM
REM compiler GCC version 9.2.1 20190827 (Red Hat 9.2.1-1)
REM options -cpp -mtune=generic -march=x86-64 -g -O0 -fpre-include=/usr/include/finclude/math-vector-fortran.h
REM seed -1155369324 1284900873 -1749152196 855203517 140081229 -2018403614 -1103299306 -1824552570 479541661 -361872998 -1577580986 1790900337 101420741 938335067 -1306362145 1502801902 1467021917 -277901253 -66002603 -479591145 2056534935 -433623900 1074308489 1182798043 931625494 795021223 539542330 -1658315017 -1762821212 -33600724 -569330710 855181062 -472754369
REM
CELL 1.54180   50.00000   50.00000   50.00000   90.00000   90.00000   90.00000
LATT -1
SFAC C  
C      1  0.4829320000000  0.5201750000000  0.5129910000000 1.0
C      1  0.4315360000000  0.5388140000000  0.5436240000000 1.0
C      1  0.5247670000000  0.5327620000000  0.4142090000000 1.0
C      1  0.5148100000000  0.5103050000000  0.3982970000000 1.0
C      1  0.4567660000000  0.5104580000000  0.5574350000000 1.0
C      1  0.5634120000000  0.4728620000000  0.4416430000000 1.0
C      1  0.4260080000000  0.5431150000000  0.4907630000000 1.0
C      1  0.4143860000000  0.5018430000000  0.5220850000000 1.0
C      1  0.5375170000000  0.5021980000000  0.5869860000000 1.0
C      1  0.5134860000000  0.5480430000000  0.5745860000000 1.0
C      1  0.5057890000000  0.4855330000000  0.5631820000000 1.0
C      1  0.5595490000000  0.5482180000000  0.5478270000000 1.0
C      1  0.4615040000000  0.4489120000000  0.5565230000000 1.0
C      1  0.5460550000000  0.5685570000000  0.5293060000000 1.0
C      1  0.4188690000000  0.5050020000000  0.4470020000000 1.0
C      1  0.4997720000000  0.4401520000000  0.5476750000000 1.0
C      1  0.5029820000000  0.5870970000000  0.4960570000000 1.0
C      1  0.5235570000000  0.4619680000000  0.4791660000000 1.0
C      1  0.4579570000000  0.5529290000000  0.4464830000000 1.0
C      1  0.5449690000000  0.5647110000000  0.4984120000000 1.0
C      1  0.5325460000000  0.5751600000000  0.4573910000000 1.0
C      1  0.4822910000000  0.5113100000000  0.4235060000000 1.0
C      1  0.4166400000000  0.4774970000000  0.5094030000000 1.0
C      1  0.4647900000000  0.4280760000000  0.5349180000000 1.0
C      1  0.4233770000000  0.4486640000000  0.5139550000000 1.0
C      1  0.5263790000000  0.5429410000000  0.4875030000000 1.0
C      1  0.5249640000000  0.4973520000000  0.4753900000000 1.0
C      1  0.4163390000000  0.5283360000000  0.4673580000000 1.0
C      1  0.5524140000000  0.5243280000000  0.5166740000000 1.0
C      1  0.5779740000000  0.5553780000000  0.4643770000000 1.0
C      1  0.5304100000000  0.5227890000000  0.4624300000000 1.0
C      1  0.5064750000000  0.5505840000000  0.4291310000000 1.0
C      1  0.4959460000000  0.5027950000000  0.4785140000000 1.0
C      1  0.5107690000000  0.4149320000000  0.5363590000000 1.0
C      1  0.4848030000000  0.4641450000000  0.4182000000000 1.0
C      1  0.4533640000000  0.5102240000000  0.4264550000000 1.0
C      1  0.4470570000000  0.4974450000000  0.5787240000000 1.0
C      1  0.4835800000000  0.4811140000000  0.4618140000000 1.0
C      1  0.4242930000000  0.4815700000000  0.5382710000000 1.0
C      1  0.5624020000000  0.4825830000000  0.5607320000000 1.0
C      1  0.5486210000000  0.4921690000000  0.4267860000000 1.0
C      1  0.4583480000000  0.4347650000000  0.4864370000000 1.0
C      1  0.5862650000000  0.5340950000000  0.4850970000000 1.0
C      1  0.5215570000000  0.5801480000000  0.5358390000000 1.0
C      1  0.5830630000000  0.4818000000000  0.4844220000000 1.0
C      1  0.5120450000000  0.4564920000000  0.4123470000000 1.0
C      1  0.4729500000000  0.4862600000000  0.5867810000000 1.0
C      1  0.5727220000000  0.4430790000000  0.5259940000000 1.0
C      1  0.5312410000000  0.4483010000000  0.5729700000000 1.0
C      1  0.4826600000000  0.4237220000000  0.4745400000000 1.0
C      1  0.5874610000000  0.5079080000000  0.4721210000000 1.0
C      1  0.5009680000000  0.5572340000000  0.4979860000000 1.0
C      1  0.4843440000000  0.5889460000000  0.5184860000000 1.0
C      1  0.5298060000000  0.5858670000000  0.4848550000000 1.0
C      1  0.4641750000000  0.4772050000000  0.5166100000000 1.0
C      1  0.5314630000000  0.4158900000000  0.4920100000000 1.0
C      1  0.5530390000000  0.5543980000000  0.4499230000000 1.0
C      1  0.5016620000000  0.4130480000000  0.4952510000000 1.0
C      1  0.4501220000000  0.5606390000000  0.5421910000000 1.0
C      1  0.5295980000000  0.4513800000000  0.4522390000000 1.0
C      1  0.5726600000000  0.5422970000000  0.5090540000000 1.0
C      1  0.5685640000000  0.4900880000000  0.4628720000000 1.0
C      1  0.5268980000000  0.4833620000000  0.4103670000000 1.0
C      1  0.4978230000000  0.5881110000000  0.5457780000000 1.0
C      1  0.5837330000000  0.5023010000000  0.5320360000000 1.0
C      1  0.5142380000000  0.5097120000000  0.5487530000000 1.0
C      1  0.5085440000000  0.5374510000000  0.5478880000000 1.0
C      1  0.4866270000000  0.5275850000000  0.4683100000000 1.0
C      1  0.5485210000000  0.5029930000000  0.5615380000000 1.0
C      1  0.5343350000000  0.4252110000000  0.5204880000000 1.0
C      1  0.4841710000000  0.5527660000000  0.4775880000000 1.0
C      1  0.4215610000000  0.4999860000000  0.4757290000000 1.0
C      1  0.5032190000000  0.4403560000000  0.5774270000000 1.0
C      1  0.4577330000000  0.5063280000000  0.5077040000000 1.0
C      1  0.4612270000000  0.5695690000000  0.4698030000000 1.0
C      1  0.4189350000000  0.4436830000000  0.4868190000000 1.0
C      1  0.4869070000000  0.4286490000000  0.4450930000000 1.0
C      1  0.4918740000000  0.5442600000000  0.5252090000000 1.0
C      1  0.4806740000000  0.5641650000000  0.4326080000000 1.0
C      1  0.4941120000000  0.4580250000000  0.4792940000000 1.0
C      1  0.5392050000000  0.4545530000000  0.5041690000000 1.0
C      1  0.4868570000000  0.4126940000000  0.5210730000000 1.0
C      1  0.4600390000000  0.5248580000000  0.4574060000000 1.0
C      1  0.5705550000000  0.4886530000000  0.5097470000000 1.0
C      1  0.4494400000000  0.5072080000000  0.4799930000000 1.0
C      1  0.4674020000000  0.4446750000000  0.4315610000000 1.0
C      1  0.4774050000000  0.4572060000000  0.5789710000000 1.0
C      1  0.4407640000000  0.4511820000000  0.4419890000000 1.0
C      1  0.5072910000000  0.5755010000000  0.4435270000000 1.0
C      1  0.4300760000000  0.4783630000000  0.4382960000000 1.0
C      1  0.4320430000000  0.5199420000000  0.5661280000000 1.0
C      1  0.4404250000000  0.4471750000000  0.4695140000000 1.0
C      1  0.5271890000000  0.5239660000000  0.5092100000000 1.0
C      1  0.4889980000000  0.4661490000000  0.5059910000000 1.0
C      1  0.4557070000000  0.4877400000000  0.4434600000000 1.0
C      1  0.5112320000000  0.4661300000000  0.5424190000000 1.0
C      1  0.4577100000000  0.5747930000000  0.5176300000000 1.0
C      1  0.5255810000000  0.4746540000000  0.5842850000000 1.0
C      1  0.5713680000000  0.5222450000000  0.5530860000000 1.0
C      1  0.4530160000000  0.4745490000000  0.5438850000000 1.0
C      1  0.5433860000000  0.5232120000000  0.4359600000000 1.0
C      1  0.4887330000000  0.5203410000000  0.3978940000000 1.0
C      1  0.4739220000000  0.5277980000000  0.5712420000000 1.0
C      1  0.5101320000000  0.4784590000000  0.5185720000000 1.0
C      1  0.5546120000000  0.4287060000000  0.4760060000000 1.0
C      1  0.5628970000000  0.4630620000000  0.5425410000000 1.0
C      1  0.5158390000000  0.5226690000000  0.5901840000000 1.0
C      1  0.4428810000000  0.5668910000000  0.4932230000000 1.0
C      1  0.5452580000000  0.5010570000000  0.5011400000000 1.0
C      1  0.4285900000000  0.5258420000000  0.5167390000000 1.0
C      1  0.4525160000000  0.4429430000000  0.5130150000000 1.0
C      1  0.5506780000000  0.4376320000000  0.5462160000000 1.0
C      1  0.5124160000000  0.4368240000000  0.4344560000000 1.0
C      1  0.4950200000000  0.4863480000000  0.4345700000000 1.0
C      1  0.5070400000000  0.5058600000000  0.5213080000000 1.0
C      1  0.5573770000000  0.4446440000000  0.4507030000000 1.0
C      1  0.4888450000000  0.5123830000000  0.5902610000000 1.0
C      1  0.4937960000000  0.5691440000000  0.5692430000000 1.0
C      1  0.5666410000000  0.4472670000000  0.4968950000000 1.0
C      1  0.4692130000000  0.5555610000000  0.5648920000000 1.0
END
