TITL C-2441163-1170-1371 0.0150847080798571 125000 -19045.4600178918 0 0 128 (C1) n - 1
REM
REM in /home/bkarasulu/work/CARBON/AIRSS/Generating-Clusters/ReaxFF-fromJPCA2015/Units_Real/with-SteepDescent/Higher-Symm
REM
REM
REM
REM
REM
REM ./C.cell (1df0a924f5614ab8850e4351716899ee)
REM
REM compiler GCC version 9.2.1 20190827 (Red Hat 9.2.1-1)
REM options -cpp -mtune=generic -march=x86-64 -g -O0 -fpre-include=/usr/include/finclude/math-vector-fortran.h
REM seed -318603266 -920091876 -1425279861 -699633419 2066495109 471280143 699591976 -538575887 1917535911 56206554 -694854447 -590393676 -89506144 923360803 970544551 -945911334 -1758731959 -245769667 -730160395 1424224737 -589891088 1142673841 755261115 -1194313706 1039606971 -2035925285 854301532 2144542238 2050972265 1171435261 -1891836115 547389519 1296992327
REM
CELL 1.54180   50.00000   50.00000   50.00000   90.00000   90.00000   90.00000
LATT -1
SFAC C  
C      1  0.4324860000000  0.5493090000000  0.4347200000000 1.0
C      1  0.4225440000000  0.4460880000000  0.4487880000000 1.0
C      1  0.4275350000000  0.4217270000000  0.5177130000000 1.0
C      1  0.4364370000000  0.5024840000000  0.5800120000000 1.0
C      1  0.4426060000000  0.5658620000000  0.5198630000000 1.0
C      1  0.5634140000000  0.5477670000000  0.5626290000000 1.0
C      1  0.5632320000000  0.4496450000000  0.5744130000000 1.0
C      1  0.5680120000000  0.4341480000000  0.4751040000000 1.0
C      1  0.5709060000000  0.5015120000000  0.4198100000000 1.0
C      1  0.5632980000000  0.5588030000000  0.4859060000000 1.0
C      1  0.4937160000000  0.4590930000000  0.4778590000000 1.0
C      1  0.4810810000000  0.4829940000000  0.5488500000000 1.0
C      1  0.4827160000000  0.5362470000000  0.5301400000000 1.0
C      1  0.4862170000000  0.5471290000000  0.4746020000000 1.0
C      1  0.4876560000000  0.4973550000000  0.4510190000000 1.0
C      1  0.5154390000000  0.4509920000000  0.4962700000000 1.0
C      1  0.5039760000000  0.4772660000000  0.4599000000000 1.0
C      1  0.5111040000000  0.5417460000000  0.4626430000000 1.0
C      1  0.5055640000000  0.5413750000000  0.5137700000000 1.0
C      1  0.5094060000000  0.4881630000000  0.5520140000000 1.0
C      1  0.4219480000000  0.5234640000000  0.5364370000000 1.0
C      1  0.4195150000000  0.5467460000000  0.4838550000000 1.0
C      1  0.4234120000000  0.4861060000000  0.4601330000000 1.0
C      1  0.4343190000000  0.4460560000000  0.5032340000000 1.0
C      1  0.4188370000000  0.4968450000000  0.5395760000000 1.0
C      1  0.5762060000000  0.5194630000000  0.4654010000000 1.0
C      1  0.5811330000000  0.5261000000000  0.5176230000000 1.0
C      1  0.5728070000000  0.4923180000000  0.5541150000000 1.0
C      1  0.5758030000000  0.4729690000000  0.5106960000000 1.0
C      1  0.5794640000000  0.4871380000000  0.4624330000000 1.0
C      1  0.5693840000000  0.4512810000000  0.5287280000000 1.0
C      1  0.5520880000000  0.4973940000000  0.5717210000000 1.0
C      1  0.5450870000000  0.5578490000000  0.5280690000000 1.0
C      1  0.5606320000000  0.5317280000000  0.4470580000000 1.0
C      1  0.5523000000000  0.4739460000000  0.4576860000000 1.0
C      1  0.4447370000000  0.4217610000000  0.4810720000000 1.0
C      1  0.4272020000000  0.5090630000000  0.4413370000000 1.0
C      1  0.4356770000000  0.5660190000000  0.4770710000000 1.0
C      1  0.4338500000000  0.5269560000000  0.5642710000000 1.0
C      1  0.4267360000000  0.4583790000000  0.5510390000000 1.0
C      1  0.5378680000000  0.4764670000000  0.4127460000000 1.0
C      1  0.5342510000000  0.4274230000000  0.4995910000000 1.0
C      1  0.5225260000000  0.4637170000000  0.5426430000000 1.0
C      1  0.5237660000000  0.5393860000000  0.5365310000000 1.0
C      1  0.5301650000000  0.5634270000000  0.4540070000000 1.0
C      1  0.4736040000000  0.4609770000000  0.5717010000000 1.0
C      1  0.4580490000000  0.4635670000000  0.5095280000000 1.0
C      1  0.4727140000000  0.4863310000000  0.4249810000000 1.0
C      1  0.4751810000000  0.5688740000000  0.4588280000000 1.0
C      1  0.4757000000000  0.5565510000000  0.5551030000000 1.0
C      1  0.5447310000000  0.4255740000000  0.4617880000000 1.0
C      1  0.5390660000000  0.4374330000000  0.5781470000000 1.0
C      1  0.5415120000000  0.5524360000000  0.5796770000000 1.0
C      1  0.5453460000000  0.5775590000000  0.4789590000000 1.0
C      1  0.5445980000000  0.5053060000000  0.4109850000000 1.0
C      1  0.4486890000000  0.4088340000000  0.5310120000000 1.0
C      1  0.4447840000000  0.4283100000000  0.4534250000000 1.0
C      1  0.4537850000000  0.5540510000000  0.4172040000000 1.0
C      1  0.4632310000000  0.5863410000000  0.5222980000000 1.0
C      1  0.4621430000000  0.5024230000000  0.5954250000000 1.0
C      1  0.4721020000000  0.4313190000000  0.4390120000000 1.0
C      1  0.4620270000000  0.4229260000000  0.5514070000000 1.0
C      1  0.4713700000000  0.5300380000000  0.5928940000000 1.0
C      1  0.4725830000000  0.5962740000000  0.4964470000000 1.0
C      1  0.4669490000000  0.5281820000000  0.4126340000000 1.0
C      1  0.5290600000000  0.4362330000000  0.5490770000000 1.0
C      1  0.5268650000000  0.4319030000000  0.4400360000000 1.0
C      1  0.5260860000000  0.5297680000000  0.4126180000000 1.0
C      1  0.5271390000000  0.5920720000000  0.4977450000000 1.0
C      1  0.5256380000000  0.5304100000000  0.5925040000000 1.0
C      1  0.5429880000000  0.5465520000000  0.4310210000000 1.0
C      1  0.5431320000000  0.4575950000000  0.4350820000000 1.0
C      1  0.5472320000000  0.4325100000000  0.5264800000000 1.0
C      1  0.5310170000000  0.5017120000000  0.5895490000000 1.0
C      1  0.5315850000000  0.5842170000000  0.5251090000000 1.0
C      1  0.4559600000000  0.5436050000000  0.5727210000000 1.0
C      1  0.4500650000000  0.4460160000000  0.5622430000000 1.0
C      1  0.4674580000000  0.4046330000000  0.4861480000000 1.0
C      1  0.4502460000000  0.5071300000000  0.4228340000000 1.0
C      1  0.4565930000000  0.5856850000000  0.4743290000000 1.0
C      1  0.4243820000000  0.5463010000000  0.5141740000000 1.0
C      1  0.4182270000000  0.5350700000000  0.4536570000000 1.0
C      1  0.4088790000000  0.4647480000000  0.4489120000000 1.0
C      1  0.4168500000000  0.4456480000000  0.5272680000000 1.0
C      1  0.4205300000000  0.4835460000000  0.5635230000000 1.0
C      1  0.5797910000000  0.5367270000000  0.4900940000000 1.0
C      1  0.5726810000000  0.5479460000000  0.5364650000000 1.0
C      1  0.5786250000000  0.4624070000000  0.5555320000000 1.0
C      1  0.5855090000000  0.4587290000000  0.4840500000000 1.0
C      1  0.5901540000000  0.4906790000000  0.4359320000000 1.0
C      1  0.4946170000000  0.4406090000000  0.5721310000000 1.0
C      1  0.4965500000000  0.5638150000000  0.5788690000000 1.0
C      1  0.5077170000000  0.5971620000000  0.4609050000000 1.0
C      1  0.4926350000000  0.4954990000000  0.4033150000000 1.0
C      1  0.4945610000000  0.4089800000000  0.4748370000000 1.0
C      1  0.5021270000000  0.4483430000000  0.4158230000000 1.0
C      1  0.5053510000000  0.5619140000000  0.4215170000000 1.0
C      1  0.5115200000000  0.5868730000000  0.5466780000000 1.0
C      1  0.5099520000000  0.4793310000000  0.5963360000000 1.0
C      1  0.4957940000000  0.4066630000000  0.5250020000000 1.0
C      1  0.5172110000000  0.5198250000000  0.4980220000000 1.0
C      1  0.5188750000000  0.5149340000000  0.4702580000000 1.0
C      1  0.5286850000000  0.4875100000000  0.4645800000000 1.0
C      1  0.5219410000000  0.4712380000000  0.5156170000000 1.0
C      1  0.5245170000000  0.5106030000000  0.5412470000000 1.0
C      1  0.4710420000000  0.5241430000000  0.4871130000000 1.0
C      1  0.4686070000000  0.5161780000000  0.5149010000000 1.0
C      1  0.4658150000000  0.4878120000000  0.5251710000000 1.0
C      1  0.4667970000000  0.4635430000000  0.4845090000000 1.0
C      1  0.4675390000000  0.5046550000000  0.4684870000000 1.0
C      1  0.5109110000000  0.4719940000000  0.4019280000000 1.0
C      1  0.5108330000000  0.4087190000000  0.4999450000000 1.0
C      1  0.5147430000000  0.4512270000000  0.5889720000000 1.0
C      1  0.5217760000000  0.5742110000000  0.5711270000000 1.0
C      1  0.5160950000000  0.5852680000000  0.4359490000000 1.0
C      1  0.4814370000000  0.4809380000000  0.5953360000000 1.0
C      1  0.4702390000000  0.3983380000000  0.5147780000000 1.0
C      1  0.4753260000000  0.4537020000000  0.4211100000000 1.0
C      1  0.4781620000000  0.5683520000000  0.4290960000000 1.0
C      1  0.4823150000000  0.5829010000000  0.5442690000000 1.0
C      1  0.5003690000000  0.6026630000000  0.4874820000000 1.0
C      1  0.4986570000000  0.5406120000000  0.5964020000000 1.0
C      1  0.4912780000000  0.4200300000000  0.5517800000000 1.0
C      1  0.4975680000000  0.5236720000000  0.4070250000000 1.0
C      1  0.4982200000000  0.4231100000000  0.4496250000000 1.0
C      1  0.5777790000000  0.4986660000000  0.5247790000000 1.0
C      1  0.4503680000000  0.4836160000000  0.4747200000000 1.0
C      1  0.5237450000000  0.4995360000000  0.5154740000000 1.0
END
