TITL C-2441168-9922-221 0.0695840401444883 125000 -25621.1996744215 0 0 183 (C1) n - 1
REM
REM in /home/bkarasulu/work/CARBON/AIRSS/Generating-Clusters/ReaxFF-fromJPCA2015/Units_Real/with-SteepDescent/Higher-Symm
REM
REM
REM
REM
REM
REM ./C.cell (1df0a924f5614ab8850e4351716899ee)
REM
REM compiler GCC version 9.2.1 20190827 (Red Hat 9.2.1-1)
REM options -cpp -mtune=generic -march=x86-64 -g -O0 -fpre-include=/usr/include/finclude/math-vector-fortran.h
REM seed -1929488411 1623647315 1974977076 21126225 -1892874843 -768780976 -261990939 1901055982 658775414 -1786588925 -1758604196 -630808647 1369720308 -111808325 1074294811 -1642640816 372318026 -442715870 -336959122 1848119257 -1034767981 -5068372 738309084 1616112701 623304781 -792641940 -1301761390 306522544 1514503567 876827850 771454839 -719813519 1623571913
REM
CELL 1.54180   50.00000   50.00000   50.00000   90.00000   90.00000   90.00000
LATT -1
SFAC C  
C      1  0.5396820000000  0.5914250000000  0.4784460000000 1.0
C      1  0.4901680000000  0.5858920000000  0.4535180000000 1.0
C      1  0.4548470000000  0.5872530000000  0.4966390000000 1.0
C      1  0.4835000000000  0.5866600000000  0.5453680000000 1.0
C      1  0.5374250000000  0.5906480000000  0.5325570000000 1.0
C      1  0.5422380000000  0.4118560000000  0.4817850000000 1.0
C      1  0.4979640000000  0.4133770000000  0.4533510000000 1.0
C      1  0.4510770000000  0.4124670000000  0.4914470000000 1.0
C      1  0.4773220000000  0.4053900000000  0.5449680000000 1.0
C      1  0.5341940000000  0.4102330000000  0.5327250000000 1.0
C      1  0.4129650000000  0.5817210000000  0.5110930000000 1.0
C      1  0.4586160000000  0.5750310000000  0.5938450000000 1.0
C      1  0.5796790000000  0.5805530000000  0.5454560000000 1.0
C      1  0.5669400000000  0.5825250000000  0.4449480000000 1.0
C      1  0.4738690000000  0.5790300000000  0.4138450000000 1.0
C      1  0.4110880000000  0.4240640000000  0.5038960000000 1.0
C      1  0.4759220000000  0.4290470000000  0.5838870000000 1.0
C      1  0.5719070000000  0.4247850000000  0.5508010000000 1.0
C      1  0.5729990000000  0.4232230000000  0.4456420000000 1.0
C      1  0.4707460000000  0.4266280000000  0.4153630000000 1.0
C      1  0.4612570000000  0.5341690000000  0.5211380000000 1.0
C      1  0.5099080000000  0.5378650000000  0.5427450000000 1.0
C      1  0.5418610000000  0.5484290000000  0.5075830000000 1.0
C      1  0.5180600000000  0.5371990000000  0.4623690000000 1.0
C      1  0.4721810000000  0.5416020000000  0.4741340000000 1.0
C      1  0.4698270000000  0.4591870000000  0.5139230000000 1.0
C      1  0.5077620000000  0.4576300000000  0.5400440000000 1.0
C      1  0.5490040000000  0.4644190000000  0.5128230000000 1.0
C      1  0.5138870000000  0.4539190000000  0.4730220000000 1.0
C      1  0.4659840000000  0.4614800000000  0.4668730000000 1.0
C      1  0.4112110000000  0.5369580000000  0.5659190000000 1.0
C      1  0.5332470000000  0.5433760000000  0.5989710000000 1.0
C      1  0.6049600000000  0.5349470000000  0.5004170000000 1.0
C      1  0.5291160000000  0.5363510000000  0.3983440000000 1.0
C      1  0.4188180000000  0.5367400000000  0.4394000000000 1.0
C      1  0.4131100000000  0.4652600000000  0.5586190000000 1.0
C      1  0.5269360000000  0.4709030000000  0.6041340000000 1.0
C      1  0.6068230000000  0.4616110000000  0.5032270000000 1.0
C      1  0.5365950000000  0.4680320000000  0.4031070000000 1.0
C      1  0.4138530000000  0.4622990000000  0.4355310000000 1.0
C      1  0.5752900000000  0.4527760000000  0.4394140000000 1.0
C      1  0.4608740000000  0.4517950000000  0.4062200000000 1.0
C      1  0.4064690000000  0.4532850000000  0.5092600000000 1.0
C      1  0.4780790000000  0.4541060000000  0.5987560000000 1.0
C      1  0.5840220000000  0.4520190000000  0.5486620000000 1.0
C      1  0.5611840000000  0.5563230000000  0.4333520000000 1.0
C      1  0.4626820000000  0.5528210000000  0.4142360000000 1.0
C      1  0.4090130000000  0.5543060000000  0.5191370000000 1.0
C      1  0.4804140000000  0.5559480000000  0.5909480000000 1.0
C      1  0.5854470000000  0.5519830000000  0.5433270000000 1.0
C      1  0.5952560000000  0.5141440000000  0.5188260000000 1.0
C      1  0.5439850000000  0.5176030000000  0.4177050000000 1.0
C      1  0.4356200000000  0.5143710000000  0.4332050000000 1.0
C      1  0.4114070000000  0.5178070000000  0.5434070000000 1.0
C      1  0.5143980000000  0.5218670000000  0.5933930000000 1.0
C      1  0.5974800000000  0.4860940000000  0.5191340000000 1.0
C      1  0.5480520000000  0.4895220000000  0.4182440000000 1.0
C      1  0.4310960000000  0.4858950000000  0.4355620000000 1.0
C      1  0.4114550000000  0.4888370000000  0.5397970000000 1.0
C      1  0.5108530000000  0.4939970000000  0.5968760000000 1.0
C      1  0.4536590000000  0.5807870000000  0.4464150000000 1.0
C      1  0.4388580000000  0.5917640000000  0.5217510000000 1.0
C      1  0.5069240000000  0.5829470000000  0.5694720000000 1.0
C      1  0.5658370000000  0.5904090000000  0.5210980000000 1.0
C      1  0.5399080000000  0.5929480000000  0.4482300000000 1.0
C      1  0.4471860000000  0.4248760000000  0.4363880000000 1.0
C      1  0.4352600000000  0.4137550000000  0.5171220000000 1.0
C      1  0.4952770000000  0.4152140000000  0.5658840000000 1.0
C      1  0.5633670000000  0.4130440000000  0.5250380000000 1.0
C      1  0.5466250000000  0.4225380000000  0.4310740000000 1.0
C      1  0.5064380000000  0.5110600000000  0.4744810000000 1.0
C      1  0.4759310000000  0.5135140000000  0.4719270000000 1.0
C      1  0.4786720000000  0.5102890000000  0.5219710000000 1.0
C      1  0.5071300000000  0.5102350000000  0.5263160000000 1.0
C      1  0.5490920000000  0.5216240000000  0.5023240000000 1.0
C      1  0.5129710000000  0.4858370000000  0.4595020000000 1.0
C      1  0.4651040000000  0.4902730000000  0.4845070000000 1.0
C      1  0.4755650000000  0.4853670000000  0.5088430000000 1.0
C      1  0.5144130000000  0.4846490000000  0.5455940000000 1.0
C      1  0.5370540000000  0.4825260000000  0.4943850000000 1.0
C      1  0.5475800000000  0.4321910000000  0.5661360000000 1.0
C      1  0.5791020000000  0.4295780000000  0.4740760000000 1.0
C      1  0.5003760000000  0.4311380000000  0.4158050000000 1.0
C      1  0.4134830000000  0.4276240000000  0.4740600000000 1.0
C      1  0.4528250000000  0.4340620000000  0.5655590000000 1.0
C      1  0.5586970000000  0.5741670000000  0.5662700000000 1.0
C      1  0.5769830000000  0.5702070000000  0.4706280000000 1.0
C      1  0.5014500000000  0.5705660000000  0.4143640000000 1.0
C      1  0.4173750000000  0.5725890000000  0.4825100000000 1.0
C      1  0.4452850000000  0.5653530000000  0.5646580000000 1.0
C      1  0.4909670000000  0.4429690000000  0.4554490000000 1.0
C      1  0.4536690000000  0.4476110000000  0.4919920000000 1.0
C      1  0.4807040000000  0.4493740000000  0.5379720000000 1.0
C      1  0.5263720000000  0.4436830000000  0.5218720000000 1.0
C      1  0.5390310000000  0.4387710000000  0.4715960000000 1.0
C      1  0.4902010000000  0.5534690000000  0.4553710000000 1.0
C      1  0.4562570000000  0.5516390000000  0.4957310000000 1.0
C      1  0.4872630000000  0.5575210000000  0.5292870000000 1.0
C      1  0.5353550000000  0.5545170000000  0.5342270000000 1.0
C      1  0.5247510000000  0.5598920000000  0.4865810000000 1.0
C      1  0.5624170000000  0.4555070000000  0.4694030000000 1.0
C      1  0.4963690000000  0.4567880000000  0.4304520000000 1.0
C      1  0.4290220000000  0.4636330000000  0.4927680000000 1.0
C      1  0.4617540000000  0.4605280000000  0.5566650000000 1.0
C      1  0.5556330000000  0.4616970000000  0.5595500000000 1.0
C      1  0.5676620000000  0.5437940000000  0.4612240000000 1.0
C      1  0.4885750000000  0.5428340000000  0.4273910000000 1.0
C      1  0.4254340000000  0.5445010000000  0.4916870000000 1.0
C      1  0.4645800000000  0.5425320000000  0.5685390000000 1.0
C      1  0.5553930000000  0.5477800000000  0.5526710000000 1.0
C      1  0.3946900000000  0.5295740000000  0.4543610000000 1.0
C      1  0.4250830000000  0.5252600000000  0.5902840000000 1.0
C      1  0.5588220000000  0.5299530000000  0.5941790000000 1.0
C      1  0.6120840000000  0.5258380000000  0.4707850000000 1.0
C      1  0.5043060000000  0.5230480000000  0.3882640000000 1.0
C      1  0.4028260000000  0.4536580000000  0.4615810000000 1.0
C      1  0.4307750000000  0.4676790000000  0.5842360000000 1.0
C      1  0.5576460000000  0.4703310000000  0.5994490000000 1.0
C      1  0.6010260000000  0.4682260000000  0.4757090000000 1.0
C      1  0.5080530000000  0.4694820000000  0.3931660000000 1.0
C      1  0.5547090000000  0.5113780000000  0.5551050000000 1.0
C      1  0.5712800000000  0.5161650000000  0.4718510000000 1.0
C      1  0.4874700000000  0.5093600000000  0.4236100000000 1.0
C      1  0.4202190000000  0.5156150000000  0.4838110000000 1.0
C      1  0.4578790000000  0.5135840000000  0.5672220000000 1.0
C      1  0.5406590000000  0.4858380000000  0.5541190000000 1.0
C      1  0.5557560000000  0.4862510000000  0.4732080000000 1.0
C      1  0.5008080000000  0.4845240000000  0.4338170000000 1.0
C      1  0.4369770000000  0.4912050000000  0.4934030000000 1.0
C      1  0.4702530000000  0.4874620000000  0.5636840000000 1.0
C      1  0.5728930000000  0.5093620000000  0.5780890000000 1.0
C      1  0.5955230000000  0.5062330000000  0.4569440000000 1.0
C      1  0.4831670000000  0.5039970000000  0.3942550000000 1.0
C      1  0.3949630000000  0.5058770000000  0.4756420000000 1.0
C      1  0.4474940000000  0.5061910000000  0.5935750000000 1.0
C      1  0.5755530000000  0.4790330000000  0.5793880000000 1.0
C      1  0.5956840000000  0.4748200000000  0.4513810000000 1.0
C      1  0.4796660000000  0.4731300000000  0.3935870000000 1.0
C      1  0.3951640000000  0.4767400000000  0.4766170000000 1.0
C      1  0.4530320000000  0.4753770000000  0.5991960000000 1.0
C      1  0.4763730000000  0.3972900000000  0.4947820000000 1.0
C      1  0.4883580000000  0.3939290000000  0.5206750000000 1.0
C      1  0.5167910000000  0.3922120000000  0.5170250000000 1.0
C      1  0.5212490000000  0.3940150000000  0.4894490000000 1.0
C      1  0.4973170000000  0.3966930000000  0.4758630000000 1.0
C      1  0.4774700000000  0.6038610000000  0.4987060000000 1.0
C      1  0.4906050000000  0.6057590000000  0.5236800000000 1.0
C      1  0.5182140000000  0.6076920000000  0.5170400000000 1.0
C      1  0.5199970000000  0.6080560000000  0.4891950000000 1.0
C      1  0.4948410000000  0.6038990000000  0.4765770000000 1.0
C      1  0.5050250000000  0.4535700000000  0.6002870000000 1.0
C      1  0.5934980000000  0.4456880000000  0.5228630000000 1.0
C      1  0.5529810000000  0.4478480000000  0.4181750000000 1.0
C      1  0.4349640000000  0.4469270000000  0.4223170000000 1.0
C      1  0.4118190000000  0.4479700000000  0.5370870000000 1.0
C      1  0.5105140000000  0.5632540000000  0.5888890000000 1.0
C      1  0.5951320000000  0.5549010000000  0.5170290000000 1.0
C      1  0.5382290000000  0.5579530000000  0.4152940000000 1.0
C      1  0.4404750000000  0.5602960000000  0.4315860000000 1.0
C      1  0.4159070000000  0.5585530000000  0.5466920000000 1.0
C      1  0.4534650000000  0.5867920000000  0.5459870000000 1.0
C      1  0.5341560000000  0.5898830000000  0.5632630000000 1.0
C      1  0.5668950000000  0.5870820000000  0.4926930000000 1.0
C      1  0.5138920000000  0.5879420000000  0.4358570000000 1.0
C      1  0.4386990000000  0.5875830000000  0.4699010000000 1.0
C      1  0.4494180000000  0.4148750000000  0.5433600000000 1.0
C      1  0.5244090000000  0.4161630000000  0.5613830000000 1.0
C      1  0.5680060000000  0.4132990000000  0.4961870000000 1.0
C      1  0.5179520000000  0.4139740000000  0.4323140000000 1.0
C      1  0.4371030000000  0.4166460000000  0.4628370000000 1.0
C      1  0.5041540000000  0.5232120000000  0.5676450000000 1.0
C      1  0.5658430000000  0.5106380000000  0.5236820000000 1.0
C      1  0.5359290000000  0.5222150000000  0.4448590000000 1.0
C      1  0.4643320000000  0.5073820000000  0.4430740000000 1.0
C      1  0.4373560000000  0.5187630000000  0.5296430000000 1.0
C      1  0.4981980000000  0.4946720000000  0.5693140000000 1.0
C      1  0.5694360000000  0.4819500000000  0.5226910000000 1.0
C      1  0.5395560000000  0.4933890000000  0.4491130000000 1.0
C      1  0.4565220000000  0.4795570000000  0.4460550000000 1.0
C      1  0.4348810000000  0.4923110000000  0.5224930000000 1.0
C      1  0.5007890000000  0.5625350000000  0.5044920000000 1.0
C      1  0.5060180000000  0.4430350000000  0.4997700000000 1.0
C      1  0.5228940000000  0.5071380000000  0.5003530000000 1.0
END
