TITL C-2441165-58-824 7.64838940959534e-05 125000 -2605.3923087685 0 0 20 (C1) n - 1
REM
REM in /home/bkarasulu/work/CARBON/AIRSS/Generating-Clusters/ReaxFF-fromJPCA2015/Units_Real/with-SteepDescent/Higher-Symm
REM
REM
REM
REM
REM
REM ./C.cell (1df0a924f5614ab8850e4351716899ee)
REM
REM compiler GCC version 9.2.1 20190827 (Red Hat 9.2.1-1)
REM options -cpp -mtune=generic -march=x86-64 -g -O0 -fpre-include=/usr/include/finclude/math-vector-fortran.h
REM seed 384287866 900710084 -918906508 14520035 -1188782529 -243555911 155443270 1310573453 1198375964 -1501904769 76132075 -366365284 1551810556 965927430 675143950 -1877042390 -14650948 1959401256 1419322213 -1993652089 5466530 238855408 -932540677 -398468774 1986855105 -1066582811 1441107797 1571014066 -125913403 2120081448 -1251445379 -1974287286 1885714601
REM
CELL 1.54180   50.00000   50.00000   50.00000   90.00000   90.00000   90.00000
LATT -1
SFAC C  
C      1  0.5371160000000  0.5676700000000  0.4858680000000 1.0
C      1  0.5376460000000  0.4549830000000  0.4475940000000 1.0
C      1  0.5376070000000  0.4777580000000  0.5631930000000 1.0
C      1  0.4665470000000  0.5663870000000  0.5119890000000 1.0
C      1  0.4671360000000  0.4543890000000  0.5513130000000 1.0
C      1  0.4665370000000  0.4777100000000  0.4345210000000 1.0
C      1  0.4848890000000  0.5507420000000  0.5020540000000 1.0
C      1  0.4848200000000  0.4775820000000  0.4530310000000 1.0
C      1  0.4847420000000  0.4707860000000  0.5416320000000 1.0
C      1  0.5194460000000  0.5511630000000  0.4952270000000 1.0
C      1  0.5192830000000  0.4770090000000  0.5446800000000 1.0
C      1  0.5193870000000  0.4710740000000  0.4567630000000 1.0
C      1  0.5372480000000  0.5283640000000  0.4956890000000 1.0
C      1  0.5364590000000  0.4824020000000  0.4764870000000 1.0
C      1  0.5363980000000  0.4878530000000  0.5246470000000 1.0
C      1  0.4677870000000  0.5279090000000  0.5014730000000 1.0
C      1  0.4668350000000  0.4825760000000  0.5221350000000 1.0
C      1  0.4677520000000  0.4890090000000  0.4727610000000 1.0
C      1  0.5446200000000  0.4990070000000  0.4990200000000 1.0
C      1  0.4595860000000  0.5001720000000  0.4983740000000 1.0
END
