TITL C-2441156-4686-849 0.0152809857634779 125000 -19110.3491544238 0 0 133 (C1) n - 1
REM
REM in /home/bkarasulu/work/CARBON/AIRSS/Generating-Clusters/ReaxFF-fromJPCA2015/Units_Real/with-SteepDescent/Higher-Symm
REM
REM
REM
REM
REM
REM ./C.cell (1df0a924f5614ab8850e4351716899ee)
REM
REM compiler GCC version 9.2.1 20190827 (Red Hat 9.2.1-1)
REM options -cpp -mtune=generic -march=x86-64 -g -O0 -fpre-include=/usr/include/finclude/math-vector-fortran.h
REM seed 838228421 412926199 -1307161045 310473244 1936499629 1942153521 1563972995 2045608566 395982936 -1146217276 794665535 2082974804 -64274197 -1039578523 -1605406975 -2122993808 455952619 -1768456300 -1983287900 542859711 -2142764177 787543201 -590058960 -118780383 -1315793976 694789287 964734276 1413748178 -1642873362 -1501379022 1150638417 -650747099 -715922491
REM
CELL 1.54180   50.00000   50.00000   50.00000   90.00000   90.00000   90.00000
LATT -1
SFAC C  
C      1  0.5513630000000  0.4841150000000  0.4069020000000 1.0
C      1  0.4067370000000  0.5525570000000  0.4876510000000 1.0
C      1  0.4720660000000  0.4158300000000  0.5513800000000 1.0
C      1  0.5487700000000  0.5329030000000  0.5850080000000 1.0
C      1  0.4538710000000  0.5246310000000  0.4056490000000 1.0
C      1  0.4490080000000  0.4751890000000  0.5940870000000 1.0
C      1  0.4115340000000  0.4534550000000  0.5253800000000 1.0
C      1  0.5727900000000  0.4562130000000  0.4773300000000 1.0
C      1  0.5817410000000  0.5445660000000  0.5265010000000 1.0
C      1  0.4680900000000  0.5783010000000  0.4515840000000 1.0
C      1  0.5142390000000  0.5919060000000  0.5520580000000 1.0
C      1  0.5210800000000  0.4142210000000  0.4485360000000 1.0
C      1  0.5655030000000  0.4898460000000  0.4317880000000 1.0
C      1  0.4305000000000  0.5657480000000  0.4815390000000 1.0
C      1  0.4886780000000  0.4286510000000  0.5720720000000 1.0
C      1  0.5672550000000  0.5168360000000  0.5689940000000 1.0
C      1  0.4341980000000  0.5182660000000  0.4269460000000 1.0
C      1  0.4370950000000  0.4723950000000  0.5677230000000 1.0
C      1  0.4355090000000  0.4321260000000  0.5121460000000 1.0
C      1  0.5568670000000  0.4368670000000  0.4905560000000 1.0
C      1  0.5667060000000  0.5675780000000  0.5138850000000 1.0
C      1  0.4887310000000  0.5713890000000  0.4308440000000 1.0
C      1  0.5142990000000  0.5638350000000  0.5609920000000 1.0
C      1  0.5128840000000  0.4389680000000  0.4346520000000 1.0
C      1  0.4014850000000  0.5245320000000  0.4858550000000 1.0
C      1  0.4779080000000  0.3945050000000  0.5171290000000 1.0
C      1  0.5226390000000  0.4801830000000  0.3984520000000 1.0
C      1  0.4048320000000  0.4836200000000  0.5234410000000 1.0
C      1  0.6019250000000  0.4842840000000  0.4805850000000 1.0
C      1  0.6025820000000  0.5231840000000  0.5194680000000 1.0
C      1  0.4808680000000  0.5932500000000  0.4728280000000 1.0
C      1  0.5173080000000  0.6005670000000  0.5251750000000 1.0
C      1  0.5178300000000  0.3934300000000  0.4829420000000 1.0
C      1  0.5265640000000  0.5162000000000  0.5960200000000 1.0
C      1  0.4794030000000  0.5183960000000  0.3931050000000 1.0
C      1  0.4756180000000  0.4785940000000  0.6029770000000 1.0
C      1  0.4888050000000  0.5441630000000  0.4820250000000 1.0
C      1  0.4897610000000  0.4928410000000  0.5361420000000 1.0
C      1  0.5467590000000  0.4893890000000  0.4948570000000 1.0
C      1  0.4903840000000  0.4499420000000  0.5137850000000 1.0
C      1  0.5147350000000  0.4540520000000  0.4962700000000 1.0
C      1  0.5081980000000  0.5290430000000  0.4971220000000 1.0
C      1  0.4859870000000  0.5070070000000  0.4560290000000 1.0
C      1  0.5089700000000  0.5161470000000  0.5394020000000 1.0
C      1  0.5072320000000  0.4904730000000  0.4642160000000 1.0
C      1  0.5479060000000  0.5113980000000  0.5083620000000 1.0
C      1  0.4578300000000  0.5130050000000  0.4940970000000 1.0
C      1  0.4580610000000  0.4874440000000  0.5061800000000 1.0
C      1  0.4075840000000  0.4692410000000  0.4992890000000 1.0
C      1  0.5013900000000  0.3970970000000  0.4604720000000 1.0
C      1  0.4612740000000  0.4960290000000  0.3982800000000 1.0
C      1  0.4032370000000  0.5388230000000  0.5109740000000 1.0
C      1  0.5953220000000  0.5425380000000  0.4985390000000 1.0
C      1  0.5930020000000  0.4628840000000  0.4969020000000 1.0
C      1  0.4927280000000  0.6030410000000  0.5390160000000 1.0
C      1  0.5080730000000  0.5917880000000  0.4612370000000 1.0
C      1  0.4942930000000  0.4008750000000  0.5389320000000 1.0
C      1  0.4592520000000  0.5010410000000  0.6015950000000 1.0
C      1  0.5359570000000  0.5067860000000  0.3987800000000 1.0
C      1  0.5397540000000  0.4897880000000  0.5886790000000 1.0
C      1  0.4994210000000  0.5217360000000  0.5917800000000 1.0
C      1  0.5968680000000  0.4956900000000  0.5224400000000 1.0
C      1  0.5249530000000  0.5809990000000  0.5050560000000 1.0
C      1  0.4964670000000  0.4752900000000  0.4082130000000 1.0
C      1  0.4956630000000  0.4707860000000  0.5851160000000 1.0
C      1  0.4980870000000  0.5315640000000  0.4091390000000 1.0
C      1  0.5951950000000  0.5062400000000  0.4753990000000 1.0
C      1  0.4178680000000  0.5054060000000  0.5381600000000 1.0
C      1  0.4180650000000  0.5061960000000  0.4716550000000 1.0
C      1  0.5227910000000  0.3989690000000  0.5080790000000 1.0
C      1  0.4734850000000  0.3979590000000  0.4943330000000 1.0
C      1  0.4684030000000  0.5894440000000  0.4991800000000 1.0
C      1  0.5263850000000  0.5309510000000  0.4134430000000 1.0
C      1  0.4198230000000  0.5331540000000  0.5338120000000 1.0
C      1  0.5239890000000  0.4084150000000  0.5336760000000 1.0
C      1  0.5248680000000  0.4669900000000  0.5849970000000 1.0
C      1  0.4716060000000  0.4744120000000  0.4142850000000 1.0
C      1  0.4722100000000  0.5241810000000  0.5885450000000 1.0
C      1  0.4215040000000  0.4780590000000  0.4737300000000 1.0
C      1  0.5875350000000  0.4706010000000  0.5286080000000 1.0
C      1  0.5864620000000  0.5315770000000  0.4723450000000 1.0
C      1  0.5318950000000  0.5876610000000  0.4768430000000 1.0
C      1  0.4697880000000  0.5924800000000  0.5272590000000 1.0
C      1  0.4720310000000  0.4046140000000  0.4675720000000 1.0
C      1  0.5631550000000  0.4872900000000  0.5701220000000 1.0
C      1  0.5698730000000  0.5719040000000  0.4853950000000 1.0
C      1  0.4876100000000  0.5541450000000  0.5630610000000 1.0
C      1  0.5675030000000  0.5170450000000  0.4379040000000 1.0
C      1  0.4403100000000  0.4966880000000  0.5520810000000 1.0
C      1  0.4312300000000  0.4911780000000  0.4345490000000 1.0
C      1  0.5520540000000  0.4480980000000  0.5190480000000 1.0
C      1  0.4430150000000  0.4296600000000  0.4859090000000 1.0
C      1  0.4501160000000  0.5666590000000  0.5030430000000 1.0
C      1  0.4843430000000  0.4423580000000  0.4354700000000 1.0
C      1  0.5172400000000  0.4278080000000  0.5738200000000 1.0
C      1  0.5172810000000  0.5711620000000  0.4390140000000 1.0
C      1  0.4471880000000  0.5743670000000  0.5317200000000 1.0
C      1  0.5400800000000  0.4435330000000  0.5690450000000 1.0
C      1  0.5678100000000  0.5424230000000  0.4475040000000 1.0
C      1  0.4525090000000  0.4259330000000  0.4605160000000 1.0
C      1  0.5422670000000  0.4313180000000  0.5412620000000 1.0
C      1  0.5537180000000  0.5730160000000  0.4625120000000 1.0
C      1  0.5366110000000  0.5497360000000  0.4336850000000 1.0
C      1  0.4622210000000  0.5447850000000  0.5651140000000 1.0
C      1  0.4562290000000  0.4470480000000  0.4377080000000 1.0
C      1  0.5678060000000  0.4675270000000  0.5494390000000 1.0
C      1  0.4338700000000  0.4673690000000  0.4471030000000 1.0
C      1  0.4398990000000  0.5506510000000  0.5466400000000 1.0
C      1  0.4489210000000  0.4305820000000  0.5383940000000 1.0
C      1  0.5358590000000  0.4528950000000  0.4494400000000 1.0
C      1  0.4407360000000  0.5314740000000  0.4528380000000 1.0
C      1  0.4445780000000  0.5610800000000  0.4570530000000 1.0
C      1  0.5393550000000  0.5563160000000  0.5099200000000 1.0
C      1  0.5335560000000  0.4346850000000  0.4723470000000 1.0
C      1  0.5404480000000  0.5486980000000  0.5626900000000 1.0
C      1  0.4816920000000  0.5429370000000  0.4283900000000 1.0
C      1  0.4859920000000  0.4559780000000  0.5643860000000 1.0
C      1  0.4308740000000  0.4501000000000  0.5496750000000 1.0
C      1  0.5531210000000  0.4760160000000  0.4565040000000 1.0
C      1  0.5555270000000  0.5292690000000  0.5444040000000 1.0
C      1  0.4952890000000  0.5355580000000  0.5220350000000 1.0
C      1  0.5363500000000  0.5073810000000  0.5332180000000 1.0
C      1  0.5377000000000  0.5317430000000  0.4930820000000 1.0
C      1  0.4964260000000  0.4672960000000  0.4772230000000 1.0
C      1  0.4931650000000  0.4635150000000  0.5393530000000 1.0
C      1  0.4902260000000  0.5351290000000  0.4550570000000 1.0
C      1  0.5349750000000  0.4980470000000  0.4698060000000 1.0
C      1  0.4610280000000  0.4963030000000  0.5332450000000 1.0
C      1  0.4585160000000  0.5103290000000  0.4653980000000 1.0
C      1  0.5340770000000  0.4709090000000  0.5133070000000 1.0
C      1  0.4743340000000  0.4655560000000  0.4953090000000 1.0
C      1  0.4702020000000  0.5382230000000  0.5045030000000 1.0
C      1  0.4987690000000  0.4982350000000  0.5046640000000 1.0
END
