TITL C-2441161-5029-998 0.153063236704888 125000 -17729.3780117597 0 0 144 (C1) n - 1
REM
REM in /home/bkarasulu/work/CARBON/AIRSS/Generating-Clusters/ReaxFF-fromJPCA2015/Units_Real/with-SteepDescent/Higher-Symm
REM
REM
REM
REM
REM
REM ./C.cell (1df0a924f5614ab8850e4351716899ee)
REM
REM compiler GCC version 9.2.1 20190827 (Red Hat 9.2.1-1)
REM options -cpp -mtune=generic -march=x86-64 -g -O0 -fpre-include=/usr/include/finclude/math-vector-fortran.h
REM seed 1164618364 999187861 439827045 -15407223 -1813638796 -149614762 -815040375 -588029891 1684710693 -1876162977 54308611 1204416131 -796458206 -991807432 -1214183570 -851857321 -497255696 1290736371 -722396198 -667112703 1997034436 -1138068426 1786477392 -907361570 1911994933 165830937 -874951626 980449169 -1862067660 1460055293 1104547617 401373394 -1304300529
REM
CELL 1.54180   50.00000   50.00000   50.00000   90.00000   90.00000   90.00000
LATT -1
SFAC C  
C      1  0.5933330000000  0.4871960000000  0.4649330000000 1.0
C      1  0.4649840000000  0.5915120000000  0.4668850000000 1.0
C      1  0.4402010000000  0.4262650000000  0.4653230000000 1.0
C      1  0.5744170000000  0.4372450000000  0.5195850000000 1.0
C      1  0.5127530000000  0.5895470000000  0.5205350000000 1.0
C      1  0.4186790000000  0.4552340000000  0.5255820000000 1.0
C      1  0.5087490000000  0.4061660000000  0.5164900000000 1.0
C      1  0.5757330000000  0.5577010000000  0.5096010000000 1.0
C      1  0.4199360000000  0.5346290000000  0.5072390000000 1.0
C      1  0.4811850000000  0.5700500000000  0.5714840000000 1.0
C      1  0.4509090000000  0.4482240000000  0.5706480000000 1.0
C      1  0.5708810000000  0.4829010000000  0.5691920000000 1.0
C      1  0.5571730000000  0.4709610000000  0.4254610000000 1.0
C      1  0.4941150000000  0.5664080000000  0.4237680000000 1.0
C      1  0.4496500000000  0.4589850000000  0.4183290000000 1.0
C      1  0.4988720000000  0.4727950000000  0.6025830000000 1.0
C      1  0.5245370000000  0.5133270000000  0.6034630000000 1.0
C      1  0.4762010000000  0.5146130000000  0.6031380000000 1.0
C      1  0.5907320000000  0.5124180000000  0.4795950000000 1.0
C      1  0.4406850000000  0.5818140000000  0.4805520000000 1.0
C      1  0.4603790000000  0.4109180000000  0.4821650000000 1.0
C      1  0.4815870000000  0.4062210000000  0.5219260000000 1.0
C      1  0.5882640000000  0.5351490000000  0.5221510000000 1.0
C      1  0.4291950000000  0.5580190000000  0.5218410000000 1.0
C      1  0.5370210000000  0.5543050000000  0.4278540000000 1.0
C      1  0.4326530000000  0.5081410000000  0.4259640000000 1.0
C      1  0.5296180000000  0.4397080000000  0.4262280000000 1.0
C      1  0.5451620000000  0.4266430000000  0.4490390000000 1.0
C      1  0.5422550000000  0.5748960000000  0.4507590000000 1.0
C      1  0.4146110000000  0.4983520000000  0.4494570000000 1.0
C      1  0.4728020000000  0.4857070000000  0.6044250000000 1.0
C      1  0.5261650000000  0.4838600000000  0.6025000000000 1.0
C      1  0.5009140000000  0.5308460000000  0.6046690000000 1.0
C      1  0.5010130000000  0.4654080000000  0.5741420000000 1.0
C      1  0.5334670000000  0.5209500000000  0.5767960000000 1.0
C      1  0.4686350000000  0.5175660000000  0.5749910000000 1.0
C      1  0.4929060000000  0.5293490000000  0.5635000000000 1.0
C      1  0.4776500000000  0.4791820000000  0.5628360000000 1.0
C      1  0.5331700000000  0.4966090000000  0.5621540000000 1.0
C      1  0.4833730000000  0.4291330000000  0.5405660000000 1.0
C      1  0.5659020000000  0.5181470000000  0.5351030000000 1.0
C      1  0.4503580000000  0.5487120000000  0.5400050000000 1.0
C      1  0.5641090000000  0.5444510000000  0.4326810000000 1.0
C      1  0.4315770000000  0.5360650000000  0.4336040000000 1.0
C      1  0.5067570000000  0.4234690000000  0.4350960000000 1.0
C      1  0.5698120000000  0.4852090000000  0.5393150000000 1.0
C      1  0.4750100000000  0.5661310000000  0.5414340000000 1.0
C      1  0.4580610000000  0.4427940000000  0.5423980000000 1.0
C      1  0.5387260000000  0.4333590000000  0.5497260000000 1.0
C      1  0.5368660000000  0.5661050000000  0.5466040000000 1.0
C      1  0.4229860000000  0.5020820000000  0.5480010000000 1.0
C      1  0.4809000000000  0.4847670000000  0.4123380000000 1.0
C      1  0.5237950000000  0.4929100000000  0.4119640000000 1.0
C      1  0.4919970000000  0.5238460000000  0.4122540000000 1.0
C      1  0.4510180000000  0.5327860000000  0.4927080000000 1.0
C      1  0.4953670000000  0.4460400000000  0.4949530000000 1.0
C      1  0.5476580000000  0.5238060000000  0.5093170000000 1.0
C      1  0.5091740000000  0.4747310000000  0.5310910000000 1.0
C      1  0.5099410000000  0.5217240000000  0.5352100000000 1.0
C      1  0.4720840000000  0.4982860000000  0.5366710000000 1.0
C      1  0.4702190000000  0.5852990000000  0.5181530000000 1.0
C      1  0.4394370000000  0.4331640000000  0.5217230000000 1.0
C      1  0.5891830000000  0.4858530000000  0.5169750000000 1.0
C      1  0.4107830000000  0.4600470000000  0.4982740000000 1.0
C      1  0.5822860000000  0.4435810000000  0.4933570000000 1.0
C      1  0.5097890000000  0.5998030000000  0.4943810000000 1.0
C      1  0.5413840000000  0.4190660000000  0.4964930000000 1.0
C      1  0.5451600000000  0.5795600000000  0.4964030000000 1.0
C      1  0.4097620000000  0.4960320000000  0.4971560000000 1.0
C      1  0.4741130000000  0.4737890000000  0.4587290000000 1.0
C      1  0.5372300000000  0.4922250000000  0.4643220000000 1.0
C      1  0.4917610000000  0.5368040000000  0.4630170000000 1.0
C      1  0.4329470000000  0.4876290000000  0.4832960000000 1.0
C      1  0.5419620000000  0.4458230000000  0.4851840000000 1.0
C      1  0.5246990000000  0.5620790000000  0.4839680000000 1.0
C      1  0.4510760000000  0.4944710000000  0.5178100000000 1.0
C      1  0.5239060000000  0.4547040000000  0.5193830000000 1.0
C      1  0.5211240000000  0.5363450000000  0.5142200000000 1.0
C      1  0.5626710000000  0.4452180000000  0.4653970000000 1.0
C      1  0.5166280000000  0.5825250000000  0.4645430000000 1.0
C      1  0.4253330000000  0.4745100000000  0.4601930000000 1.0
C      1  0.5186110000000  0.5352920000000  0.4154200000000 1.0
C      1  0.4578080000000  0.5008320000000  0.4147950000000 1.0
C      1  0.5189220000000  0.4644570000000  0.4147580000000 1.0
C      1  0.4533080000000  0.5547570000000  0.4262850000000 1.0
C      1  0.4812710000000  0.4332190000000  0.4279830000000 1.0
C      1  0.5684540000000  0.5160020000000  0.4258070000000 1.0
C      1  0.5698330000000  0.5334880000000  0.5608210000000 1.0
C      1  0.4371620000000  0.5434430000000  0.5663360000000 1.0
C      1  0.4948740000000  0.4224680000000  0.5676600000000 1.0
C      1  0.4492050000000  0.4662810000000  0.4478400000000 1.0
C      1  0.5551100000000  0.4717280000000  0.4540480000000 1.0
C      1  0.4984340000000  0.5624100000000  0.4516580000000 1.0
C      1  0.5327700000000  0.4139220000000  0.5253180000000 1.0
C      1  0.5560980000000  0.5716050000000  0.5234040000000 1.0
C      1  0.4118800000000  0.5123280000000  0.5228200000000 1.0
C      1  0.4533210000000  0.5056340000000  0.4816000000000 1.0
C      1  0.5174210000000  0.4586520000000  0.4798050000000 1.0
C      1  0.5313180000000  0.5362980000000  0.4741860000000 1.0
C      1  0.4560290000000  0.4123630000000  0.5098050000000 1.0
C      1  0.5989110000000  0.5116430000000  0.5075760000000 1.0
C      1  0.4428540000000  0.5811730000000  0.5097820000000 1.0
C      1  0.5178740000000  0.5005690000000  0.4420610000000 1.0
C      1  0.4917700000000  0.5162980000000  0.4424840000000 1.0
C      1  0.4911540000000  0.4860710000000  0.4404580000000 1.0
C      1  0.4869290000000  0.4226150000000  0.4801260000000 1.0
C      1  0.5626850000000  0.5264520000000  0.4788970000000 1.0
C      1  0.4402580000000  0.5532740000000  0.4748760000000 1.0
C      1  0.4746350000000  0.4875920000000  0.4824980000000 1.0
C      1  0.5198970000000  0.4870250000000  0.4863520000000 1.0
C      1  0.5056470000000  0.5264270000000  0.4875250000000 1.0
C      1  0.4760130000000  0.4676240000000  0.5018910000000 1.0
C      1  0.5381880000000  0.4965500000000  0.5053650000000 1.0
C      1  0.4796320000000  0.5364260000000  0.5020720000000 1.0
C      1  0.4597880000000  0.5761670000000  0.4437900000000 1.0
C      1  0.4588410000000  0.4259160000000  0.4438470000000 1.0
C      1  0.5843800000000  0.4980870000000  0.4404730000000 1.0
C      1  0.5506470000000  0.4550620000000  0.5319460000000 1.0
C      1  0.5116720000000  0.5629240000000  0.5313580000000 1.0
C      1  0.4343670000000  0.4787110000000  0.5345120000000 1.0
C      1  0.4788990000000  0.4558000000000  0.4087450000000 1.0
C      1  0.5540030000000  0.4948050000000  0.4098760000000 1.0
C      1  0.4778340000000  0.5494650000000  0.4077850000000 1.0
C      1  0.4075440000000  0.5156300000000  0.4717030000000 1.0
C      1  0.5327320000000  0.4107040000000  0.4690600000000 1.0
C      1  0.5629030000000  0.5732750000000  0.4724540000000 1.0
C      1  0.4318380000000  0.4428350000000  0.4886910000000 1.0
C      1  0.5863170000000  0.4718310000000  0.4913210000000 1.0
C      1  0.4829450000000  0.5893040000000  0.4918990000000 1.0
C      1  0.5011990000000  0.5501850000000  0.5818260000000 1.0
C      1  0.4556430000000  0.4770620000000  0.5813620000000 1.0
C      1  0.5430230000000  0.4754620000000  0.5790130000000 1.0
C      1  0.4393310000000  0.5138900000000  0.5690030000000 1.0
C      1  0.5183010000000  0.4404420000000  0.5690480000000 1.0
C      1  0.5444310000000  0.5471990000000  0.5673720000000 1.0
C      1  0.4696860000000  0.4290930000000  0.5791450000000 1.0
C      1  0.5789370000000  0.5100710000000  0.5776650000000 1.0
C      1  0.4552790000000  0.5617750000000  0.5781330000000 1.0
C      1  0.5056340000000  0.4122230000000  0.4611220000000 1.0
C      1  0.5725290000000  0.5480490000000  0.4612200000000 1.0
C      1  0.4195110000000  0.5399420000000  0.4600970000000 1.0
C      1  0.4854900000000  0.4784180000000  0.5241250000000 1.0
C      1  0.5254780000000  0.4963130000000  0.5337150000000 1.0
C      1  0.4844260000000  0.5215440000000  0.5255800000000 1.0
END
