TITL C-2441156-4686-1351 0.0932373283420055 125000 -22305.1028162843 0 0 163 (C1) n - 1
REM
REM in /home/bkarasulu/work/CARBON/AIRSS/Generating-Clusters/ReaxFF-fromJPCA2015/Units_Real/with-SteepDescent/Higher-Symm
REM
REM
REM
REM
REM
REM ./C.cell (1df0a924f5614ab8850e4351716899ee)
REM
REM compiler GCC version 9.2.1 20190827 (Red Hat 9.2.1-1)
REM options -cpp -mtune=generic -march=x86-64 -g -O0 -fpre-include=/usr/include/finclude/math-vector-fortran.h
REM seed 628511046 -900643283 -1869004091 23323436 -911538831 171457468 -841936471 760286668 1675307067 1481817496 -1001964589 272199652 1243192873 -855542116 -1760221037 -1297417982 -1383144130 1798637571 -2042754439 -682861527 -1799989250 -377873892 -748298314 -1568110344 -2013085621 319799954 1092684275 1614025504 676212885 461194640 -2055203328 -897998205 1037012538
REM
CELL 1.54180   50.00000   50.00000   50.00000   90.00000   90.00000   90.00000
LATT -1
SFAC C  
C      1  0.5662490000000  0.5565720000000  0.5272820000000 1.0
C      1  0.5257490000000  0.5839690000000  0.5669420000000 1.0
C      1  0.5536900000000  0.5269990000000  0.5663350000000 1.0
C      1  0.5798320000000  0.4322250000000  0.4693390000000 1.0
C      1  0.4361710000000  0.4499110000000  0.5252090000000 1.0
C      1  0.4190290000000  0.5694440000000  0.4721120000000 1.0
C      1  0.5218860000000  0.4330130000000  0.4416920000000 1.0
C      1  0.4743970000000  0.4182500000000  0.5623610000000 1.0
C      1  0.4776030000000  0.5505500000000  0.4553120000000 1.0
C      1  0.5543750000000  0.4739120000000  0.4356740000000 1.0
C      1  0.4503160000000  0.4740210000000  0.5634190000000 1.0
C      1  0.4369420000000  0.5259400000000  0.4164490000000 1.0
C      1  0.4292020000000  0.5390810000000  0.5306550000000 1.0
C      1  0.4752330000000  0.5656790000000  0.5458040000000 1.0
C      1  0.4365690000000  0.5235700000000  0.5782130000000 1.0
C      1  0.4125900000000  0.4400910000000  0.4719430000000 1.0
C      1  0.5666800000000  0.4468990000000  0.5210590000000 1.0
C      1  0.5777630000000  0.5617270000000  0.4745850000000 1.0
C      1  0.4667430000000  0.4294160000000  0.4548600000000 1.0
C      1  0.5249750000000  0.4364790000000  0.5526840000000 1.0
C      1  0.5206070000000  0.5792550000000  0.4316290000000 1.0
C      1  0.4511210000000  0.4795270000000  0.4528770000000 1.0
C      1  0.5622790000000  0.4759720000000  0.5782880000000 1.0
C      1  0.5614230000000  0.5254010000000  0.4224470000000 1.0
C      1  0.4870420000000  0.4098870000000  0.4527640000000 1.0
C      1  0.4433140000000  0.4771000000000  0.4232840000000 1.0
C      1  0.4031950000000  0.4591100000000  0.4916150000000 1.0
C      1  0.4828170000000  0.5923510000000  0.5420810000000 1.0
C      1  0.5008620000000  0.5925180000000  0.4489680000000 1.0
C      1  0.5205310000000  0.4112880000000  0.5412120000000 1.0
C      1  0.4541790000000  0.5066940000000  0.5936050000000 1.0
C      1  0.5451630000000  0.5081760000000  0.4064920000000 1.0
C      1  0.5442140000000  0.4934240000000  0.5925030000000 1.0
C      1  0.4121670000000  0.5520110000000  0.5150480000000 1.0
C      1  0.5932450000000  0.5451200000000  0.4927520000000 1.0
C      1  0.5892760000000  0.4576580000000  0.5069710000000 1.0
C      1  0.5171680000000  0.4072350000000  0.4579930000000 1.0
C      1  0.5429900000000  0.4804450000000  0.4113650000000 1.0
C      1  0.5905490000000  0.4554400000000  0.4796420000000 1.0
C      1  0.5095040000000  0.5993830000000  0.5470330000000 1.0
C      1  0.4747110000000  0.5791810000000  0.4496430000000 1.0
C      1  0.4926650000000  0.4059970000000  0.5438440000000 1.0
C      1  0.5423350000000  0.5217250000000  0.5906300000000 1.0
C      1  0.4509750000000  0.5022440000000  0.4092040000000 1.0
C      1  0.4562590000000  0.4785300000000  0.5916720000000 1.0
C      1  0.5907830000000  0.5451740000000  0.5210570000000 1.0
C      1  0.4017900000000  0.5523060000000  0.4896230000000 1.0
C      1  0.4084950000000  0.4582880000000  0.5194290000000 1.0
C      1  0.4439420000000  0.5941520000000  0.5177180000000 1.0
C      1  0.5117450000000  0.4415420000000  0.5784060000000 1.0
C      1  0.5785550000000  0.5135000000000  0.4419650000000 1.0
C      1  0.4288940000000  0.4213010000000  0.4876630000000 1.0
C      1  0.5609800000000  0.4173970000000  0.5151530000000 1.0
C      1  0.5627780000000  0.5829190000000  0.4852740000000 1.0
C      1  0.5063060000000  0.5628880000000  0.4123570000000 1.0
C      1  0.4741740000000  0.5556700000000  0.5731030000000 1.0
C      1  0.4817370000000  0.4500390000000  0.4101140000000 1.0
C      1  0.5806440000000  0.4892900000000  0.5610660000000 1.0
C      1  0.4148800000000  0.4768220000000  0.4336140000000 1.0
C      1  0.4167610000000  0.5118480000000  0.5601190000000 1.0
C      1  0.5610780000000  0.5828970000000  0.5135210000000 1.0
C      1  0.4850780000000  0.4328840000000  0.5852330000000 1.0
C      1  0.4180360000000  0.5115420000000  0.4320920000000 1.0
C      1  0.5623560000000  0.4173410000000  0.4862280000000 1.0
C      1  0.4371560000000  0.4211450000000  0.5164520000000 1.0
C      1  0.4410760000000  0.5815270000000  0.4913500000000 1.0
C      1  0.4785440000000  0.5524270000000  0.4094050000000 1.0
C      1  0.5126030000000  0.5652470000000  0.5838070000000 1.0
C      1  0.5092130000000  0.4403710000000  0.4156210000000 1.0
C      1  0.4225570000000  0.4844410000000  0.5601170000000 1.0
C      1  0.5810040000000  0.4852750000000  0.4381570000000 1.0
C      1  0.5826110000000  0.5179120000000  0.5654910000000 1.0
C      1  0.5831600000000  0.4938610000000  0.5330590000000 1.0
C      1  0.5340000000000  0.5807440000000  0.4827340000000 1.0
C      1  0.4902600000000  0.5325630000000  0.5785010000000 1.0
C      1  0.5765640000000  0.5081780000000  0.4714100000000 1.0
C      1  0.4020940000000  0.5077400000000  0.5331030000000 1.0
C      1  0.4266470000000  0.4893280000000  0.4637650000000 1.0
C      1  0.5323670000000  0.4058610000000  0.5141950000000 1.0
C      1  0.4565710000000  0.4232260000000  0.4806340000000 1.0
C      1  0.4728160000000  0.5979620000000  0.5165890000000 1.0
C      1  0.4922640000000  0.4770990000000  0.4122730000000 1.0
C      1  0.5048440000000  0.4676520000000  0.5833870000000 1.0
C      1  0.5137780000000  0.5377670000000  0.4254790000000 1.0
C      1  0.4049310000000  0.4797790000000  0.5377940000000 1.0
C      1  0.4643400000000  0.5672250000000  0.4941600000000 1.0
C      1  0.5171720000000  0.5386700000000  0.5906230000000 1.0
C      1  0.4201960000000  0.5174620000000  0.4598390000000 1.0
C      1  0.5922550000000  0.5211980000000  0.5379330000000 1.0
C      1  0.5881780000000  0.4806080000000  0.4655120000000 1.0
C      1  0.4642120000000  0.4164860000000  0.5074930000000 1.0
C      1  0.5341090000000  0.4142660000000  0.4841230000000 1.0
C      1  0.5325130000000  0.5816160000000  0.5113280000000 1.0
C      1  0.5184920000000  0.4674890000000  0.4102860000000 1.0
C      1  0.4794990000000  0.4607650000000  0.5945560000000 1.0
C      1  0.4853110000000  0.5326930000000  0.4315960000000 1.0
C      1  0.5233440000000  0.5291870000000  0.4830930000000 1.0
C      1  0.4746500000000  0.5171220000000  0.5368570000000 1.0
C      1  0.5406250000000  0.4651650000000  0.5134530000000 1.0
C      1  0.5165240000000  0.4584860000000  0.5272410000000 1.0
C      1  0.4933520000000  0.4572660000000  0.4808880000000 1.0
C      1  0.4905230000000  0.5404180000000  0.5275530000000 1.0
C      1  0.4739480000000  0.4816890000000  0.4689420000000 1.0
C      1  0.5105650000000  0.4909580000000  0.5383020000000 1.0
C      1  0.5141350000000  0.5085120000000  0.4645450000000 1.0
C      1  0.5480030000000  0.5175040000000  0.4925820000000 1.0
C      1  0.4528590000000  0.5265870000000  0.5197710000000 1.0
C      1  0.4628370000000  0.4899970000000  0.4947520000000 1.0
C      1  0.4733000000000  0.5419030000000  0.4830660000000 1.0
C      1  0.5318160000000  0.5128140000000  0.5422460000000 1.0
C      1  0.4659790000000  0.4710600000000  0.5184250000000 1.0
C      1  0.4919160000000  0.4567140000000  0.5093440000000 1.0
C      1  0.5159340000000  0.4571800000000  0.4630280000000 1.0
C      1  0.5134850000000  0.5406030000000  0.5094150000000 1.0
C      1  0.5302490000000  0.4819330000000  0.4614370000000 1.0
C      1  0.4747660000000  0.4880900000000  0.5413600000000 1.0
C      1  0.4863950000000  0.5065400000000  0.4664130000000 1.0
C      1  0.4592900000000  0.5176060000000  0.4940230000000 1.0
C      1  0.5412760000000  0.5309640000000  0.5214830000000 1.0
C      1  0.5382810000000  0.4874310000000  0.4937320000000 1.0
C      1  0.5752060000000  0.5642610000000  0.5532450000000 1.0
C      1  0.5548990000000  0.5803170000000  0.5660290000000 1.0
C      1  0.5601650000000  0.5538580000000  0.5741770000000 1.0
C      1  0.5757050000000  0.4303630000000  0.4421620000000 1.0
C      1  0.4252780000000  0.4395690000000  0.5511370000000 1.0
C      1  0.4296520000000  0.5660690000000  0.4473450000000 1.0
C      1  0.5491910000000  0.4256260000000  0.4321870000000 1.0
C      1  0.4462140000000  0.4201180000000  0.5563010000000 1.0
C      1  0.4497810000000  0.5774890000000  0.4322920000000 1.0
C      1  0.5633270000000  0.4489820000000  0.4255920000000 1.0
C      1  0.4439630000000  0.4458370000000  0.5708010000000 1.0
C      1  0.4495700000000  0.5542850000000  0.4140450000000 1.0
C      1  0.4272040000000  0.5576220000000  0.5517870000000 1.0
C      1  0.4457600000000  0.5776610000000  0.5423570000000 1.0
C      1  0.4450130000000  0.5509380000000  0.5741670000000 1.0
C      1  0.4200420000000  0.4499730000000  0.4457850000000 1.0
C      1  0.5738490000000  0.4371900000000  0.5492170000000 1.0
C      1  0.5729780000000  0.5648910000000  0.4460210000000 1.0
C      1  0.4442380000000  0.4359550000000  0.4367770000000 1.0
C      1  0.5510490000000  0.4277270000000  0.5619180000000 1.0
C      1  0.5496240000000  0.5760170000000  0.4337000000000 1.0
C      1  0.4535930000000  0.4493400000000  0.4136960000000 1.0
C      1  0.5655280000000  0.4473810000000  0.5751450000000 1.0
C      1  0.5630140000000  0.5534470000000  0.4230820000000 1.0
C      1  0.4975010000000  0.3991110000000  0.4754850000000 1.0
C      1  0.5158320000000  0.5998120000000  0.5197220000000 1.0
C      1  0.4796640000000  0.5027520000000  0.4111260000000 1.0
C      1  0.4125510000000  0.4840860000000  0.4873500000000 1.0
C      1  0.5100100000000  0.5965530000000  0.4760370000000 1.0
C      1  0.4837270000000  0.4005380000000  0.5184950000000 1.0
C      1  0.4795980000000  0.5153280000000  0.5963020000000 1.0
C      1  0.5187940000000  0.5188870000000  0.4041700000000 1.0
C      1  0.5181930000000  0.4862670000000  0.5961820000000 1.0
C      1  0.4054860000000  0.5254840000000  0.4823960000000 1.0
C      1  0.5994960000000  0.5196460000000  0.4833460000000 1.0
C      1  0.5985620000000  0.4810990000000  0.5157440000000 1.0
C      1  0.4994350000000  0.5018000000000  0.6140810000000 1.0
C      1  0.6152180000000  0.5002890000000  0.4989730000000 1.0
C      1  0.4958570000000  0.6047490000000  0.5000340000000 1.0
C      1  0.4969470000000  0.5096520000000  0.3862690000000 1.0
C      1  0.4063470000000  0.5066390000000  0.5037250000000 1.0
C      1  0.5041390000000  0.3929550000000  0.5016930000000 1.0
C      1  0.5114120000000  0.4970730000000  0.5089980000000 1.0
END
