TITL C-2441156-4686-547 0.0156268950488109 125000 -9438.30969677915 0 0 68 (C1) n - 1
REM
REM in /home/bkarasulu/work/CARBON/AIRSS/Generating-Clusters/ReaxFF-fromJPCA2015/Units_Real/with-SteepDescent/Higher-Symm
REM
REM
REM
REM
REM
REM ./C.cell (1df0a924f5614ab8850e4351716899ee)
REM
REM compiler GCC version 9.2.1 20190827 (Red Hat 9.2.1-1)
REM options -cpp -mtune=generic -march=x86-64 -g -O0 -fpre-include=/usr/include/finclude/math-vector-fortran.h
REM seed -1327487559 1430246135 829646353 255068508 123966702 -727462160 -1386550841 -1346407617 -2072255601 -29489242 -1097764036 -829790131 1551909278 -939590087 -2074524626 -2100430287 -692068405 709691027 -259132960 952150921 -17119166 -169438035 -1190144808 -1816949491 -322311867 -963530924 2042838825 1603842599 187737419 1723148994 1506220429 883767858 2060889436
REM
CELL 1.54180   50.00000   50.00000   50.00000   90.00000   90.00000   90.00000
LATT -1
SFAC C  
C      1  0.5319880000000  0.5575390000000  0.5505440000000 1.0
C      1  0.5242100000000  0.4674800000000  0.5664740000000 1.0
C      1  0.5294310000000  0.4323230000000  0.4900320000000 1.0
C      1  0.5335680000000  0.4863600000000  0.4270810000000 1.0
C      1  0.5323320000000  0.5658650000000  0.4646900000000 1.0
C      1  0.4733440000000  0.5505560000000  0.5479900000000 1.0
C      1  0.4690520000000  0.4683260000000  0.5639060000000 1.0
C      1  0.4746170000000  0.4309260000000  0.4889890000000 1.0
C      1  0.4664200000000  0.4866190000000  0.4302920000000 1.0
C      1  0.4715490000000  0.5646280000000  0.4654140000000 1.0
C      1  0.5551770000000  0.4388020000000  0.4775370000000 1.0
C      1  0.5557750000000  0.5073990000000  0.4330490000000 1.0
C      1  0.5572730000000  0.5610540000000  0.4804770000000 1.0
C      1  0.5595830000000  0.5521480000000  0.5476130000000 1.0
C      1  0.5513550000000  0.4695870000000  0.5548300000000 1.0
C      1  0.4490730000000  0.4443950000000  0.4859930000000 1.0
C      1  0.4439710000000  0.5026790000000  0.4373220000000 1.0
C      1  0.4497450000000  0.5497000000000  0.4771530000000 1.0
C      1  0.4473730000000  0.5394440000000  0.5576650000000 1.0
C      1  0.4439640000000  0.4623540000000  0.5524840000000 1.0
C      1  0.4709860000000  0.5493040000000  0.4405320000000 1.0
C      1  0.4770540000000  0.5637610000000  0.5215580000000 1.0
C      1  0.4735310000000  0.4956770000000  0.5761420000000 1.0
C      1  0.4720030000000  0.4287650000000  0.5180830000000 1.0
C      1  0.4738900000000  0.4599390000000  0.4411590000000 1.0
C      1  0.5231240000000  0.5481730000000  0.4414460000000 1.0
C      1  0.5307250000000  0.5695800000000  0.5239050000000 1.0
C      1  0.5257930000000  0.4956180000000  0.5755930000000 1.0
C      1  0.5262450000000  0.4332470000000  0.5202650000000 1.0
C      1  0.5296170000000  0.4596610000000  0.4381160000000 1.0
C      1  0.4584820000000  0.4795010000000  0.5188440000000 1.0
C      1  0.4696330000000  0.4821770000000  0.4756880000000 1.0
C      1  0.4783610000000  0.5087830000000  0.4647730000000 1.0
C      1  0.4668980000000  0.5187790000000  0.5085210000000 1.0
C      1  0.4676290000000  0.5030270000000  0.5335990000000 1.0
C      1  0.5329910000000  0.4741660000000  0.5166080000000 1.0
C      1  0.5427620000000  0.4879050000000  0.4758370000000 1.0
C      1  0.5232130000000  0.5086330000000  0.4683510000000 1.0
C      1  0.5451940000000  0.5217400000000  0.5114540000000 1.0
C      1  0.5315990000000  0.5132170000000  0.5356310000000 1.0
C      1  0.4944480000000  0.5314450000000  0.5572360000000 1.0
C      1  0.4916900000000  0.4587380000000  0.5433000000000 1.0
C      1  0.4889310000000  0.4569170000000  0.4856630000000 1.0
C      1  0.4909950000000  0.5085490000000  0.4375300000000 1.0
C      1  0.4928340000000  0.5490420000000  0.4795850000000 1.0
C      1  0.5168360000000  0.5347740000000  0.5444760000000 1.0
C      1  0.5132820000000  0.4772730000000  0.5385280000000 1.0
C      1  0.5089890000000  0.4448470000000  0.4728980000000 1.0
C      1  0.5139730000000  0.4974910000000  0.4449760000000 1.0
C      1  0.5118720000000  0.5696760000000  0.4858830000000 1.0
C      1  0.4530060000000  0.4607160000000  0.4612080000000 1.0
C      1  0.4537200000000  0.5279650000000  0.4550260000000 1.0
C      1  0.4584490000000  0.5475510000000  0.5052020000000 1.0
C      1  0.4541250000000  0.5098110000000  0.5589650000000 1.0
C      1  0.4510950000000  0.4503200000000  0.5168430000000 1.0
C      1  0.5484190000000  0.4636970000000  0.4605650000000 1.0
C      1  0.5429720000000  0.5279840000000  0.4491590000000 1.0
C      1  0.5500600000000  0.5514420000000  0.5081290000000 1.0
C      1  0.5482160000000  0.4993360000000  0.5568460000000 1.0
C      1  0.5466570000000  0.4524240000000  0.5305380000000 1.0
C      1  0.4982440000000  0.4333270000000  0.5308310000000 1.0
C      1  0.5029070000000  0.4504760000000  0.4470920000000 1.0
C      1  0.4968630000000  0.5387390000000  0.4331570000000 1.0
C      1  0.4988760000000  0.5092080000000  0.5750650000000 1.0
C      1  0.5041440000000  0.5740170000000  0.5132770000000 1.0
C      1  0.5497210000000  0.4947770000000  0.5024460000000 1.0
C      1  0.4545860000000  0.4955890000000  0.4959400000000 1.0
C      1  0.4969240000000  0.5206300000000  0.4822510000000 1.0
END
