TITL C-2441166-8118-826 0.0174260238928294 125000 -13706.5199065712 0 0 97 (C1) n - 1
REM
REM in /home/bkarasulu/work/CARBON/AIRSS/Generating-Clusters/ReaxFF-fromJPCA2015/Units_Real/with-SteepDescent/Higher-Symm
REM
REM
REM
REM
REM
REM ./C.cell (1df0a924f5614ab8850e4351716899ee)
REM
REM compiler GCC version 9.2.1 20190827 (Red Hat 9.2.1-1)
REM options -cpp -mtune=generic -march=x86-64 -g -O0 -fpre-include=/usr/include/finclude/math-vector-fortran.h
REM seed -1438972073 1364504428 1340834709 -527979451 804397174 -1548419979 -852135498 -24634791 -1589024392 -835305584 2004563039 200752446 -834195946 352171643 -1028009233 -482401562 -1967824068 -1428961536 1210028760 -665551237 504202135 -1423019809 -125693357 1135423484 -1214619205 1027516007 533774411 1880426471 -1575817209 2062919825 1144269062 -420339949 -740677651
REM
CELL 1.54180   50.00000   50.00000   50.00000   90.00000   90.00000   90.00000
LATT -1
SFAC C  
C      1  0.4712260000000  0.5028720000000  0.4951510000000 1.0
C      1  0.4747180000000  0.5011750000000  0.5232560000000 1.0
C      1  0.5007130000000  0.4924540000000  0.5286100000000 1.0
C      1  0.5335930000000  0.5175330000000  0.5130130000000 1.0
C      1  0.5140820000000  0.4931660000000  0.4813330000000 1.0
C      1  0.4887550000000  0.4994050000000  0.4724420000000 1.0
C      1  0.4406300000000  0.5249850000000  0.4673300000000 1.0
C      1  0.4294770000000  0.4628190000000  0.5423000000000 1.0
C      1  0.4996090000000  0.5296130000000  0.5622350000000 1.0
C      1  0.5586150000000  0.4793500000000  0.5318850000000 1.0
C      1  0.5530510000000  0.5246450000000  0.4674050000000 1.0
C      1  0.5036010000000  0.4652430000000  0.4322630000000 1.0
C      1  0.5217110000000  0.5604070000000  0.4431070000000 1.0
C      1  0.4676320000000  0.4497980000000  0.4766450000000 1.0
C      1  0.4195310000000  0.5622610000000  0.4974570000000 1.0
C      1  0.4896120000000  0.4435780000000  0.5463970000000 1.0
C      1  0.5336430000000  0.5647700000000  0.5382020000000 1.0
C      1  0.5435770000000  0.4495960000000  0.4778960000000 1.0
C      1  0.5105240000000  0.5779020000000  0.5496890000000 1.0
C      1  0.5463050000000  0.4237570000000  0.5269220000000 1.0
C      1  0.5406390000000  0.5726650000000  0.4609720000000 1.0
C      1  0.4897870000000  0.4188870000000  0.4386300000000 1.0
C      1  0.4407230000000  0.5794580000000  0.4883050000000 1.0
C      1  0.4489260000000  0.4173510000000  0.5166640000000 1.0
C      1  0.4977840000000  0.5517010000000  0.5101000000000 1.0
C      1  0.5020410000000  0.4461270000000  0.5205690000000 1.0
C      1  0.5271100000000  0.5471330000000  0.5115230000000 1.0
C      1  0.5163340000000  0.4432270000000  0.4766500000000 1.0
C      1  0.4858020000000  0.5538120000000  0.4854530000000 1.0
C      1  0.4931320000000  0.4470770000000  0.4933820000000 1.0
C      1  0.5957400000000  0.4977050000000  0.5337470000000 1.0
C      1  0.5451680000000  0.4870220000000  0.4428360000000 1.0
C      1  0.4814470000000  0.5158450000000  0.4221900000000 1.0
C      1  0.4088650000000  0.4972080000000  0.4616180000000 1.0
C      1  0.4389120000000  0.4997030000000  0.5606310000000 1.0
C      1  0.5256500000000  0.4886350000000  0.5748120000000 1.0
C      1  0.5332900000000  0.4476520000000  0.5295440000000 1.0
C      1  0.5482660000000  0.5539350000000  0.4852440000000 1.0
C      1  0.5129410000000  0.4404650000000  0.4444540000000 1.0
C      1  0.4572660000000  0.5570470000000  0.4723590000000 1.0
C      1  0.4386030000000  0.4417130000000  0.5185820000000 1.0
C      1  0.4889510000000  0.5566510000000  0.5403930000000 1.0
C      1  0.4462420000000  0.4997030000000  0.4823440000000 1.0
C      1  0.4585780000000  0.5142170000000  0.5439290000000 1.0
C      1  0.5126850000000  0.5039770000000  0.5526950000000 1.0
C      1  0.5581320000000  0.5072490000000  0.5186950000000 1.0
C      1  0.5348930000000  0.5021970000000  0.4650120000000 1.0
C      1  0.4876470000000  0.5180730000000  0.4500470000000 1.0
C      1  0.5071710000000  0.5253400000000  0.4083120000000 1.0
C      1  0.4248950000000  0.4744880000000  0.4515950000000 1.0
C      1  0.4139770000000  0.5342620000000  0.5330400000000 1.0
C      1  0.5034030000000  0.4748270000000  0.5880530000000 1.0
C      1  0.5731310000000  0.5370690000000  0.5530350000000 1.0
C      1  0.5820600000000  0.4646290000000  0.4687300000000 1.0
C      1  0.5531310000000  0.5053070000000  0.4217270000000 1.0
C      1  0.4641550000000  0.4927070000000  0.4176750000000 1.0
C      1  0.4056800000000  0.5105630000000  0.4895690000000 1.0
C      1  0.4538500000000  0.4829870000000  0.5793260000000 1.0
C      1  0.5397320000000  0.5125730000000  0.5849660000000 1.0
C      1  0.5975070000000  0.4853170000000  0.5078300000000 1.0
C      1  0.5585660000000  0.5626980000000  0.5552510000000 1.0
C      1  0.5697480000000  0.4504240000000  0.4908930000000 1.0
C      1  0.5195760000000  0.5518310000000  0.4145460000000 1.0
C      1  0.4675630000000  0.4314200000000  0.4528680000000 1.0
C      1  0.4049760000000  0.5609050000000  0.5253060000000 1.0
C      1  0.4641720000000  0.4351490000000  0.5584030000000 1.0
C      1  0.5431800000000  0.4362660000000  0.4374310000000 1.0
C      1  0.4702520000000  0.5635050000000  0.4465060000000 1.0
C      1  0.4299240000000  0.4427260000000  0.4900190000000 1.0
C      1  0.4594650000000  0.5638610000000  0.5447470000000 1.0
C      1  0.5344130000000  0.4438770000000  0.5613720000000 1.0
C      1  0.5722520000000  0.5534910000000  0.5029410000000 1.0
C      1  0.5679680000000  0.5223810000000  0.4406240000000 1.0
C      1  0.4840250000000  0.4717790000000  0.4141580000000 1.0
C      1  0.4173870000000  0.5358920000000  0.4828900000000 1.0
C      1  0.4451980000000  0.4578490000000  0.5661920000000 1.0
C      1  0.5160360000000  0.5301430000000  0.5877570000000 1.0
C      1  0.5783830000000  0.4642160000000  0.5155550000000 1.0
C      1  0.4797420000000  0.4919860000000  0.5904040000000 1.0
C      1  0.5649410000000  0.5144440000000  0.5692970000000 1.0
C      1  0.5918530000000  0.4905670000000  0.4778700000000 1.0
C      1  0.5265650000000  0.5038860000000  0.4081880000000 1.0
C      1  0.4370340000000  0.4914910000000  0.4303800000000 1.0
C      1  0.4090170000000  0.5083310000000  0.5187820000000 1.0
C      1  0.4434440000000  0.4704730000000  0.4754810000000 1.0
C      1  0.4436130000000  0.5392550000000  0.5415800000000 1.0
C      1  0.5078660000000  0.4503650000000  0.5719310000000 1.0
C      1  0.5759810000000  0.5313560000000  0.5228390000000 1.0
C      1  0.5586670000000  0.4599760000000  0.4483840000000 1.0
C      1  0.4957500000000  0.5467380000000  0.4572150000000 1.0
C      1  0.5756300000000  0.4914550000000  0.5537890000000 1.0
C      1  0.5827180000000  0.5147830000000  0.4646140000000 1.0
C      1  0.5121700000000  0.4783050000000  0.4096730000000 1.0
C      1  0.4241840000000  0.5145800000000  0.4432730000000 1.0
C      1  0.4201020000000  0.4892730000000  0.5386270000000 1.0
C      1  0.4887620000000  0.5200070000000  0.5892120000000 1.0
C      1  0.5176540000000  0.4956840000000  0.5075490000000 1.0
END
