TITL C-2441168-9922-826 0.0855110482383734 125000 -22846.2982096249 0 0 168 (C1) n - 1
REM
REM in /home/bkarasulu/work/CARBON/AIRSS/Generating-Clusters/ReaxFF-fromJPCA2015/Units_Real/with-SteepDescent/Higher-Symm
REM
REM
REM
REM
REM
REM ./C.cell (1df0a924f5614ab8850e4351716899ee)
REM
REM compiler GCC version 9.2.1 20190827 (Red Hat 9.2.1-1)
REM options -cpp -mtune=generic -march=x86-64 -g -O0 -fpre-include=/usr/include/finclude/math-vector-fortran.h
REM seed -1438129748 1179998611 -189069935 -659873815 1725611455 1098006468 -795729328 -298055644 -1433414439 -771370840 -593798786 1413345912 136579236 2062191528 -1805726349 1565276440 1355827043 853230393 -1724504335 563031106 -86484700 306034238 1783902173 -1490107054 -340263086 1235811802 1344035517 -216091160 1310938987 -636553661 -1572125192 783380616 -35579959
REM
CELL 1.54180   50.00000   50.00000   50.00000   90.00000   90.00000   90.00000
LATT -1
SFAC C  
C      1  0.5593980000000  0.5770090000000  0.5237550000000 1.0
C      1  0.5904520000000  0.4642480000000  0.5265920000000 1.0
C      1  0.4982610000000  0.4101670000000  0.5211440000000 1.0
C      1  0.4041600000000  0.4759540000000  0.5249290000000 1.0
C      1  0.4452130000000  0.5834400000000  0.5236160000000 1.0
C      1  0.5548040000000  0.5676290000000  0.4775080000000 1.0
C      1  0.5907170000000  0.4628120000000  0.4737490000000 1.0
C      1  0.4943240000000  0.3969320000000  0.4758800000000 1.0
C      1  0.4019170000000  0.4783490000000  0.4758490000000 1.0
C      1  0.4465950000000  0.5824470000000  0.4734360000000 1.0
C      1  0.5607560000000  0.5037160000000  0.5851690000000 1.0
C      1  0.5258010000000  0.4419150000000  0.5848190000000 1.0
C      1  0.4524100000000  0.4570310000000  0.5840740000000 1.0
C      1  0.4500200000000  0.5326680000000  0.5830960000000 1.0
C      1  0.5149120000000  0.5606180000000  0.5843700000000 1.0
C      1  0.5597780000000  0.5045610000000  0.4160310000000 1.0
C      1  0.5265050000000  0.4332570000000  0.4221040000000 1.0
C      1  0.4504360000000  0.4570180000000  0.4160910000000 1.0
C      1  0.4479770000000  0.5331780000000  0.4146790000000 1.0
C      1  0.5117490000000  0.5653050000000  0.4218840000000 1.0
C      1  0.5058950000000  0.5817750000000  0.5671940000000 1.0
C      1  0.5785940000000  0.5193790000000  0.5680150000000 1.0
C      1  0.5465830000000  0.4295660000000  0.5682610000000 1.0
C      1  0.4463430000000  0.4343690000000  0.5672280000000 1.0
C      1  0.4275040000000  0.5297720000000  0.5629140000000 1.0
C      1  0.5046850000000  0.5897120000000  0.4350110000000 1.0
C      1  0.5795290000000  0.5191050000000  0.4320840000000 1.0
C      1  0.5480520000000  0.4227920000000  0.4377080000000 1.0
C      1  0.4456220000000  0.4376650000000  0.4383440000000 1.0
C      1  0.4239200000000  0.5303760000000  0.4304880000000 1.0
C      1  0.5221180000000  0.6054500000000  0.5226140000000 1.0
C      1  0.6069070000000  0.5076320000000  0.5196370000000 1.0
C      1  0.5401450000000  0.4046540000000  0.5232580000000 1.0
C      1  0.4214100000000  0.4258000000000  0.5189000000000 1.0
C      1  0.4134890000000  0.5532060000000  0.5193620000000 1.0
C      1  0.5244110000000  0.6003510000000  0.4820970000000 1.0
C      1  0.6022030000000  0.5063450000000  0.4791620000000 1.0
C      1  0.5395880000000  0.4020020000000  0.4829830000000 1.0
C      1  0.4204270000000  0.4348190000000  0.4861450000000 1.0
C      1  0.4121360000000  0.5571400000000  0.4794720000000 1.0
C      1  0.4664340000000  0.4221580000000  0.4483120000000 1.0
C      1  0.4146810000000  0.5063840000000  0.4415760000000 1.0
C      1  0.4776180000000  0.5867300000000  0.4463230000000 1.0
C      1  0.5697190000000  0.5407950000000  0.4466810000000 1.0
C      1  0.5689470000000  0.4406230000000  0.4466840000000 1.0
C      1  0.4677050000000  0.4185120000000  0.5558920000000 1.0
C      1  0.4131690000000  0.5062960000000  0.5524240000000 1.0
C      1  0.4808440000000  0.5848880000000  0.5548610000000 1.0
C      1  0.5734510000000  0.5449310000000  0.5557380000000 1.0
C      1  0.5671880000000  0.4439770000000  0.5533650000000 1.0
C      1  0.4629690000000  0.5043210000000  0.5506550000000 1.0
C      1  0.4963570000000  0.5371030000000  0.5570650000000 1.0
C      1  0.5324080000000  0.5151370000000  0.5590470000000 1.0
C      1  0.5258240000000  0.4717410000000  0.5575480000000 1.0
C      1  0.4824090000000  0.4687880000000  0.5527700000000 1.0
C      1  0.4655270000000  0.5074800000000  0.4407550000000 1.0
C      1  0.4977570000000  0.5425320000000  0.4333680000000 1.0
C      1  0.5265680000000  0.5081690000000  0.4474440000000 1.0
C      1  0.5261890000000  0.4617260000000  0.4312330000000 1.0
C      1  0.4828760000000  0.4700610000000  0.4392350000000 1.0
C      1  0.5100300000000  0.4393310000000  0.4728100000000 1.0
C      1  0.4448860000000  0.4731740000000  0.4911510000000 1.0
C      1  0.4547980000000  0.5358810000000  0.4790670000000 1.0
C      1  0.5292450000000  0.5585050000000  0.4936910000000 1.0
C      1  0.5607410000000  0.4935650000000  0.4894900000000 1.0
C      1  0.5059560000000  0.4393330000000  0.5029650000000 1.0
C      1  0.4502090000000  0.4559720000000  0.5135440000000 1.0
C      1  0.4593900000000  0.5424500000000  0.5065050000000 1.0
C      1  0.5180550000000  0.5616000000000  0.5193390000000 1.0
C      1  0.5639970000000  0.4982350000000  0.5182160000000 1.0
C      1  0.4741290000000  0.5585640000000  0.4392480000000 1.0
C      1  0.5420520000000  0.5330070000000  0.4408040000000 1.0
C      1  0.5538490000000  0.4642450000000  0.4374980000000 1.0
C      1  0.4889720000000  0.4390450000000  0.4483890000000 1.0
C      1  0.4398170000000  0.4939960000000  0.4415820000000 1.0
C      1  0.4756650000000  0.5566340000000  0.5567140000000 1.0
C      1  0.5450510000000  0.5405600000000  0.5594200000000 1.0
C      1  0.5538700000000  0.4693810000000  0.5582280000000 1.0
C      1  0.4860240000000  0.4418680000000  0.5584810000000 1.0
C      1  0.4390300000000  0.4917320000000  0.5537030000000 1.0
C      1  0.5003370000000  0.5331490000000  0.4649460000000 1.0
C      1  0.5226090000000  0.5156150000000  0.4754050000000 1.0
C      1  0.5195870000000  0.4666480000000  0.4663150000000 1.0
C      1  0.4936450000000  0.4850970000000  0.4769240000000 1.0
C      1  0.4745830000000  0.5194680000000  0.4658980000000 1.0
C      1  0.4981310000000  0.5244950000000  0.5309040000000 1.0
C      1  0.5242470000000  0.5102060000000  0.5320080000000 1.0
C      1  0.5178890000000  0.4798250000000  0.5305730000000 1.0
C      1  0.4870760000000  0.4777750000000  0.5272140000000 1.0
C      1  0.4757530000000  0.5051120000000  0.5270370000000 1.0
C      1  0.4389050000000  0.5715070000000  0.5493820000000 1.0
C      1  0.5510510000000  0.5800880000000  0.5508800000000 1.0
C      1  0.5933920000000  0.4759870000000  0.5528840000000 1.0
C      1  0.5088650000000  0.4074790000000  0.5493210000000 1.0
C      1  0.4111810000000  0.4626390000000  0.5501280000000 1.0
C      1  0.4373720000000  0.5729310000000  0.4477590000000 1.0
C      1  0.5477880000000  0.5767780000000  0.4505040000000 1.0
C      1  0.5908700000000  0.4761450000000  0.4478260000000 1.0
C      1  0.5068890000000  0.4002680000000  0.4502950000000 1.0
C      1  0.4101450000000  0.4664590000000  0.4491780000000 1.0
C      1  0.3971870000000  0.5044780000000  0.5282960000000 1.0
C      1  0.4711180000000  0.5952640000000  0.5290370000000 1.0
C      1  0.5723340000000  0.5486490000000  0.5254090000000 1.0
C      1  0.5761350000000  0.4405050000000  0.5255980000000 1.0
C      1  0.4695380000000  0.4073600000000  0.5291230000000 1.0
C      1  0.4113610000000  0.5056950000000  0.4835070000000 1.0
C      1  0.4725680000000  0.5932470000000  0.4745280000000 1.0
C      1  0.5793340000000  0.5526580000000  0.4715390000000 1.0
C      1  0.5799110000000  0.4366750000000  0.4738660000000 1.0
C      1  0.4671320000000  0.4071740000000  0.4719170000000 1.0
C      1  0.5018880000000  0.4197540000000  0.4295060000000 1.0
C      1  0.4274730000000  0.4726980000000  0.4256330000000 1.0
C      1  0.4509610000000  0.5604500000000  0.4242370000000 1.0
C      1  0.5380710000000  0.5587120000000  0.4287880000000 1.0
C      1  0.5716450000000  0.4797680000000  0.4247190000000 1.0
C      1  0.5046890000000  0.4254340000000  0.5720210000000 1.0
C      1  0.4294900000000  0.4715350000000  0.5713870000000 1.0
C      1  0.4527090000000  0.5603120000000  0.5730920000000 1.0
C      1  0.5426010000000  0.5639990000000  0.5747270000000 1.0
C      1  0.5741870000000  0.4793020000000  0.5752300000000 1.0
C      1  0.5641830000000  0.4147610000000  0.4874470000000 1.0
C      1  0.4436260000000  0.4135530000000  0.4866340000000 1.0
C      1  0.3989220000000  0.5320850000000  0.4858970000000 1.0
C      1  0.4964220000000  0.6050150000000  0.4880910000000 1.0
C      1  0.5987110000000  0.5357600000000  0.4861740000000 1.0
C      1  0.5638120000000  0.4154080000000  0.5138230000000 1.0
C      1  0.4440880000000  0.4079890000000  0.5149180000000 1.0
C      1  0.3964320000000  0.5305450000000  0.5140320000000 1.0
C      1  0.4942800000000  0.6074490000000  0.5153810000000 1.0
C      1  0.5977860000000  0.5353580000000  0.5142520000000 1.0
C      1  0.4317050000000  0.4440560000000  0.5400510000000 1.0
C      1  0.4340560000000  0.5451190000000  0.5379490000000 1.0
C      1  0.5232880000000  0.5850250000000  0.5426470000000 1.0
C      1  0.5863290000000  0.5022530000000  0.5416040000000 1.0
C      1  0.5369020000000  0.4078080000000  0.5505590000000 1.0
C      1  0.4254790000000  0.4435530000000  0.4578370000000 1.0
C      1  0.4310800000000  0.5467500000000  0.4593780000000 1.0
C      1  0.5268720000000  0.5961970000000  0.4533490000000 1.0
C      1  0.5832750000000  0.5022730000000  0.4569310000000 1.0
C      1  0.5310110000000  0.4125430000000  0.4593150000000 1.0
C      1  0.4926900000000  0.5479280000000  0.5105930000000 1.0
C      1  0.5494460000000  0.5234390000000  0.5161320000000 1.0
C      1  0.5267930000000  0.4593570000000  0.5095830000000 1.0
C      1  0.4787920000000  0.4569530000000  0.5063160000000 1.0
C      1  0.4526350000000  0.5150300000000  0.5140540000000 1.0
C      1  0.5037730000000  0.5506260000000  0.4837540000000 1.0
C      1  0.5477880000000  0.5194530000000  0.4873390000000 1.0
C      1  0.5403750000000  0.4708320000000  0.4873080000000 1.0
C      1  0.4705750000000  0.4671520000000  0.4789820000000 1.0
C      1  0.4364480000000  0.5005630000000  0.4948220000000 1.0
C      1  0.5286410000000  0.5083770000000  0.4062750000000 1.0
C      1  0.5140980000000  0.4833250000000  0.4118180000000 1.0
C      1  0.4716760000000  0.4776280000000  0.4139840000000 1.0
C      1  0.4732450000000  0.5120550000000  0.4121730000000 1.0
C      1  0.5023900000000  0.5227440000000  0.4093620000000 1.0
C      1  0.5297110000000  0.5019270000000  0.5847600000000 1.0
C      1  0.5158810000000  0.4710370000000  0.5847150000000 1.0
C      1  0.4793660000000  0.4697620000000  0.5935060000000 1.0
C      1  0.4759810000000  0.5202250000000  0.5882700000000 1.0
C      1  0.5040100000000  0.5294440000000  0.5847220000000 1.0
C      1  0.5435140000000  0.5959270000000  0.5055090000000 1.0
C      1  0.4060550000000  0.4609510000000  0.4983930000000 1.0
C      1  0.6028720000000  0.4847030000000  0.5005400000000 1.0
C      1  0.5142440000000  0.3956890000000  0.4978070000000 1.0
C      1  0.4262940000000  0.5745700000000  0.4999410000000 1.0
C      1  0.4823090000000  0.4930500000000  0.5714080000000 1.0
C      1  0.5026660000000  0.4938040000000  0.4372150000000 1.0
C      1  0.5028470000000  0.5007940000000  0.4984310000000 1.0
END
