TITL C-2441158-471-258 0.0487394659761351 125000 -10195.4829359701 0 0 78 (C1) n - 1
REM
REM in /home/bkarasulu/work/CARBON/AIRSS/Generating-Clusters/ReaxFF-fromJPCA2015/Units_Real/with-SteepDescent/Higher-Symm
REM
REM
REM
REM
REM
REM ./C.cell (1df0a924f5614ab8850e4351716899ee)
REM
REM compiler GCC version 9.2.1 20190827 (Red Hat 9.2.1-1)
REM options -cpp -mtune=generic -march=x86-64 -g -O0 -fpre-include=/usr/include/finclude/math-vector-fortran.h
REM seed 1989550690 -1312065856 1329603158 -1200435302 -200197114 1596992817 2139189241 -86373513 -890297045 -1607333826 172990631 -1801734417 789142391 -553556254 218327477 1271922590 -527772424 1569667919 1669775956 -389357482 1583116851 1288931146 309204324 920170783 565624950 1692458380 -1336813218 -1751458965 839858619 236294400 705537834 937402945 -367974478
REM
CELL 1.54180   50.00000   50.00000   50.00000   90.00000   90.00000   90.00000
LATT -1
SFAC C  
C      1  0.4609370000000  0.4307410000000  0.5318210000000 1.0
C      1  0.4288230000000  0.4628290000000  0.5298800000000 1.0
C      1  0.4214370000000  0.5075610000000  0.5308730000000 1.0
C      1  0.4372010000000  0.5472440000000  0.5319380000000 1.0
C      1  0.4735010000000  0.5753440000000  0.5313950000000 1.0
C      1  0.5190330000000  0.5759700000000  0.5314650000000 1.0
C      1  0.5560840000000  0.5542090000000  0.5312650000000 1.0
C      1  0.5786940000000  0.5137190000000  0.5314840000000 1.0
C      1  0.5727730000000  0.4723310000000  0.5309590000000 1.0
C      1  0.5462300000000  0.4360780000000  0.5296300000000 1.0
C      1  0.5024680000000  0.4218720000000  0.5307470000000 1.0
C      1  0.5090890000000  0.4520140000000  0.4437880000000 1.0
C      1  0.4804750000000  0.4515990000000  0.4407950000000 1.0
C      1  0.4587650000000  0.4703230000000  0.4422030000000 1.0
C      1  0.4499850000000  0.4975600000000  0.4424630000000 1.0
C      1  0.4564180000000  0.5247230000000  0.4393420000000 1.0
C      1  0.4768180000000  0.5450890000000  0.4388440000000 1.0
C      1  0.5044390000000  0.5490960000000  0.4440750000000 1.0
C      1  0.5312160000000  0.5400240000000  0.4382920000000 1.0
C      1  0.5484370000000  0.5161470000000  0.4389180000000 1.0
C      1  0.5476050000000  0.4881150000000  0.4420180000000 1.0
C      1  0.5358090000000  0.4617600000000  0.4408090000000 1.0
C      1  0.5125950000000  0.5522300000000  0.5473510000000 1.0
C      1  0.5375930000000  0.5387210000000  0.5471180000000 1.0
C      1  0.5496940000000  0.5093420000000  0.5410280000000 1.0
C      1  0.5502810000000  0.4807740000000  0.5464620000000 1.0
C      1  0.5315660000000  0.4590170000000  0.5421350000000 1.0
C      1  0.5030440000000  0.4470070000000  0.5452140000000 1.0
C      1  0.4753730000000  0.4515980000000  0.5459980000000 1.0
C      1  0.4550030000000  0.4758100000000  0.5396030000000 1.0
C      1  0.4452940000000  0.5051740000000  0.5471110000000 1.0
C      1  0.4559140000000  0.5314950000000  0.5478140000000 1.0
C      1  0.4822240000000  0.5476780000000  0.5412050000000 1.0
C      1  0.4955960000000  0.5878120000000  0.5158880000000 1.0
C      1  0.5436990000000  0.5750330000000  0.5146380000000 1.0
C      1  0.5779810000000  0.5384060000000  0.5158340000000 1.0
C      1  0.5886130000000  0.4919370000000  0.5150730000000 1.0
C      1  0.5691750000000  0.4462020000000  0.5165590000000 1.0
C      1  0.5285520000000  0.4176730000000  0.5143020000000 1.0
C      1  0.4783350000000  0.4138760000000  0.5153870000000 1.0
C      1  0.4364620000000  0.4390950000000  0.5159620000000 1.0
C      1  0.4128970000000  0.4825180000000  0.5152220000000 1.0
C      1  0.4191470000000  0.5322770000000  0.5143040000000 1.0
C      1  0.4488990000000  0.5708990000000  0.5155090000000 1.0
C      1  0.5075920000000  0.4388390000000  0.4717350000000 1.0
C      1  0.4776160000000  0.4371860000000  0.4660830000000 1.0
C      1  0.4457900000000  0.4645200000000  0.4671790000000 1.0
C      1  0.4374860000000  0.4940080000000  0.4704940000000 1.0
C      1  0.4478280000000  0.5343000000000  0.4656490000000 1.0
C      1  0.4683380000000  0.5562740000000  0.4657490000000 1.0
C      1  0.5027230000000  0.5614870000000  0.4713740000000 1.0
C      1  0.5422880000000  0.5496190000000  0.4645410000000 1.0
C      1  0.5599860000000  0.5262080000000  0.4653780000000 1.0
C      1  0.5582720000000  0.4834750000000  0.4720780000000 1.0
C      1  0.5492480000000  0.4539100000000  0.4670890000000 1.0
C      1  0.5869270000000  0.4923830000000  0.4852850000000 1.0
C      1  0.5669450000000  0.4417060000000  0.4864900000000 1.0
C      1  0.5263230000000  0.4160570000000  0.4860560000000 1.0
C      1  0.4739430000000  0.4156520000000  0.4855970000000 1.0
C      1  0.4387810000000  0.4439220000000  0.4862450000000 1.0
C      1  0.4124940000000  0.4847840000000  0.4862350000000 1.0
C      1  0.4262180000000  0.5339460000000  0.4854830000000 1.0
C      1  0.4516580000000  0.5710680000000  0.4868200000000 1.0
C      1  0.4981720000000  0.5874850000000  0.4866740000000 1.0
C      1  0.5428100000000  0.5701700000000  0.4853720000000 1.0
C      1  0.5744840000000  0.5297810000000  0.4890250000000 1.0
C      1  0.5116250000000  0.5433370000000  0.4956020000000 1.0
C      1  0.5267440000000  0.5267530000000  0.5023790000000 1.0
C      1  0.5421750000000  0.5095970000000  0.5098980000000 1.0
C      1  0.5406190000000  0.4858910000000  0.4948420000000 1.0
C      1  0.5244320000000  0.4668950000000  0.5086260000000 1.0
C      1  0.5024940000000  0.4532800000000  0.4958780000000 1.0
C      1  0.4829580000000  0.4726730000000  0.4980950000000 1.0
C      1  0.4604320000000  0.4803510000000  0.5117990000000 1.0
C      1  0.4554050000000  0.5032510000000  0.4957410000000 1.0
C      1  0.4695270000000  0.5227760000000  0.5024590000000 1.0
C      1  0.4833310000000  0.5414710000000  0.5091580000000 1.0
C      1  0.5033330000000  0.4907720000000  0.5107350000000 1.0
END
