TITL C-2441169-1362-83 0.174374456074112 125000 -17904.7657227834 0 0 156 (C1) n - 1
REM
REM in /home/bkarasulu/work/CARBON/AIRSS/Generating-Clusters/ReaxFF-fromJPCA2015/Units_Real/with-SteepDescent/Higher-Symm
REM
REM
REM
REM
REM
REM ./C.cell (1df0a924f5614ab8850e4351716899ee)
REM
REM compiler GCC version 9.2.1 20190827 (Red Hat 9.2.1-1)
REM options -cpp -mtune=generic -march=x86-64 -g -O0 -fpre-include=/usr/include/finclude/math-vector-fortran.h
REM seed -1605374454 -353065997 530334360 1633297078 -1378478414 -1170752738 1975347145 -1581701515 705199778 -1313530298 -1524880367 421753003 175109467 -571651593 1660778874 1773740998 -595814293 -1760260964 1256849416 1716244542 -1166943092 814925585 -2123639488 814115177 1879971238 -1865878881 1546362755 -1705517451 208278701 -183473547 698842009 410790545 -1167813112
REM
CELL 1.54180   50.00000   50.00000   50.00000   90.00000   90.00000   90.00000
LATT -1
SFAC C  
C      1  0.5006860000000  0.4370770000000  0.5395360000000 1.0
C      1  0.4500540000000  0.4823020000000  0.5431220000000 1.0
C      1  0.4663860000000  0.5415700000000  0.5438710000000 1.0
C      1  0.5291470000000  0.5458860000000  0.5431930000000 1.0
C      1  0.5560100000000  0.4839110000000  0.5424370000000 1.0
C      1  0.5030380000000  0.5538870000000  0.4578430000000 1.0
C      1  0.4491620000000  0.5193850000000  0.4595680000000 1.0
C      1  0.4662840000000  0.4572690000000  0.4564890000000 1.0
C      1  0.5322020000000  0.4541590000000  0.4573620000000 1.0
C      1  0.5549360000000  0.5175580000000  0.4593990000000 1.0
C      1  0.5011970000000  0.5817730000000  0.4441350000000 1.0
C      1  0.5803210000000  0.5259520000000  0.4448970000000 1.0
C      1  0.5506330000000  0.4348990000000  0.4410340000000 1.0
C      1  0.4509240000000  0.4341550000000  0.4429160000000 1.0
C      1  0.4215690000000  0.5259590000000  0.4423810000000 1.0
C      1  0.4994530000000  0.4155820000000  0.5578490000000 1.0
C      1  0.5783750000000  0.4744200000000  0.5576420000000 1.0
C      1  0.5469400000000  0.5670800000000  0.5560290000000 1.0
C      1  0.4525320000000  0.5674330000000  0.5595730000000 1.0
C      1  0.4214640000000  0.4758000000000  0.5579480000000 1.0
C      1  0.5281070000000  0.4946040000000  0.5823570000000 1.0
C      1  0.5053790000000  0.4721770000000  0.5819220000000 1.0
C      1  0.4805240000000  0.4836740000000  0.5796010000000 1.0
C      1  0.4711030000000  0.5086950000000  0.5858790000000 1.0
C      1  0.5051690000000  0.5299880000000  0.5854010000000 1.0
C      1  0.5306400000000  0.5019580000000  0.4176400000000 1.0
C      1  0.5035680000000  0.5294360000000  0.4170810000000 1.0
C      1  0.4795770000000  0.5174990000000  0.4183210000000 1.0
C      1  0.4702220000000  0.4908810000000  0.4131940000000 1.0
C      1  0.5047710000000  0.4694540000000  0.4152730000000 1.0
C      1  0.5162590000000  0.4325350000000  0.5764700000000 1.0
C      1  0.4411150000000  0.4678960000000  0.5780420000000 1.0
C      1  0.4505220000000  0.5463770000000  0.5787230000000 1.0
C      1  0.5268250000000  0.5641520000000  0.5770370000000 1.0
C      1  0.5695490000000  0.4946080000000  0.5775300000000 1.0
C      1  0.5159540000000  0.5682500000000  0.4229540000000 1.0
C      1  0.4423430000000  0.5330970000000  0.4237460000000 1.0
C      1  0.4515130000000  0.4527990000000  0.4206030000000 1.0
C      1  0.5293880000000  0.4375470000000  0.4215300000000 1.0
C      1  0.5712760000000  0.5063760000000  0.4233230000000 1.0
C      1  0.5867930000000  0.4711570000000  0.5145520000000 1.0
C      1  0.4991770000000  0.4077550000000  0.5148710000000 1.0
C      1  0.4133750000000  0.4702830000000  0.5138820000000 1.0
C      1  0.4440060000000  0.5726930000000  0.5140570000000 1.0
C      1  0.5545720000000  0.5754660000000  0.5137750000000 1.0
C      1  0.5878380000000  0.5271830000000  0.4858160000000 1.0
C      1  0.5008100000000  0.5921310000000  0.4856920000000 1.0
C      1  0.4126080000000  0.5261360000000  0.4862150000000 1.0
C      1  0.4473500000000  0.4259310000000  0.4858940000000 1.0
C      1  0.5536080000000  0.4262160000000  0.4850210000000 1.0
C      1  0.5751490000000  0.4465690000000  0.4725630000000 1.0
C      1  0.4718670000000  0.4105750000000  0.4743970000000 1.0
C      1  0.4058890000000  0.4982890000000  0.4741030000000 1.0
C      1  0.4704490000000  0.5860200000000  0.4735120000000 1.0
C      1  0.5745370000000  0.5557770000000  0.4731460000000 1.0
C      1  0.5735460000000  0.5517860000000  0.5265180000000 1.0
C      1  0.4740280000000  0.5855530000000  0.5254570000000 1.0
C      1  0.4063970000000  0.4997020000000  0.5263950000000 1.0
C      1  0.4705240000000  0.4112530000000  0.5277000000000 1.0
C      1  0.5735410000000  0.4450950000000  0.5265410000000 1.0
C      1  0.4096890000000  0.5273330000000  0.5136580000000 1.0
C      1  0.5017550000000  0.5958210000000  0.5128470000000 1.0
C      1  0.5902830000000  0.5277660000000  0.5137420000000 1.0
C      1  0.5556650000000  0.4236860000000  0.5126580000000 1.0
C      1  0.4456850000000  0.4230840000000  0.5138260000000 1.0
C      1  0.4102840000000  0.4698220000000  0.4862050000000 1.0
C      1  0.4995180000000  0.4056140000000  0.4872170000000 1.0
C      1  0.5891300000000  0.4702290000000  0.4866490000000 1.0
C      1  0.5557490000000  0.5758420000000  0.4860540000000 1.0
C      1  0.4431960000000  0.5761850000000  0.4867530000000 1.0
C      1  0.5705850000000  0.5491100000000  0.5562270000000 1.0
C      1  0.5682780000000  0.4471470000000  0.5557260000000 1.0
C      1  0.4701920000000  0.4174580000000  0.5559360000000 1.0
C      1  0.4116460000000  0.5032510000000  0.5541540000000 1.0
C      1  0.4759890000000  0.5844060000000  0.5553760000000 1.0
C      1  0.5736020000000  0.4528270000000  0.4440480000000 1.0
C      1  0.5694570000000  0.5536070000000  0.4449660000000 1.0
C      1  0.4715240000000  0.5813160000000  0.4445000000000 1.0
C      1  0.4116190000000  0.4980580000000  0.4457290000000 1.0
C      1  0.4741170000000  0.4156000000000  0.4465170000000 1.0
C      1  0.4621110000000  0.4438550000000  0.5715600000000 1.0
C      1  0.4323170000000  0.5213780000000  0.5700360000000 1.0
C      1  0.4959840000000  0.5702540000000  0.5716460000000 1.0
C      1  0.5618520000000  0.5240980000000  0.5703000000000 1.0
C      1  0.5430630000000  0.4473880000000  0.5723100000000 1.0
C      1  0.4633850000000  0.5565160000000  0.4285370000000 1.0
C      1  0.4310950000000  0.4806090000000  0.4305410000000 1.0
C      1  0.4967580000000  0.4286010000000  0.4307560000000 1.0
C      1  0.5633830000000  0.4779850000000  0.4304160000000 1.0
C      1  0.5427490000000  0.5524510000000  0.4294650000000 1.0
C      1  0.5236360000000  0.4765580000000  0.4905530000000 1.0
C      1  0.4835930000000  0.4785870000000  0.4827240000000 1.0
C      1  0.4608770000000  0.5062640000000  0.4923480000000 1.0
C      1  0.4953580000000  0.5332760000000  0.4907140000000 1.0
C      1  0.5290480000000  0.5135890000000  0.4906430000000 1.0
C      1  0.5264020000000  0.5253630000000  0.5114090000000 1.0
C      1  0.4825700000000  0.5330460000000  0.5108300000000 1.0
C      1  0.4677700000000  0.4950010000000  0.5124980000000 1.0
C      1  0.4946630000000  0.4702840000000  0.5189330000000 1.0
C      1  0.5358930000000  0.4822690000000  0.5105590000000 1.0
C      1  0.5483370000000  0.5241500000000  0.4165570000000 1.0
C      1  0.5347060000000  0.4648400000000  0.4137830000000 1.0
C      1  0.4809480000000  0.4492020000000  0.4167760000000 1.0
C      1  0.4430780000000  0.5027710000000  0.4153180000000 1.0
C      1  0.4907190000000  0.5549350000000  0.4143850000000 1.0
C      1  0.5482660000000  0.4744920000000  0.5852100000000 1.0
C      1  0.5336370000000  0.5363120000000  0.5845330000000 1.0
C      1  0.4808990000000  0.5500040000000  0.5845400000000 1.0
C      1  0.4442750000000  0.4976740000000  0.5854080000000 1.0
C      1  0.4919150000000  0.4464780000000  0.5839000000000 1.0
C      1  0.4541130000000  0.4534020000000  0.5393320000000 1.0
C      1  0.4418050000000  0.5282610000000  0.5374900000000 1.0
C      1  0.5133100000000  0.5614070000000  0.5274230000000 1.0
C      1  0.5641820000000  0.5089830000000  0.5380160000000 1.0
C      1  0.5277910000000  0.4413630000000  0.5359390000000 1.0
C      1  0.4545680000000  0.5460240000000  0.4641200000000 1.0
C      1  0.4419210000000  0.4720000000000  0.4622510000000 1.0
C      1  0.5111240000000  0.4342990000000  0.4611390000000 1.0
C      1  0.5619300000000  0.4893840000000  0.4628030000000 1.0
C      1  0.5304620000000  0.5574930000000  0.4623010000000 1.0
C      1  0.4294270000000  0.4465880000000  0.5232910000000 1.0
C      1  0.4272060000000  0.5504120000000  0.5232150000000 1.0
C      1  0.5288870000000  0.5867540000000  0.5243970000000 1.0
C      1  0.5879450000000  0.5000610000000  0.5236990000000 1.0
C      1  0.5282450000000  0.4158790000000  0.5221180000000 1.0
C      1  0.4287250000000  0.5519520000000  0.4769040000000 1.0
C      1  0.4288420000000  0.4479300000000  0.4754440000000 1.0
C      1  0.5266900000000  0.4151030000000  0.4773390000000 1.0
C      1  0.5884430000000  0.4986510000000  0.4768580000000 1.0
C      1  0.5276890000000  0.5845880000000  0.4749280000000 1.0
C      1  0.4807040000000  0.5191540000000  0.5546510000000 1.0
C      1  0.5089460000000  0.5252150000000  0.5548370000000 1.0
C      1  0.5242760000000  0.4992980000000  0.5529110000000 1.0
C      1  0.5035790000000  0.4814200000000  0.5431130000000 1.0
C      1  0.4776480000000  0.4906630000000  0.5525510000000 1.0
C      1  0.4790560000000  0.4811530000000  0.4429220000000 1.0
C      1  0.5076760000000  0.4771410000000  0.4439060000000 1.0
C      1  0.5229160000000  0.5025370000000  0.4456980000000 1.0
C      1  0.5054310000000  0.5265080000000  0.4467020000000 1.0
C      1  0.4781440000000  0.5117630000000  0.4488720000000 1.0
C      1  0.4894180000000  0.4484080000000  0.4782250000000 1.0
C      1  0.4454800000000  0.4975210000000  0.4746450000000 1.0
C      1  0.4803140000000  0.5530000000000  0.4747660000000 1.0
C      1  0.5413040000000  0.5347110000000  0.4750080000000 1.0
C      1  0.5431400000000  0.4717780000000  0.4731120000000 1.0
C      1  0.4827270000000  0.5560610000000  0.5263470000000 1.0
C      1  0.4472510000000  0.5023630000000  0.5263260000000 1.0
C      1  0.4808780000000  0.4494970000000  0.5270750000000 1.0
C      1  0.5431690000000  0.4650210000000  0.5276080000000 1.0
C      1  0.5477090000000  0.5304610000000  0.5269080000000 1.0
C      1  0.5077270000000  0.4551670000000  0.4999610000000 1.0
C      1  0.5167420000000  0.5470520000000  0.5012230000000 1.0
C      1  0.4572650000000  0.5323360000000  0.5011070000000 1.0
C      1  0.4616160000000  0.4698900000000  0.4997960000000 1.0
C      1  0.5531050000000  0.4992310000000  0.5014510000000 1.0
C      1  0.5019100000000  0.4997630000000  0.4837860000000 1.0
END
