TITL C-2441156-4686-258 0.108195800010426 125000 -26943.3705565777 0 0 195 (C1) n - 1
REM
REM in /home/bkarasulu/work/CARBON/AIRSS/Generating-Clusters/ReaxFF-fromJPCA2015/Units_Real/with-SteepDescent/Higher-Symm
REM
REM
REM
REM
REM
REM ./C.cell (1df0a924f5614ab8850e4351716899ee)
REM
REM compiler GCC version 9.2.1 20190827 (Red Hat 9.2.1-1)
REM options -cpp -mtune=generic -march=x86-64 -g -O0 -fpre-include=/usr/include/finclude/math-vector-fortran.h
REM seed -1329114685 -398108416 2071944029 -11222148 -560689987 492197300 -1993107470 -1318406601 772872878 855839864 -2110336622 -950751362 1445598140 -25421660 -1852721030 146086702 -1691721792 -2062570307 -1262073921 1645881890 371953319 -1563241552 -1145943744 1200266539 -1624625555 1355860606 1034648060 527884537 -1029441122 517164608 -2030891724 761097192 -405488772
REM
CELL 1.54180   50.00000   50.00000   50.00000   90.00000   90.00000   90.00000
LATT -1
SFAC C  
C      1  0.4805860000000  0.4742300000000  0.3950030000000 1.0
C      1  0.4838960000000  0.5162660000000  0.3962020000000 1.0
C      1  0.5365810000000  0.4981180000000  0.3965830000000 1.0
C      1  0.4256810000000  0.5699130000000  0.4471440000000 1.0
C      1  0.5956640000000  0.5282780000000  0.4464270000000 1.0
C      1  0.4760330000000  0.4038770000000  0.4432870000000 1.0
C      1  0.5091330000000  0.3926430000000  0.4793840000000 1.0
C      1  0.4047030000000  0.5428610000000  0.4824760000000 1.0
C      1  0.5838850000000  0.5634990000000  0.4805550000000 1.0
C      1  0.5412610000000  0.5565290000000  0.5897170000000 1.0
C      1  0.5295910000000  0.4393070000000  0.5865540000000 1.0
C      1  0.4314850000000  0.5070450000000  0.5833240000000 1.0
C      1  0.6006880000000  0.4774250000000  0.4686780000000 1.0
C      1  0.4298390000000  0.4209190000000  0.4643330000000 1.0
C      1  0.4675600000000  0.5991400000000  0.4647020000000 1.0
C      1  0.5543900000000  0.5286390000000  0.5142800000000 1.0
C      1  0.4970700000000  0.4368090000000  0.5069560000000 1.0
C      1  0.4476140000000  0.5425110000000  0.5104560000000 1.0
C      1  0.5693610000000  0.5655310000000  0.5842390000000 1.0
C      1  0.5203920000000  0.4121040000000  0.5775520000000 1.0
C      1  0.4149270000000  0.5296610000000  0.5750860000000 1.0
C      1  0.4537530000000  0.4624720000000  0.4000240000000 1.0
C      1  0.4785900000000  0.5604350000000  0.3996990000000 1.0
C      1  0.5591240000000  0.4805290000000  0.4004550000000 1.0
C      1  0.5827090000000  0.5541470000000  0.4534300000000 1.0
C      1  0.5037390000000  0.4018690000000  0.4518600000000 1.0
C      1  0.4113110000000  0.5448490000000  0.4543900000000 1.0
C      1  0.5257440000000  0.4089540000000  0.5472850000000 1.0
C      1  0.4057600000000  0.5216170000000  0.5478940000000 1.0
C      1  0.5661890000000  0.5667200000000  0.5540840000000 1.0
C      1  0.4390250000000  0.4837460000000  0.4991310000000 1.0
C      1  0.5272030000000  0.5635170000000  0.4935010000000 1.0
C      1  0.5434950000000  0.4460430000000  0.4937230000000 1.0
C      1  0.4673170000000  0.5208520000000  0.5992200000000 1.0
C      1  0.5361140000000  0.5136640000000  0.5964920000000 1.0
C      1  0.4982660000000  0.4634840000000  0.5964140000000 1.0
C      1  0.6017040000000  0.5034940000000  0.5345590000000 1.0
C      1  0.4521980000000  0.4120940000000  0.5318470000000 1.0
C      1  0.4474610000000  0.5723410000000  0.5277600000000 1.0
C      1  0.4152050000000  0.5220670000000  0.4365650000000 1.0
C      1  0.5595150000000  0.5622300000000  0.4373140000000 1.0
C      1  0.5224900000000  0.4184010000000  0.4367690000000 1.0
C      1  0.5439200000000  0.5952860000000  0.4706670000000 1.0
C      1  0.5546810000000  0.4091400000000  0.4751650000000 1.0
C      1  0.3961310000000  0.4927770000000  0.4772200000000 1.0
C      1  0.4993820000000  0.6132890000000  0.5017860000000 1.0
C      1  0.6026900000000  0.4356810000000  0.4951480000000 1.0
C      1  0.4026580000000  0.4416220000000  0.5028260000000 1.0
C      1  0.4578310000000  0.4410390000000  0.4186670000000 1.0
C      1  0.4679260000000  0.5723130000000  0.4243830000000 1.0
C      1  0.5759010000000  0.4931390000000  0.4211100000000 1.0
C      1  0.4169000000000  0.4721510000000  0.4363890000000 1.0
C      1  0.5119170000000  0.5818350000000  0.4319840000000 1.0
C      1  0.5667360000000  0.4432210000000  0.4384270000000 1.0
C      1  0.4196510000000  0.4975280000000  0.5145850000000 1.0
C      1  0.5466710000000  0.5760090000000  0.5128880000000 1.0
C      1  0.5564700000000  0.4279320000000  0.5113520000000 1.0
C      1  0.4576920000000  0.4903520000000  0.4349800000000 1.0
C      1  0.4996240000000  0.5334530000000  0.4341200000000 1.0
C      1  0.5362770000000  0.4774630000000  0.4363320000000 1.0
C      1  0.4336310000000  0.5513610000000  0.5712190000000 1.0
C      1  0.5724860000000  0.5213450000000  0.5589090000000 1.0
C      1  0.4832870000000  0.4290610000000  0.5563760000000 1.0
C      1  0.4547460000000  0.4410700000000  0.5413370000000 1.0
C      1  0.4708520000000  0.5754200000000  0.5415330000000 1.0
C      1  0.5748440000000  0.4925040000000  0.5461080000000 1.0
C      1  0.4317290000000  0.5165810000000  0.5341270000000 1.0
C      1  0.5543500000000  0.5386240000000  0.5433800000000 1.0
C      1  0.5091710000000  0.4336640000000  0.5405580000000 1.0
C      1  0.4189350000000  0.4190360000000  0.4909980000000 1.0
C      1  0.4714820000000  0.6079170000000  0.4930960000000 1.0
C      1  0.6063440000000  0.4679630000000  0.4966640000000 1.0
C      1  0.4774680000000  0.4032310000000  0.5425900000000 1.0
C      1  0.4264350000000  0.5647090000000  0.5465290000000 1.0
C      1  0.5973060000000  0.5298450000000  0.5443340000000 1.0
C      1  0.5339750000000  0.3975880000000  0.4932390000000 1.0
C      1  0.3971590000000  0.5173120000000  0.4967700000000 1.0
C      1  0.5638580000000  0.5839350000000  0.4890460000000 1.0
C      1  0.3996220000000  0.4650990000000  0.4853030000000 1.0
C      1  0.5170360000000  0.6033000000000  0.4807420000000 1.0
C      1  0.5780150000000  0.4204450000000  0.4925210000000 1.0
C      1  0.4800910000000  0.5255650000000  0.5536130000000 1.0
C      1  0.5247950000000  0.5051820000000  0.5438840000000 1.0
C      1  0.4944640000000  0.4785490000000  0.5499530000000 1.0
C      1  0.5041560000000  0.4586090000000  0.4038000000000 1.0
C      1  0.4627080000000  0.5346820000000  0.4004540000000 1.0
C      1  0.5365200000000  0.5254890000000  0.4040690000000 1.0
C      1  0.5108750000000  0.5194580000000  0.5232260000000 1.0
C      1  0.5140830000000  0.4757260000000  0.5095390000000 1.0
C      1  0.4864850000000  0.5081110000000  0.5143810000000 1.0
C      1  0.4875220000000  0.4365810000000  0.5873050000000 1.0
C      1  0.4580460000000  0.5469310000000  0.5886910000000 1.0
C      1  0.5642820000000  0.5190570000000  0.5900310000000 1.0
C      1  0.5053180000000  0.5660870000000  0.4078070000000 1.0
C      1  0.5528610000000  0.4584960000000  0.4182290000000 1.0
C      1  0.4364380000000  0.4796240000000  0.4166100000000 1.0
C      1  0.5266030000000  0.5888090000000  0.5347010000000 1.0
C      1  0.5709650000000  0.4393480000000  0.5330200000000 1.0
C      1  0.4094740000000  0.4766120000000  0.5330370000000 1.0
C      1  0.4392600000000  0.5897580000000  0.4641580000000 1.0
C      1  0.6053150000000  0.5068800000000  0.4647130000000 1.0
C      1  0.4524670000000  0.4029680000000  0.4616440000000 1.0
C      1  0.5181450000000  0.4830110000000  0.4135660000000 1.0
C      1  0.4835470000000  0.4952960000000  0.4160570000000 1.0
C      1  0.5095080000000  0.5350230000000  0.4069100000000 1.0
C      1  0.4846610000000  0.5994730000000  0.5504020000000 1.0
C      1  0.5913270000000  0.4689960000000  0.5537950000000 1.0
C      1  0.4270530000000  0.4383800000000  0.5515200000000 1.0
C      1  0.4275610000000  0.4570170000000  0.5744260000000 1.0
C      1  0.4959100000000  0.5843890000000  0.5722660000000 1.0
C      1  0.5733350000000  0.4581320000000  0.5742340000000 1.0
C      1  0.5288080000000  0.4474880000000  0.5589300000000 1.0
C      1  0.4423730000000  0.5005210000000  0.5562680000000 1.0
C      1  0.5311120000000  0.5464490000000  0.5626470000000 1.0
C      1  0.3931470000000  0.5318000000000  0.5241920000000 1.0
C      1  0.5755520000000  0.5728540000000  0.5278090000000 1.0
C      1  0.5251100000000  0.3937610000000  0.5220640000000 1.0
C      1  0.4584240000000  0.3918530000000  0.4884030000000 1.0
C      1  0.4275320000000  0.5889650000000  0.4909970000000 1.0
C      1  0.6107980000000  0.5182700000000  0.4905200000000 1.0
C      1  0.4797780000000  0.4830090000000  0.4782990000000 1.0
C      1  0.4952370000000  0.5282960000000  0.4821970000000 1.0
C      1  0.5270950000000  0.4894110000000  0.4888960000000 1.0
C      1  0.4488240000000  0.5972750000000  0.5078500000000 1.0
C      1  0.6120160000000  0.4952440000000  0.5088530000000 1.0
C      1  0.4390170000000  0.4035200000000  0.5065230000000 1.0
C      1  0.5051930000000  0.6069680000000  0.5300540000000 1.0
C      1  0.5935230000000  0.4557240000000  0.5287370000000 1.0
C      1  0.4077640000000  0.4481400000000  0.5306970000000 1.0
C      1  0.5594320000000  0.4669450000000  0.4810770000000 1.0
C      1  0.4305040000000  0.4618220000000  0.4824420000000 1.0
C      1  0.5054590000000  0.5758910000000  0.4788180000000 1.0
C      1  0.5533210000000  0.4718450000000  0.5914110000000 1.0
C      1  0.4465790000000  0.4678790000000  0.5946120000000 1.0
C      1  0.4981020000000  0.5476420000000  0.6027890000000 1.0
C      1  0.5710100000000  0.4927940000000  0.5955220000000 1.0
C      1  0.4616290000000  0.4447690000000  0.5933910000000 1.0
C      1  0.4804370000000  0.5658420000000  0.5914670000000 1.0
C      1  0.4497300000000  0.4459230000000  0.4983330000000 1.0
C      1  0.4820390000000  0.5663850000000  0.4942520000000 1.0
C      1  0.5659970000000  0.4856770000000  0.5025190000000 1.0
C      1  0.4587690000000  0.4644400000000  0.5186360000000 1.0
C      1  0.4878200000000  0.5625730000000  0.5223220000000 1.0
C      1  0.5545970000000  0.4834660000000  0.5285070000000 1.0
C      1  0.5055120000000  0.4324330000000  0.4166440000000 1.0
C      1  0.4390840000000  0.5313920000000  0.4214490000000 1.0
C      1  0.5563520000000  0.5373100000000  0.4215650000000 1.0
C      1  0.4057070000000  0.5581600000000  0.5266820000000 1.0
C      1  0.5958040000000  0.5518380000000  0.5247750000000 1.0
C      1  0.4960630000000  0.3892320000000  0.5240740000000 1.0
C      1  0.5245820000000  0.5388170000000  0.6079120000000 1.0
C      1  0.5266170000000  0.4636750000000  0.6023980000000 1.0
C      1  0.4500350000000  0.4976170000000  0.6028650000000 1.0
C      1  0.4873270000000  0.4682780000000  0.5039370000000 1.0
C      1  0.4635910000000  0.5189460000000  0.5044270000000 1.0
C      1  0.5296060000000  0.5180890000000  0.5015850000000 1.0
C      1  0.5179140000000  0.5733350000000  0.5565100000000 1.0
C      1  0.5564140000000  0.4439820000000  0.5565750000000 1.0
C      1  0.4245470000000  0.4781870000000  0.5558890000000 1.0
C      1  0.4877150000000  0.5126570000000  0.5789410000000 1.0
C      1  0.5209220000000  0.5165390000000  0.5706010000000 1.0
C      1  0.4888710000000  0.4830040000000  0.5766390000000 1.0
C      1  0.4977740000000  0.4910150000000  0.4585600000000 1.0
C      1  0.5088380000000  0.5172420000000  0.4545170000000 1.0
C      1  0.5193000000000  0.4747500000000  0.4610440000000 1.0
C      1  0.5787760000000  0.4602080000000  0.4597500000000 1.0
C      1  0.4315520000000  0.4506290000000  0.4535390000000 1.0
C      1  0.4865330000000  0.5894270000000  0.4448370000000 1.0
C      1  0.5816950000000  0.5219190000000  0.4223400000000 1.0
C      1  0.4785600000000  0.4208970000000  0.4197720000000 1.0
C      1  0.4395580000000  0.5601460000000  0.4242500000000 1.0
C      1  0.4590410000000  0.4560320000000  0.4443550000000 1.0
C      1  0.4781520000000  0.5476190000000  0.4414020000000 1.0
C      1  0.5591260000000  0.4932130000000  0.4444040000000 1.0
C      1  0.5071680000000  0.4485730000000  0.4630670000000 1.0
C      1  0.4510280000000  0.5109860000000  0.4553130000000 1.0
C      1  0.5368870000000  0.5293600000000  0.4572400000000 1.0
C      1  0.4067260000000  0.4959410000000  0.4494050000000 1.0
C      1  0.5393440000000  0.5816100000000  0.4449070000000 1.0
C      1  0.5491510000000  0.4216910000000  0.4488100000000 1.0
C      1  0.4575970000000  0.5540090000000  0.4854660000000 1.0
C      1  0.5675720000000  0.5125410000000  0.4943030000000 1.0
C      1  0.4732270000000  0.4331350000000  0.4893630000000 1.0
C      1  0.5259910000000  0.5384940000000  0.4825280000000 1.0
C      1  0.5179050000000  0.4378410000000  0.4864860000000 1.0
C      1  0.4555580000000  0.5002220000000  0.4823580000000 1.0
C      1  0.4599960000000  0.5375200000000  0.4609330000000 1.0
C      1  0.5591040000000  0.5132480000000  0.4653290000000 1.0
C      1  0.4794040000000  0.4432840000000  0.4628030000000 1.0
C      1  0.5246210000000  0.4779790000000  0.5356880000000 1.0
C      1  0.4764020000000  0.4990720000000  0.5399540000000 1.0
C      1  0.4971670000000  0.5404940000000  0.5363240000000 1.0
C      1  0.4862120000000  0.3871210000000  0.4966030000000 1.0
C      1  0.4095620000000  0.5660570000000  0.4989150000000 1.0
C      1  0.6002640000000  0.5454760000000  0.4971320000000 1.0
END
