TITL C-2441154-10-701 0.0790407653691292 125000 -26871.9301407332 0 0 192 (C1) n - 1
REM
REM in /home/bkarasulu/work/CARBON/AIRSS/Generating-Clusters/ReaxFF-fromJPCA2015/Units_Real/with-SteepDescent/Higher-Symm
REM
REM
REM
REM
REM
REM ./C.cell (1df0a924f5614ab8850e4351716899ee)
REM
REM compiler GCC version 9.2.1 20190827 (Red Hat 9.2.1-1)
REM options -cpp -mtune=generic -march=x86-64 -g -O0 -fpre-include=/usr/include/finclude/math-vector-fortran.h
REM seed 1875040175 391637353 1329193151 1150168578 -1864450479 1118755053 -5589384 744473246 264147501 -442086659 -1599639538 -1395989580 -1323741275 -312376943 1679251333 1896926748 -1235682136 1543574038 -881734487 1262775007 -1543588849 1036257589 1317094190 -1056563687 1255903331 389889253 1920716958 -672689415 432297968 -236168085 1092460046 1225337073 186122597
REM
CELL 1.54180   50.00000   50.00000   50.00000   90.00000   90.00000   90.00000
LATT -1
SFAC C  
C      1  0.5178360000000  0.5244400000000  0.5623510000000 1.0
C      1  0.5267470000000  0.5378600000000  0.4577480000000 1.0
C      1  0.5254080000000  0.4383450000000  0.4914480000000 1.0
C      1  0.4877830000000  0.5230690000000  0.4382730000000 1.0
C      1  0.4750500000000  0.5365130000000  0.5474660000000 1.0
C      1  0.4788810000000  0.4412610000000  0.5131810000000 1.0
C      1  0.4344260000000  0.5518820000000  0.5053180000000 1.0
C      1  0.4295840000000  0.4754010000000  0.4521920000000 1.0
C      1  0.4271670000000  0.4647660000000  0.5366940000000 1.0
C      1  0.5873060000000  0.5516220000000  0.4930740000000 1.0
C      1  0.5621650000000  0.4838930000000  0.5444900000000 1.0
C      1  0.5712950000000  0.4665500000000  0.4676500000000 1.0
C      1  0.5314620000000  0.3994270000000  0.4627680000000 1.0
C      1  0.5299270000000  0.5173510000000  0.6057130000000 1.0
C      1  0.5288280000000  0.5835130000000  0.4283380000000 1.0
C      1  0.4718990000000  0.3979080000000  0.5381280000000 1.0
C      1  0.4708200000000  0.5183970000000  0.3924360000000 1.0
C      1  0.4696890000000  0.5814410000000  0.5676590000000 1.0
C      1  0.4878030000000  0.5689280000000  0.5859980000000 1.0
C      1  0.4885190000000  0.5410560000000  0.3955020000000 1.0
C      1  0.4892010000000  0.3899660000000  0.5167770000000 1.0
C      1  0.5109970000000  0.5710500000000  0.4113660000000 1.0
C      1  0.5114100000000  0.5393630000000  0.6035170000000 1.0
C      1  0.5131860000000  0.3907780000000  0.4829230000000 1.0
C      1  0.5456960000000  0.5959130000000  0.4942830000000 1.0
C      1  0.5478170000000  0.4390320000000  0.4257290000000 1.0
C      1  0.5316700000000  0.4585800000000  0.5932510000000 1.0
C      1  0.4710890000000  0.6035520000000  0.5111680000000 1.0
C      1  0.4591780000000  0.4375860000000  0.5827120000000 1.0
C      1  0.4541880000000  0.4636600000000  0.4065540000000 1.0
C      1  0.5058060000000  0.4976710000000  0.4727900000000 1.0
C      1  0.5081770000000  0.4809710000000  0.5136320000000 1.0
C      1  0.5070320000000  0.5228100000000  0.5133600000000 1.0
C      1  0.4916960000000  0.4991180000000  0.5270490000000 1.0
C      1  0.4914380000000  0.4795200000000  0.4897080000000 1.0
C      1  0.4922110000000  0.5242390000000  0.4882900000000 1.0
C      1  0.4504030000000  0.4882130000000  0.5913970000000 1.0
C      1  0.4448170000000  0.5846780000000  0.4736210000000 1.0
C      1  0.4541360000000  0.4230260000000  0.4404490000000 1.0
C      1  0.5325580000000  0.4842890000000  0.4029660000000 1.0
C      1  0.5473880000000  0.5844020000000  0.5349510000000 1.0
C      1  0.5524160000000  0.4338290000000  0.5547260000000 1.0
C      1  0.4830250000000  0.5436880000000  0.5989490000000 1.0
C      1  0.4830310000000  0.5655580000000  0.4112660000000 1.0
C      1  0.4842670000000  0.3906570000000  0.4880000000000 1.0
C      1  0.5170830000000  0.5480350000000  0.3956300000000 1.0
C      1  0.5169200000000  0.5659970000000  0.5927530000000 1.0
C      1  0.5177770000000  0.3902620000000  0.5122040000000 1.0
C      1  0.4590640000000  0.4812230000000  0.4467130000000 1.0
C      1  0.4648630000000  0.4697600000000  0.5530290000000 1.0
C      1  0.4644660000000  0.5556240000000  0.5044830000000 1.0
C      1  0.5343220000000  0.4774380000000  0.5503190000000 1.0
C      1  0.5269600000000  0.4672270000000  0.4561480000000 1.0
C      1  0.5255980000000  0.5568620000000  0.4954590000000 1.0
C      1  0.5627010000000  0.5444890000000  0.4142560000000 1.0
C      1  0.5594420000000  0.4044590000000  0.5068390000000 1.0
C      1  0.5620340000000  0.5503710000000  0.5820940000000 1.0
C      1  0.4397800000000  0.5389930000000  0.5787460000000 1.0
C      1  0.4411790000000  0.4109340000000  0.4981940000000 1.0
C      1  0.4391360000000  0.5524780000000  0.4219770000000 1.0
C      1  0.4066870000000  0.5459130000000  0.4636940000000 1.0
C      1  0.4083730000000  0.4479770000000  0.4866270000000 1.0
C      1  0.4024660000000  0.5022510000000  0.5676850000000 1.0
C      1  0.5955500000000  0.5469930000000  0.5373770000000 1.0
C      1  0.5972490000000  0.4558380000000  0.5328220000000 1.0
C      1  0.5900720000000  0.5056280000000  0.4441980000000 1.0
C      1  0.5545280000000  0.4648770000000  0.5113790000000 1.0
C      1  0.5511780000000  0.5334210000000  0.5294440000000 1.0
C      1  0.5530570000000  0.5042430000000  0.4599770000000 1.0
C      1  0.4512840000000  0.4535100000000  0.4812910000000 1.0
C      1  0.4528970000000  0.5326140000000  0.4633300000000 1.0
C      1  0.4438260000000  0.5055130000000  0.5385280000000 1.0
C      1  0.5048190000000  0.4749960000000  0.3987630000000 1.0
C      1  0.5073150000000  0.4219050000000  0.5667910000000 1.0
C      1  0.5075890000000  0.5983330000000  0.5326600000000 1.0
C      1  0.4899630000000  0.4793000000000  0.6009500000000 1.0
C      1  0.4951180000000  0.4184020000000  0.4308510000000 1.0
C      1  0.4907320000000  0.5991270000000  0.4623010000000 1.0
C      1  0.4251910000000  0.5895310000000  0.5239740000000 1.0
C      1  0.4293370000000  0.4789510000000  0.4067870000000 1.0
C      1  0.4309630000000  0.4285480000000  0.5634410000000 1.0
C      1  0.5651450000000  0.5930710000000  0.4724700000000 1.0
C      1  0.5762240000000  0.4731960000000  0.5807050000000 1.0
C      1  0.5738830000000  0.4327550000000  0.4397890000000 1.0
C      1  0.4811680000000  0.5580550000000  0.5287010000000 1.0
C      1  0.4709530000000  0.5005040000000  0.4295720000000 1.0
C      1  0.4724130000000  0.4439870000000  0.5415830000000 1.0
C      1  0.5253900000000  0.5654420000000  0.4682960000000 1.0
C      1  0.5273050000000  0.4979200000000  0.5692480000000 1.0
C      1  0.5194590000000  0.4404950000000  0.4628500000000 1.0
C      1  0.5783390000000  0.4186640000000  0.4662950000000 1.0
C      1  0.5752300000000  0.5023960000000  0.5874890000000 1.0
C      1  0.5713800000000  0.5762520000000  0.4471050000000 1.0
C      1  0.4258920000000  0.4062570000000  0.5447920000000 1.0
C      1  0.4261350000000  0.5086940000000  0.4008540000000 1.0
C      1  0.4241660000000  0.5722810000000  0.5494110000000 1.0
C      1  0.5095770000000  0.4404220000000  0.5886070000000 1.0
C      1  0.5179680000000  0.6022860000000  0.5060710000000 1.0
C      1  0.5097160000000  0.4507150000000  0.4102690000000 1.0
C      1  0.4847260000000  0.4397250000000  0.4165700000000 1.0
C      1  0.4923840000000  0.6057080000000  0.4912390000000 1.0
C      1  0.4829080000000  0.4521890000000  0.5941050000000 1.0
C      1  0.5866440000000  0.5039290000000  0.5174190000000 1.0
C      1  0.5989680000000  0.5057430000000  0.4724390000000 1.0
C      1  0.5885460000000  0.4861120000000  0.4930550000000 1.0
C      1  0.4213980000000  0.5025890000000  0.4721490000000 1.0
C      1  0.4178800000000  0.5330840000000  0.5225460000000 1.0
C      1  0.4212270000000  0.4664550000000  0.5069920000000 1.0
C      1  0.5171610000000  0.5907890000000  0.4538020000000 1.0
C      1  0.5242370000000  0.4193890000000  0.4403190000000 1.0
C      1  0.5197850000000  0.4870140000000  0.5973960000000 1.0
C      1  0.4800900000000  0.5916220000000  0.5389210000000 1.0
C      1  0.4783440000000  0.4202340000000  0.5599330000000 1.0
C      1  0.4768800000000  0.4888370000000  0.4024010000000 1.0
C      1  0.5379820000000  0.4896520000000  0.5057080000000 1.0
C      1  0.5360600000000  0.5192280000000  0.5088440000000 1.0
C      1  0.5338800000000  0.4900780000000  0.4748600000000 1.0
C      1  0.4623860000000  0.4870340000000  0.4925030000000 1.0
C      1  0.4643980000000  0.5156510000000  0.4854340000000 1.0
C      1  0.4633750000000  0.4955600000000  0.5206190000000 1.0
C      1  0.4786260000000  0.5440790000000  0.4549010000000 1.0
C      1  0.4773430000000  0.4430840000000  0.4715140000000 1.0
C      1  0.4905060000000  0.5174490000000  0.5616600000000 1.0
C      1  0.5289580000000  0.5449820000000  0.5448640000000 1.0
C      1  0.5093620000000  0.4408540000000  0.5168830000000 1.0
C      1  0.5164390000000  0.5186460000000  0.4359720000000 1.0
C      1  0.5840850000000  0.5308020000000  0.4299590000000 1.0
C      1  0.5819950000000  0.4216260000000  0.5119940000000 1.0
C      1  0.5867700000000  0.5462480000000  0.5656250000000 1.0
C      1  0.4100560000000  0.5302070000000  0.5716440000000 1.0
C      1  0.4116630000000  0.4225360000000  0.5001480000000 1.0
C      1  0.4139170000000  0.5461790000000  0.4357670000000 1.0
C      1  0.4603380000000  0.5276170000000  0.5977460000000 1.0
C      1  0.4602260000000  0.5718770000000  0.4280530000000 1.0
C      1  0.4608100000000  0.3997200000000  0.4746560000000 1.0
C      1  0.5407860000000  0.5318430000000  0.3999630000000 1.0
C      1  0.5419280000000  0.5707860000000  0.5800030000000 1.0
C      1  0.5384430000000  0.4039790000000  0.5276190000000 1.0
C      1  0.4129980000000  0.4837200000000  0.4304610000000 1.0
C      1  0.4105740000000  0.4444490000000  0.5499020000000 1.0
C      1  0.4083940000000  0.5760990000000  0.5062090000000 1.0
C      1  0.5887400000000  0.4732840000000  0.5545290000000 1.0
C      1  0.5902340000000  0.4535160000000  0.4507240000000 1.0
C      1  0.5862950000000  0.5784810000000  0.4846100000000 1.0
C      1  0.4466350000000  0.3976300000000  0.5256960000000 1.0
C      1  0.4440330000000  0.5695860000000  0.5697710000000 1.0
C      1  0.4457590000000  0.5299660000000  0.4019400000000 1.0
C      1  0.5562700000000  0.4029100000000  0.4771740000000 1.0
C      1  0.5546970000000  0.5708800000000  0.4246710000000 1.0
C      1  0.5560480000000  0.5238640000000  0.5957290000000 1.0
C      1  0.4474340000000  0.5310590000000  0.5499800000000 1.0
C      1  0.4345250000000  0.5148340000000  0.4499780000000 1.0
C      1  0.4509860000000  0.4391250000000  0.5042930000000 1.0
C      1  0.5545520000000  0.5323140000000  0.4629740000000 1.0
C      1  0.5694210000000  0.5100300000000  0.5398110000000 1.0
C      1  0.5517630000000  0.4495700000000  0.4876320000000 1.0
C      1  0.6046310000000  0.5246520000000  0.5197770000000 1.0
C      1  0.6057760000000  0.5280320000000  0.4903840000000 1.0
C      1  0.5995970000000  0.4591260000000  0.5034600000000 1.0
C      1  0.3992700000000  0.5205440000000  0.4780600000000 1.0
C      1  0.3983880000000  0.5150840000000  0.5076810000000 1.0
C      1  0.4014960000000  0.4869230000000  0.5032990000000 1.0
C      1  0.5664850000000  0.4857310000000  0.4420470000000 1.0
C      1  0.5695300000000  0.4432720000000  0.5317280000000 1.0
C      1  0.5732590000000  0.5555640000000  0.5194570000000 1.0
C      1  0.4249140000000  0.4892170000000  0.5510580000000 1.0
C      1  0.4279330000000  0.4496210000000  0.4640010000000 1.0
C      1  0.4320700000000  0.5565700000000  0.4754980000000 1.0
C      1  0.5866190000000  0.5175720000000  0.5657850000000 1.0
C      1  0.5775880000000  0.5476940000000  0.4525610000000 1.0
C      1  0.5936490000000  0.4341980000000  0.4882870000000 1.0
C      1  0.4127980000000  0.5138460000000  0.4276320000000 1.0
C      1  0.4095350000000  0.5468050000000  0.5470850000000 1.0
C      1  0.4066480000000  0.4230670000000  0.5285740000000 1.0
C      1  0.4454280000000  0.5962790000000  0.5005160000000 1.0
C      1  0.4455460000000  0.4452640000000  0.4267980000000 1.0
C      1  0.4465810000000  0.4641570000000  0.5767620000000 1.0
C      1  0.5636720000000  0.5875800000000  0.5176590000000 1.0
C      1  0.5550170000000  0.4524120000000  0.5780490000000 1.0
C      1  0.5497320000000  0.4664860000000  0.4191510000000 1.0
C      1  0.5272310000000  0.4241270000000  0.5462270000000 1.0
C      1  0.5307770000000  0.5813220000000  0.5522310000000 1.0
C      1  0.5309930000000  0.5104620000000  0.4129780000000 1.0
C      1  0.4730350000000  0.4164290000000  0.4558610000000 1.0
C      1  0.4645810000000  0.5880180000000  0.4529020000000 1.0
C      1  0.4688160000000  0.5007240000000  0.6049680000000 1.0
C      1  0.4832580000000  0.5519090000000  0.4822180000000 1.0
C      1  0.4815900000000  0.4657860000000  0.4527780000000 1.0
C      1  0.4879390000000  0.4885590000000  0.5549200000000 1.0
C      1  0.5107490000000  0.5501490000000  0.5225490000000 1.0
C      1  0.5133090000000  0.4640060000000  0.5353210000000 1.0
C      1  0.5054050000000  0.4831700000000  0.4477420000000 1.0
END
