TITL C-2441158-471-78 0.167348737026908 125000 -26210.2017168617 0 0 197 (C1) n - 1
REM
REM in /home/bkarasulu/work/CARBON/AIRSS/Generating-Clusters/ReaxFF-fromJPCA2015/Units_Real/with-SteepDescent/Higher-Symm
REM
REM
REM
REM
REM
REM ./C.cell (1df0a924f5614ab8850e4351716899ee)
REM
REM compiler GCC version 9.2.1 20190827 (Red Hat 9.2.1-1)
REM options -cpp -mtune=generic -march=x86-64 -g -O0 -fpre-include=/usr/include/finclude/math-vector-fortran.h
REM seed -444456312 -1616015823 1980061594 -23336373 -1069848609 -1763285251 -348501455 1735027209 -2119873129 2010650238 1813262796 -2084598828 1801329651 -605258061 -1885321016 -838806936 2131831514 553285592 390077307 1955909597 -345104471 -367920731 -360399054 1439134261 1225537413 1075428761 1443335621 -1720568957 2131880261 457758286 979613900 1102752385 -31681044
REM
CELL 1.54180   50.00000   50.00000   50.00000   90.00000   90.00000   90.00000
LATT -1
SFAC C  
C      1  0.5991820000000  0.4999840000000  0.4790980000000 1.0
C      1  0.5019620000000  0.4811760000000  0.6018190000000 1.0
C      1  0.4799690000000  0.6013830000000  0.4993710000000 1.0
C      1  0.3961060000000  0.4991290000000  0.4797710000000 1.0
C      1  0.5970930000000  0.5013110000000  0.5195490000000 1.0
C      1  0.4065470000000  0.4991060000000  0.5194000000000 1.0
C      1  0.5031120000000  0.5208460000000  0.5918600000000 1.0
C      1  0.5005350000000  0.5218640000000  0.4102580000000 1.0
C      1  0.4993480000000  0.4817890000000  0.4035110000000 1.0
C      1  0.5203190000000  0.4070450000000  0.4991750000000 1.0
C      1  0.4803560000000  0.3953170000000  0.4984940000000 1.0
C      1  0.5203960000000  0.6026990000000  0.4993610000000 1.0
C      1  0.5007820000000  0.6021110000000  0.4793230000000 1.0
C      1  0.4822570000000  0.5004940000000  0.5971440000000 1.0
C      1  0.6004470000000  0.4802830000000  0.5008880000000 1.0
C      1  0.4989110000000  0.3956050000000  0.4781490000000 1.0
C      1  0.4992480000000  0.6016050000000  0.5201300000000 1.0
C      1  0.4999960000000  0.3995940000000  0.5184310000000 1.0
C      1  0.5226350000000  0.4993260000000  0.6026850000000 1.0
C      1  0.5202770000000  0.5016550000000  0.4041470000000 1.0
C      1  0.4797960000000  0.5009580000000  0.4075640000000 1.0
C      1  0.3964270000000  0.5202220000000  0.4997690000000 1.0
C      1  0.3969520000000  0.4780960000000  0.4979280000000 1.0
C      1  0.5958240000000  0.5205770000000  0.4984140000000 1.0
C      1  0.5019040000000  0.4003820000000  0.4505910000000 1.0
C      1  0.4015890000000  0.4496400000000  0.4970750000000 1.0
C      1  0.4528020000000  0.5012890000000  0.3996050000000 1.0
C      1  0.4994350000000  0.6000880000000  0.4507180000000 1.0
C      1  0.4984720000000  0.5983260000000  0.5489870000000 1.0
C      1  0.4986370000000  0.4008290000000  0.5457010000000 1.0
C      1  0.6015280000000  0.5491030000000  0.4982300000000 1.0
C      1  0.4025890000000  0.5477750000000  0.4991600000000 1.0
C      1  0.5982830000000  0.4517950000000  0.5005410000000 1.0
C      1  0.5475280000000  0.5019000000000  0.3955180000000 1.0
C      1  0.4545580000000  0.4973710000000  0.5994620000000 1.0
C      1  0.5505120000000  0.4995830000000  0.5993730000000 1.0
C      1  0.4023560000000  0.5026470000000  0.4525870000000 1.0
C      1  0.4507350000000  0.3968850000000  0.4991420000000 1.0
C      1  0.5002870000000  0.4539730000000  0.3971740000000 1.0
C      1  0.5993080000000  0.4976140000000  0.4511740000000 1.0
C      1  0.6022980000000  0.5036510000000  0.5467970000000 1.0
C      1  0.3987210000000  0.4981310000000  0.5478330000000 1.0
C      1  0.5488460000000  0.5984820000000  0.4986130000000 1.0
C      1  0.5477660000000  0.3981330000000  0.4999210000000 1.0
C      1  0.4528020000000  0.5993880000000  0.4960160000000 1.0
C      1  0.4981240000000  0.5479950000000  0.3983660000000 1.0
C      1  0.4997170000000  0.4522230000000  0.6012010000000 1.0
C      1  0.5019500000000  0.5478250000000  0.6018110000000 1.0
C      1  0.5561640000000  0.4656580000000  0.4789170000000 1.0
C      1  0.4577240000000  0.4725480000000  0.5625110000000 1.0
C      1  0.4856270000000  0.5596360000000  0.4627050000000 1.0
C      1  0.4402270000000  0.5534520000000  0.4717000000000 1.0
C      1  0.5655380000000  0.5418770000000  0.5313680000000 1.0
C      1  0.4469540000000  0.4579960000000  0.5165260000000 1.0
C      1  0.5372670000000  0.5127350000000  0.5563910000000 1.0
C      1  0.4585760000000  0.5264090000000  0.4359570000000 1.0
C      1  0.5465520000000  0.4756440000000  0.4322400000000 1.0
C      1  0.5289760000000  0.4345340000000  0.4515370000000 1.0
C      1  0.4837720000000  0.4409960000000  0.5382920000000 1.0
C      1  0.5150380000000  0.5567910000000  0.5373560000000 1.0
C      1  0.4653550000000  0.5608590000000  0.4826680000000 1.0
C      1  0.4770530000000  0.4509060000000  0.5643220000000 1.0
C      1  0.5659600000000  0.4749420000000  0.4538710000000 1.0
C      1  0.5234910000000  0.4351990000000  0.4909680000000 1.0
C      1  0.5256410000000  0.5597680000000  0.5117770000000 1.0
C      1  0.4591810000000  0.4350840000000  0.5259500000000 1.0
C      1  0.5146390000000  0.5285510000000  0.5645830000000 1.0
C      1  0.5277260000000  0.4534680000000  0.4306290000000 1.0
C      1  0.4757900000000  0.5500740000000  0.4370050000000 1.0
C      1  0.4402690000000  0.5146940000000  0.4840320000000 1.0
C      1  0.4338130000000  0.4956000000000  0.5282100000000 1.0
C      1  0.5637700000000  0.5222530000000  0.5507960000000 1.0
C      1  0.5859500000000  0.5640010000000  0.4624040000000 1.0
C      1  0.5633970000000  0.4595100000000  0.5854600000000 1.0
C      1  0.4604020000000  0.5863060000000  0.5608780000000 1.0
C      1  0.4165450000000  0.4356350000000  0.4611940000000 1.0
C      1  0.5830250000000  0.4383070000000  0.5445780000000 1.0
C      1  0.4187610000000  0.5610120000000  0.5424010000000 1.0
C      1  0.4382220000000  0.5449120000000  0.5836390000000 1.0
C      1  0.5681140000000  0.5455720000000  0.4164990000000 1.0
C      1  0.4363490000000  0.4543490000000  0.4164050000000 1.0
C      1  0.5453550000000  0.4159150000000  0.5657130000000 1.0
C      1  0.4590530000000  0.4174280000000  0.4409600000000 1.0
C      1  0.5450270000000  0.5825060000000  0.4389180000000 1.0
C      1  0.5633320000000  0.5848660000000  0.4623410000000 1.0
C      1  0.4565190000000  0.5675090000000  0.5840430000000 1.0
C      1  0.5860490000000  0.4566160000000  0.5670700000000 1.0
C      1  0.4387010000000  0.4132310000000  0.4615140000000 1.0
C      1  0.4376490000000  0.5830160000000  0.5420980000000 1.0
C      1  0.5667490000000  0.4138490000000  0.5455850000000 1.0
C      1  0.5438110000000  0.4382080000000  0.5851670000000 1.0
C      1  0.5464330000000  0.5656810000000  0.4149500000000 1.0
C      1  0.4573420000000  0.4338990000000  0.4169450000000 1.0
C      1  0.4144690000000  0.5442450000000  0.5656660000000 1.0
C      1  0.4172830000000  0.4550270000000  0.4391200000000 1.0
C      1  0.5832630000000  0.5436650000000  0.4413970000000 1.0
C      1  0.5633280000000  0.4146020000000  0.5165790000000 1.0
C      1  0.4158150000000  0.5145300000000  0.5644620000000 1.0
C      1  0.5175060000000  0.5584700000000  0.4176240000000 1.0
C      1  0.4407960000000  0.5812110000000  0.5139030000000 1.0
C      1  0.5531080000000  0.5736010000000  0.4857520000000 1.0
C      1  0.4454160000000  0.4234430000000  0.4878320000000 1.0
C      1  0.5859260000000  0.4856970000000  0.5630760000000 1.0
C      1  0.4180050000000  0.4845080000000  0.4379110000000 1.0
C      1  0.5735790000000  0.5146710000000  0.4444520000000 1.0
C      1  0.4854980000000  0.4381300000000  0.4161360000000 1.0
C      1  0.5153520000000  0.4429870000000  0.5775670000000 1.0
C      1  0.4848950000000  0.5650760000000  0.5869390000000 1.0
C      1  0.4287420000000  0.5538370000000  0.5143190000000 1.0
C      1  0.5168940000000  0.4194250000000  0.5592410000000 1.0
C      1  0.5633350000000  0.5169600000000  0.4153180000000 1.0
C      1  0.5744820000000  0.4422760000000  0.5158660000000 1.0
C      1  0.5749280000000  0.5546380000000  0.4874600000000 1.0
C      1  0.4261330000000  0.4451020000000  0.4851080000000 1.0
C      1  0.4863840000000  0.5742650000000  0.5584860000000 1.0
C      1  0.4878100000000  0.4280280000000  0.4441520000000 1.0
C      1  0.5160810000000  0.5770130000000  0.4416300000000 1.0
C      1  0.4368450000000  0.4837150000000  0.4162060000000 1.0
C      1  0.4408620000000  0.5154780000000  0.5804980000000 1.0
C      1  0.5604220000000  0.4860270000000  0.5767610000000 1.0
C      1  0.5270310000000  0.4534580000000  0.3860900000000 1.0
C      1  0.4500850000000  0.3924210000000  0.5284190000000 1.0
C      1  0.3977070000000  0.5310040000000  0.4499230000000 1.0
C      1  0.4694120000000  0.5516180000000  0.3937030000000 1.0
C      1  0.5305550000000  0.5496660000000  0.6036980000000 1.0
C      1  0.4718120000000  0.4483870000000  0.6071470000000 1.0
C      1  0.5492130000000  0.6032520000000  0.5280610000000 1.0
C      1  0.4500600000000  0.6028940000000  0.4680230000000 1.0
C      1  0.5514660000000  0.3929880000000  0.4717870000000 1.0
C      1  0.6059700000000  0.4697650000000  0.4523910000000 1.0
C      1  0.3939380000000  0.4699640000000  0.5496160000000 1.0
C      1  0.6054170000000  0.5322960000000  0.5496350000000 1.0
C      1  0.4497700000000  0.5298430000000  0.3944830000000 1.0
C      1  0.3968230000000  0.4482490000000  0.5269990000000 1.0
C      1  0.5297260000000  0.3927970000000  0.4507040000000 1.0
C      1  0.5485500000000  0.4738730000000  0.3857440000000 1.0
C      1  0.5515890000000  0.5280660000000  0.6050200000000 1.0
C      1  0.4509810000000  0.4686760000000  0.6050460000000 1.0
C      1  0.6067470000000  0.5520970000000  0.5279380000000 1.0
C      1  0.6054780000000  0.4470610000000  0.4726760000000 1.0
C      1  0.3961320000000  0.5506260000000  0.4716880000000 1.0
C      1  0.4711260000000  0.6056070000000  0.4475460000000 1.0
C      1  0.4708280000000  0.3933860000000  0.5496440000000 1.0
C      1  0.5282840000000  0.6005320000000  0.5495880000000 1.0
C      1  0.5835900000000  0.5325670000000  0.5690760000000 1.0
C      1  0.5483420000000  0.5659130000000  0.5875570000000 1.0
C      1  0.5683520000000  0.5893200000000  0.5449590000000 1.0
C      1  0.4096450000000  0.4524470000000  0.5670920000000 1.0
C      1  0.5846480000000  0.4565880000000  0.4390240000000 1.0
C      1  0.4126990000000  0.5464160000000  0.4311410000000 1.0
C      1  0.4595270000000  0.4339280000000  0.5838250000000 1.0
C      1  0.5409860000000  0.4399420000000  0.4074610000000 1.0
C      1  0.4666340000000  0.5689150000000  0.4170890000000 1.0
C      1  0.4391790000000  0.4180320000000  0.5408260000000 1.0
C      1  0.5679370000000  0.4102470000000  0.4545800000000 1.0
C      1  0.4330720000000  0.5903370000000  0.4495010000000 1.0
C      1  0.5473040000000  0.5862060000000  0.5662620000000 1.0
C      1  0.5700190000000  0.5462960000000  0.5914530000000 1.0
C      1  0.5818530000000  0.5657380000000  0.5329450000000 1.0
C      1  0.4545110000000  0.4099290000000  0.5662560000000 1.0
C      1  0.4532590000000  0.5921160000000  0.4286540000000 1.0
C      1  0.5442570000000  0.4131530000000  0.4365220000000 1.0
C      1  0.4361470000000  0.4608100000000  0.5808460000000 1.0
C      1  0.4349000000000  0.5329840000000  0.4189490000000 1.0
C      1  0.5615940000000  0.4616490000000  0.4089730000000 1.0
C      1  0.4103430000000  0.4319490000000  0.5463170000000 1.0
C      1  0.4181680000000  0.5659100000000  0.4544390000000 1.0
C      1  0.5873740000000  0.4315240000000  0.4556060000000 1.0
C      1  0.4984850000000  0.4784960000000  0.4556110000000 1.0
C      1  0.4826710000000  0.4559720000000  0.4929080000000 1.0
C      1  0.4587970000000  0.4949190000000  0.4783540000000 1.0
C      1  0.5009750000000  0.5185910000000  0.4613720000000 1.0
C      1  0.4921530000000  0.5256210000000  0.5478130000000 1.0
C      1  0.5020160000000  0.4863220000000  0.5330730000000 1.0
C      1  0.5290700000000  0.5435700000000  0.4886580000000 1.0
C      1  0.4771260000000  0.5443560000000  0.5037390000000 1.0
C      1  0.5265040000000  0.4532800000000  0.5122240000000 1.0
C      1  0.5476680000000  0.5084860000000  0.4650970000000 1.0
C      1  0.4564690000000  0.5088520000000  0.5274410000000 1.0
C      1  0.5439260000000  0.4970530000000  0.5126240000000 1.0
C      1  0.4787540000000  0.5003510000000  0.4584220000000 1.0
C      1  0.4568100000000  0.4692620000000  0.4914120000000 1.0
C      1  0.4919700000000  0.4525000000000  0.4663360000000 1.0
C      1  0.5215180000000  0.4992360000000  0.4556620000000 1.0
C      1  0.5287610000000  0.4951410000000  0.5368430000000 1.0
C      1  0.4786800000000  0.5008290000000  0.5442240000000 1.0
C      1  0.5442840000000  0.5177500000000  0.4922560000000 1.0
C      1  0.5487140000000  0.4702920000000  0.5057090000000 1.0
C      1  0.4513520000000  0.5293220000000  0.5077310000000 1.0
C      1  0.5025070000000  0.5406400000000  0.4773470000000 1.0
C      1  0.4993990000000  0.4589200000000  0.5205120000000 1.0
C      1  0.4877060000000  0.5489450000000  0.5320460000000 1.0
C      1  0.5422350000000  0.4426320000000  0.4735820000000 1.0
C      1  0.4411420000000  0.4722280000000  0.5388590000000 1.0
C      1  0.4427750000000  0.5280550000000  0.4597900000000 1.0
C      1  0.5420110000000  0.5557970000000  0.5320650000000 1.0
C      1  0.4999670000000  0.4995090000000  0.5031860000000 1.0
END
