TITL C-2441156-4686-271 0.0565980355882794 125000 -16726.0386003277 0 0 121 (C1) n - 1
REM
REM in /home/bkarasulu/work/CARBON/AIRSS/Generating-Clusters/ReaxFF-fromJPCA2015/Units_Real/with-SteepDescent/Higher-Symm
REM
REM
REM
REM
REM
REM ./C.cell (1df0a924f5614ab8850e4351716899ee)
REM
REM compiler GCC version 9.2.1 20190827 (Red Hat 9.2.1-1)
REM options -cpp -mtune=generic -march=x86-64 -g -O0 -fpre-include=/usr/include/finclude/math-vector-fortran.h
REM seed -106610181 -143618781 -1037953353 -2071572371 1143052321 -1612696221 860931954 771149789 2139274203 -1650846102 2036608815 -1307810511 116668286 -950365124 -1469071309 -671198377 -1486153557 1677359914 492151667 -1541352759 2034568179 -1307848661 228968622 -1527123166 342593287 1973796575 -1548329424 281013786 386067950 1997844442 -2079568192 746877876 1061893183
REM
CELL 1.54180   50.00000   50.00000   50.00000   90.00000   90.00000   90.00000
LATT -1
SFAC C  
C      1  0.5674480000000  0.5228400000000  0.4489600000000 1.0
C      1  0.5659020000000  0.5528200000000  0.4862760000000 1.0
C      1  0.5629280000000  0.5401320000000  0.5333620000000 1.0
C      1  0.5685110000000  0.5007710000000  0.5551570000000 1.0
C      1  0.5681870000000  0.4566910000000  0.5359370000000 1.0
C      1  0.5629030000000  0.4492750000000  0.4906820000000 1.0
C      1  0.5669640000000  0.4746360000000  0.4502000000000 1.0
C      1  0.4924450000000  0.5157950000000  0.4044290000000 1.0
C      1  0.4929460000000  0.5845990000000  0.4523890000000 1.0
C      1  0.4917610000000  0.5903490000000  0.5369580000000 1.0
C      1  0.4923440000000  0.5258740000000  0.5923440000000 1.0
C      1  0.4920190000000  0.4436730000000  0.5784900000000 1.0
C      1  0.4919880000000  0.4031350000000  0.5051000000000 1.0
C      1  0.4926540000000  0.4354630000000  0.4273500000000 1.0
C      1  0.4493300000000  0.4612370000000  0.4338380000000 1.0
C      1  0.4491750000000  0.5271860000000  0.4280620000000 1.0
C      1  0.4493450000000  0.5737730000000  0.4761990000000 1.0
C      1  0.4508460000000  0.5622910000000  0.5405260000000 1.0
C      1  0.4480360000000  0.5066810000000  0.5777140000000 1.0
C      1  0.4511520000000  0.4451930000000  0.5512860000000 1.0
C      1  0.4491350000000  0.4245320000000  0.4890690000000 1.0
C      1  0.5640020000000  0.5484610000000  0.4370770000000 1.0
C      1  0.5632330000000  0.5776510000000  0.5000760000000 1.0
C      1  0.5640880000000  0.5490300000000  0.5612620000000 1.0
C      1  0.5634110000000  0.4830570000000  0.5768800000000 1.0
C      1  0.5641630000000  0.4283650000000  0.5345100000000 1.0
C      1  0.5622620000000  0.4296250000000  0.4681850000000 1.0
C      1  0.5636560000000  0.4815290000000  0.4226340000000 1.0
C      1  0.4674820000000  0.4252520000000  0.5395100000000 1.0
C      1  0.4673000000000  0.4221100000000  0.4663580000000 1.0
C      1  0.4668110000000  0.4774090000000  0.4172630000000 1.0
C      1  0.4673870000000  0.5493130000000  0.4314880000000 1.0
C      1  0.4671140000000  0.5858980000000  0.4954390000000 1.0
C      1  0.4678460000000  0.5548470000000  0.5629660000000 1.0
C      1  0.4669270000000  0.4848730000000  0.5827130000000 1.0
C      1  0.4158010000000  0.5247850000000  0.5217040000000 1.0
C      1  0.4118780000000  0.4979750000000  0.5332730000000 1.0
C      1  0.4130920000000  0.4731530000000  0.5183950000000 1.0
C      1  0.4111580000000  0.4676820000000  0.4900470000000 1.0
C      1  0.4127810000000  0.4873630000000  0.4677720000000 1.0
C      1  0.4102410000000  0.5169530000000  0.4694710000000 1.0
C      1  0.4129210000000  0.5338910000000  0.4938950000000 1.0
C      1  0.4667860000000  0.5065980000000  0.4152360000000 1.0
C      1  0.4674540000000  0.5702450000000  0.4523550000000 1.0
C      1  0.4670490000000  0.5814430000000  0.5243280000000 1.0
C      1  0.4668750000000  0.5301980000000  0.5790090000000 1.0
C      1  0.4671630000000  0.4573330000000  0.5724040000000 1.0
C      1  0.4669230000000  0.4163140000000  0.5116900000000 1.0
C      1  0.4674220000000  0.4380610000000  0.4416030000000 1.0
C      1  0.5249900000000  0.4557870000000  0.5535330000000 1.0
C      1  0.5212070000000  0.4338930000000  0.5021360000000 1.0
C      1  0.5239920000000  0.4568720000000  0.4481160000000 1.0
C      1  0.5234300000000  0.5122590000000  0.4351120000000 1.0
C      1  0.5251310000000  0.5582490000000  0.4686000000000 1.0
C      1  0.5213360000000  0.5636120000000  0.5281140000000 1.0
C      1  0.5216560000000  0.5179650000000  0.5597680000000 1.0
C      1  0.4521060000000  0.4647900000000  0.4800370000000 1.0
C      1  0.4557580000000  0.4938530000000  0.4654140000000 1.0
C      1  0.4501850000000  0.5226280000000  0.4696060000000 1.0
C      1  0.4543140000000  0.5351170000000  0.4941530000000 1.0
C      1  0.4598340000000  0.5136190000000  0.5362650000000 1.0
C      1  0.4516830000000  0.4861760000000  0.5420330000000 1.0
C      1  0.4585510000000  0.4651520000000  0.5077870000000 1.0
C      1  0.4331420000000  0.4813580000000  0.4473570000000 1.0
C      1  0.4295420000000  0.5292180000000  0.4502860000000 1.0
C      1  0.4330590000000  0.5555870000000  0.4927290000000 1.0
C      1  0.4394530000000  0.5356310000000  0.5362560000000 1.0
C      1  0.4290890000000  0.4944700000000  0.5579450000000 1.0
C      1  0.4381960000000  0.4585090000000  0.5282600000000 1.0
C      1  0.4300020000000  0.4462500000000  0.4812060000000 1.0
C      1  0.4917590000000  0.5422150000000  0.4162240000000 1.0
C      1  0.4920360000000  0.5919990000000  0.4802640000000 1.0
C      1  0.4917220000000  0.5727310000000  0.5602070000000 1.0
C      1  0.4920750000000  0.4971370000000  0.5906970000000 1.0
C      1  0.4909190000000  0.4245740000000  0.5573150000000 1.0
C      1  0.4910960000000  0.4090190000000  0.4770020000000 1.0
C      1  0.4910630000000  0.4604900000000  0.4130100000000 1.0
C      1  0.5375580000000  0.5916040000000  0.5033640000000 1.0
C      1  0.5386470000000  0.5532640000000  0.5744110000000 1.0
C      1  0.5365220000000  0.4772420000000  0.5863740000000 1.0
C      1  0.5383850000000  0.4141350000000  0.5350010000000 1.0
C      1  0.5378320000000  0.4189320000000  0.4573600000000 1.0
C      1  0.5378240000000  0.4834100000000  0.4092230000000 1.0
C      1  0.5383000000000  0.5600810000000  0.4294300000000 1.0
C      1  0.5779910000000  0.5261760000000  0.5527050000000 1.0
C      1  0.5784010000000  0.4752100000000  0.5537200000000 1.0
C      1  0.5771620000000  0.4432260000000  0.5143260000000 1.0
C      1  0.5757160000000  0.4538050000000  0.4654990000000 1.0
C      1  0.5775330000000  0.4984140000000  0.4410350000000 1.0
C      1  0.5770680000000  0.5448260000000  0.4622870000000 1.0
C      1  0.5750220000000  0.5545710000000  0.5117230000000 1.0
C      1  0.4815670000000  0.5317760000000  0.5025980000000 1.0
C      1  0.4865560000000  0.5162350000000  0.5266170000000 1.0
C      1  0.4967970000000  0.4893890000000  0.5281140000000 1.0
C      1  0.4858370000000  0.4710580000000  0.5090720000000 1.0
C      1  0.4943490000000  0.4740980000000  0.4817670000000 1.0
C      1  0.4844370000000  0.4965630000000  0.4682310000000 1.0
C      1  0.4929700000000  0.5216330000000  0.4783980000000 1.0
C      1  0.5177820000000  0.5785690000000  0.4874870000000 1.0
C      1  0.5193890000000  0.5647420000000  0.5573700000000 1.0
C      1  0.5162470000000  0.4934970000000  0.5734550000000 1.0
C      1  0.5186220000000  0.4284740000000  0.5495980000000 1.0
C      1  0.5167060000000  0.4226680000000  0.4763790000000 1.0
C      1  0.5176370000000  0.4690650000000  0.4233950000000 1.0
C      1  0.5180700000000  0.5397940000000  0.4287170000000 1.0
C      1  0.5190050000000  0.5927190000000  0.5253500000000 1.0
C      1  0.5201430000000  0.5332340000000  0.5833040000000 1.0
C      1  0.5201730000000  0.4536910000000  0.5815620000000 1.0
C      1  0.5198820000000  0.4083850000000  0.5141510000000 1.0
C      1  0.5210240000000  0.4309600000000  0.4371910000000 1.0
C      1  0.5204660000000  0.5058610000000  0.4067250000000 1.0
C      1  0.5213410000000  0.5759730000000  0.4468650000000 1.0
C      1  0.5221460000000  0.4746100000000  0.4725830000000 1.0
C      1  0.5264970000000  0.5036040000000  0.4614840000000 1.0
C      1  0.5210340000000  0.5293210000000  0.4763970000000 1.0
C      1  0.5217400000000  0.5414790000000  0.5109860000000 1.0
C      1  0.5299490000000  0.5223150000000  0.5309390000000 1.0
C      1  0.5212600000000  0.4733760000000  0.5303500000000 1.0
C      1  0.5301750000000  0.4613350000000  0.5037230000000 1.0
C      1  0.5534350000000  0.4989070000000  0.4963840000000 1.0
C      1  0.5316920000000  0.5026490000000  0.5066780000000 1.0
END
