TITL C-2441164-471-1483 0.00528040220013579 125000 -6102.181134066 0 0 45 (C1) n - 1
REM
REM in /home/bkarasulu/work/CARBON/AIRSS/Generating-Clusters/ReaxFF-fromJPCA2015/Units_Real/with-SteepDescent/Higher-Symm
REM
REM
REM
REM
REM
REM ./C.cell (1df0a924f5614ab8850e4351716899ee)
REM
REM compiler GCC version 9.2.1 20190827 (Red Hat 9.2.1-1)
REM options -cpp -mtune=generic -march=x86-64 -g -O0 -fpre-include=/usr/include/finclude/math-vector-fortran.h
REM seed 595299078 1276041580 -1932749828 -1071385959 671993662 -396117372 -1045943138 -1894660515 1232965562 545354172 2134380320 688772406 474835971 -1927028405 1634472810 -1423551748 812766513 -1104915458 -998059069 -836774988 1013079028 -1413071102 -493904527 1853356244 432309593 -1091473113 1934865258 -1796744617 1570574300 1837938656 -699744320 -1883824967 375597177
REM
CELL 1.54180   50.00000   50.00000   50.00000   90.00000   90.00000   90.00000
LATT -1
SFAC C  
C      1  0.4457250000000  0.5416310000000  0.4889540000000 1.0
C      1  0.5513020000000  0.4582790000000  0.5114820000000 1.0
C      1  0.4409040000000  0.4782920000000  0.5223810000000 1.0
C      1  0.5587000000000  0.5266240000000  0.4751360000000 1.0
C      1  0.4651310000000  0.4897830000000  0.4367360000000 1.0
C      1  0.5325000000000  0.5035990000000  0.5567740000000 1.0
C      1  0.4652650000000  0.5556420000000  0.5078650000000 1.0
C      1  0.5314550000000  0.4459220000000  0.4926230000000 1.0
C      1  0.5082660000000  0.4594730000000  0.5363710000000 1.0
C      1  0.4931000000000  0.5364070000000  0.4779160000000 1.0
C      1  0.4588620000000  0.4592930000000  0.4846160000000 1.0
C      1  0.5374660000000  0.5394380000000  0.5143400000000 1.0
C      1  0.4820560000000  0.4906990000000  0.5462300000000 1.0
C      1  0.5210030000000  0.5118670000000  0.4485790000000 1.0
C      1  0.5254570000000  0.4898590000000  0.4657780000000 1.0
C      1  0.4790720000000  0.5088920000000  0.5220550000000 1.0
C      1  0.5353510000000  0.5348110000000  0.4597940000000 1.0
C      1  0.4627470000000  0.4688030000000  0.5395110000000 1.0
C      1  0.5019420000000  0.4442720000000  0.4627920000000 1.0
C      1  0.4944340000000  0.5568960000000  0.5375150000000 1.0
C      1  0.5172340000000  0.5522110000000  0.4751800000000 1.0
C      1  0.4821350000000  0.4518700000000  0.5267270000000 1.0
C      1  0.4697290000000  0.5539080000000  0.4791360000000 1.0
C      1  0.5285850000000  0.4441410000000  0.5221850000000 1.0
C      1  0.5046730000000  0.4384320000000  0.4862810000000 1.0
C      1  0.4919440000000  0.5643090000000  0.5151220000000 1.0
C      1  0.5265170000000  0.4860280000000  0.5395620000000 1.0
C      1  0.4649910000000  0.5009230000000  0.4603570000000 1.0
C      1  0.4715360000000  0.4852700000000  0.4856590000000 1.0
C      1  0.5255140000000  0.5153770000000  0.5047300000000 1.0
C      1  0.4587700000000  0.4967610000000  0.5096940000000 1.0
C      1  0.5464320000000  0.5007570000000  0.4838360000000 1.0
C      1  0.5184640000000  0.5598970000000  0.5038260000000 1.0
C      1  0.4790560000000  0.4425040000000  0.4978990000000 1.0
C      1  0.5664410000000  0.5018520000000  0.5073750000000 1.0
C      1  0.4260110000000  0.4950430000000  0.4878300000000 1.0
C      1  0.4327720000000  0.4683990000000  0.4957290000000 1.0
C      1  0.5640120000000  0.5311450000000  0.5040660000000 1.0
C      1  0.4826070000000  0.5150800000000  0.5613150000000 1.0
C      1  0.5214330000000  0.4836920000000  0.4370730000000 1.0
C      1  0.5544710000000  0.4833130000000  0.5260750000000 1.0
C      1  0.4403040000000  0.5164060000000  0.4756160000000 1.0
C      1  0.5091460000000  0.4596570000000  0.4438760000000 1.0
C      1  0.4889730000000  0.5382930000000  0.5534900000000 1.0
C      1  0.4971760000000  0.5151520000000  0.4988630000000 1.0
END
