TITL C-2441160-1326-374 0.0819410261669768 125000 -16616.3559423727 0 0 129 (C1) n - 1
REM
REM in /home/bkarasulu/work/CARBON/AIRSS/Generating-Clusters/ReaxFF-fromJPCA2015/Units_Real/with-SteepDescent/Higher-Symm
REM
REM
REM
REM
REM
REM ./C.cell (1df0a924f5614ab8850e4351716899ee)
REM
REM compiler GCC version 9.2.1 20190827 (Red Hat 9.2.1-1)
REM options -cpp -mtune=generic -march=x86-64 -g -O0 -fpre-include=/usr/include/finclude/math-vector-fortran.h
REM seed -498960279 -1625057634 243706008 -1756313520 -2082400615 -1021367671 -1427581531 -930838480 1897285511 -1678900876 -667450213 701087186 -1626589496 -1273115343 -316849968 953297742 -1175999577 -47868280 1362480276 1630218931 1099737465 1364394794 -19583630 481354016 54400337 -499427660 -1613747263 -1642280857 -1964360222 596342965 928518150 1061406300 -1844229974
REM
CELL 1.54180   50.00000   50.00000   50.00000   90.00000   90.00000   90.00000
LATT -1
SFAC C  
C      1  0.5266030000000  0.4789140000000  0.4600730000000 1.0
C      1  0.5001480000000  0.4705070000000  0.4540070000000 1.0
C      1  0.4736710000000  0.4794490000000  0.4598010000000 1.0
C      1  0.4733880000000  0.5074570000000  0.4539250000000 1.0
C      1  0.4862540000000  0.5305330000000  0.4649940000000 1.0
C      1  0.5153710000000  0.5298900000000  0.4584950000000 1.0
C      1  0.5310070000000  0.5072400000000  0.4660560000000 1.0
C      1  0.5345480000000  0.5175760000000  0.5310850000000 1.0
C      1  0.5371680000000  0.4875280000000  0.5286580000000 1.0
C      1  0.5181580000000  0.4674150000000  0.5364220000000 1.0
C      1  0.4690420000000  0.4734230000000  0.5308360000000 1.0
C      1  0.4608470000000  0.5006550000000  0.5293160000000 1.0
C      1  0.4789200000000  0.5294570000000  0.5346590000000 1.0
C      1  0.5081410000000  0.5357510000000  0.5312290000000 1.0
C      1  0.5847720000000  0.4819670000000  0.5451430000000 1.0
C      1  0.5438500000000  0.4246130000000  0.5463540000000 1.0
C      1  0.4684260000000  0.4190330000000  0.5467880000000 1.0
C      1  0.4173400000000  0.4738560000000  0.5445220000000 1.0
C      1  0.4284320000000  0.5494720000000  0.5464500000000 1.0
C      1  0.4947230000000  0.5868340000000  0.5458030000000 1.0
C      1  0.5634620000000  0.5585420000000  0.5445050000000 1.0
C      1  0.5492260000000  0.5192500000000  0.5663020000000 1.0
C      1  0.5496310000000  0.4721480000000  0.5729810000000 1.0
C      1  0.5105830000000  0.4483280000000  0.5663130000000 1.0
C      1  0.4664890000000  0.4614220000000  0.5617070000000 1.0
C      1  0.4467760000000  0.5028390000000  0.5679310000000 1.0
C      1  0.4701700000000  0.5425350000000  0.5666490000000 1.0
C      1  0.5155530000000  0.5517530000000  0.5689980000000 1.0
C      1  0.4971710000000  0.5828720000000  0.4580130000000 1.0
C      1  0.5649030000000  0.5527010000000  0.4549820000000 1.0
C      1  0.5813500000000  0.4839410000000  0.4583090000000 1.0
C      1  0.5388840000000  0.4253380000000  0.4555320000000 1.0
C      1  0.4665510000000  0.4249910000000  0.4574750000000 1.0
C      1  0.4203810000000  0.4769660000000  0.4534440000000 1.0
C      1  0.4359930000000  0.5505800000000  0.4567990000000 1.0
C      1  0.4834250000000  0.4656200000000  0.5064940000000 1.0
C      1  0.4632480000000  0.5064550000000  0.5005750000000 1.0
C      1  0.4769740000000  0.5323040000000  0.5038340000000 1.0
C      1  0.5068230000000  0.5350970000000  0.5014640000000 1.0
C      1  0.5315530000000  0.5174240000000  0.5011580000000 1.0
C      1  0.5333500000000  0.4856080000000  0.5001200000000 1.0
C      1  0.5130590000000  0.4631860000000  0.5082200000000 1.0
C      1  0.5473160000000  0.4615680000000  0.4169330000000 1.0
C      1  0.4993830000000  0.4401770000000  0.4184430000000 1.0
C      1  0.4528670000000  0.4626830000000  0.4147860000000 1.0
C      1  0.4413530000000  0.5132340000000  0.4194040000000 1.0
C      1  0.4751330000000  0.5541330000000  0.4172760000000 1.0
C      1  0.5266760000000  0.5533880000000  0.4168210000000 1.0
C      1  0.5585650000000  0.5117730000000  0.4166520000000 1.0
C      1  0.5886380000000  0.4532250000000  0.5457130000000 1.0
C      1  0.5218710000000  0.4057960000000  0.5447180000000 1.0
C      1  0.4402040000000  0.4253160000000  0.5468940000000 1.0
C      1  0.4039110000000  0.4997410000000  0.5446440000000 1.0
C      1  0.4404800000000  0.5759610000000  0.5456800000000 1.0
C      1  0.5228120000000  0.5941040000000  0.5472590000000 1.0
C      1  0.5863440000000  0.5401140000000  0.5477260000000 1.0
C      1  0.4513050000000  0.5661900000000  0.4786540000000 1.0
C      1  0.5211670000000  0.5785960000000  0.4776980000000 1.0
C      1  0.5761230000000  0.5339590000000  0.4773200000000 1.0
C      1  0.5728320000000  0.4620070000000  0.4791630000000 1.0
C      1  0.5157930000000  0.4207200000000  0.4787160000000 1.0
C      1  0.4472480000000  0.4381690000000  0.4771840000000 1.0
C      1  0.4203600000000  0.5049400000000  0.4792760000000 1.0
C      1  0.4233990000000  0.4660440000000  0.5052700000000 1.0
C      1  0.4252170000000  0.5395000000000  0.5073990000000 1.0
C      1  0.4841370000000  0.5851120000000  0.5071880000000 1.0
C      1  0.5543280000000  0.5648880000000  0.5052660000000 1.0
C      1  0.5840420000000  0.4981300000000  0.5070530000000 1.0
C      1  0.5515100000000  0.4320790000000  0.5068900000000 1.0
C      1  0.4786770000000  0.4181740000000  0.5067600000000 1.0
C      1  0.4764730000000  0.5794890000000  0.4793850000000 1.0
C      1  0.5459060000000  0.5659470000000  0.4781740000000 1.0
C      1  0.5810020000000  0.5063730000000  0.4784880000000 1.0
C      1  0.5558610000000  0.4401880000000  0.4795540000000 1.0
C      1  0.4878810000000  0.4199730000000  0.4789330000000 1.0
C      1  0.4299580000000  0.4607050000000  0.4775400000000 1.0
C      1  0.4257750000000  0.5312990000000  0.4794620000000 1.0
C      1  0.5786370000000  0.5021990000000  0.4349580000000 1.0
C      1  0.5529100000000  0.4422070000000  0.4369280000000 1.0
C      1  0.4865490000000  0.4221470000000  0.4358350000000 1.0
C      1  0.4331910000000  0.4600830000000  0.4347810000000 1.0
C      1  0.4270270000000  0.5308820000000  0.4361560000000 1.0
C      1  0.4794310000000  0.5740160000000  0.4368790000000 1.0
C      1  0.5463300000000  0.5641640000000  0.4344080000000 1.0
C      1  0.5635990000000  0.4519760000000  0.5260480000000 1.0
C      1  0.5015900000000  0.4207040000000  0.5258030000000 1.0
C      1  0.4357480000000  0.4455980000000  0.5234510000000 1.0
C      1  0.4220010000000  0.5167040000000  0.5258360000000 1.0
C      1  0.4637920000000  0.5721090000000  0.5252960000000 1.0
C      1  0.5337570000000  0.5751900000000  0.5247250000000 1.0
C      1  0.5810220000000  0.5228810000000  0.5229050000000 1.0
C      1  0.5445130000000  0.5488360000000  0.5631410000000 1.0
C      1  0.5659340000000  0.4940450000000  0.5631010000000 1.0
C      1  0.5401730000000  0.4455160000000  0.5651130000000 1.0
C      1  0.4835050000000  0.4371220000000  0.5616340000000 1.0
C      1  0.4387820000000  0.4750930000000  0.5625480000000 1.0
C      1  0.4421960000000  0.5317220000000  0.5634410000000 1.0
C      1  0.4902390000000  0.5656410000000  0.5638240000000 1.0
C      1  0.4684290000000  0.5017980000000  0.5866140000000 1.0
C      1  0.4816700000000  0.5254400000000  0.5867340000000 1.0
C      1  0.5092940000000  0.5299990000000  0.5875950000000 1.0
C      1  0.5301770000000  0.5116250000000  0.5859900000000 1.0
C      1  0.5290190000000  0.4843640000000  0.5884540000000 1.0
C      1  0.5063420000000  0.4680800000000  0.5868690000000 1.0
C      1  0.4793890000000  0.4760570000000  0.5853610000000 1.0
C      1  0.5196540000000  0.5565370000000  0.4436040000000 1.0
C      1  0.5664750000000  0.5271360000000  0.4378620000000 1.0
C      1  0.5526640000000  0.4677380000000  0.4446320000000 1.0
C      1  0.5140250000000  0.4276930000000  0.4383090000000 1.0
C      1  0.4584640000000  0.4564130000000  0.4429660000000 1.0
C      1  0.4262330000000  0.5026950000000  0.4395140000000 1.0
C      1  0.4680940000000  0.5504660000000  0.4451750000000 1.0
C      1  0.5746800000000  0.5434920000000  0.5036270000000 1.0
C      1  0.5786430000000  0.4688130000000  0.5067920000000 1.0
C      1  0.5233470000000  0.4210260000000  0.5055680000000 1.0
C      1  0.4521180000000  0.4309540000000  0.5041470000000 1.0
C      1  0.4184710000000  0.4959540000000  0.5054050000000 1.0
C      1  0.4450550000000  0.5610440000000  0.5054000000000 1.0
C      1  0.5136750000000  0.5823690000000  0.5049080000000 1.0
C      1  0.5154220000000  0.5284990000000  0.4108470000000 1.0
C      1  0.5316510000000  0.5060010000000  0.4118960000000 1.0
C      1  0.5251440000000  0.4791900000000  0.4108080000000 1.0
C      1  0.4991280000000  0.4691810000000  0.4209130000000 1.0
C      1  0.4746680000000  0.4808710000000  0.4108490000000 1.0
C      1  0.4701120000000  0.5074790000000  0.4206770000000 1.0
C      1  0.4878770000000  0.5292700000000  0.4100930000000 1.0
C      1  0.5026650000000  0.4943290000000  0.5486530000000 1.0
C      1  0.4885040000000  0.4927300000000  0.4944000000000 1.0
C      1  0.4988060000000  0.4979870000000  0.5207920000000 1.0
END
