TITL C-2441163-1170-421 0.0134982574890684 125000 -15356.703631047 0 0 105 (C1) n - 1
REM
REM in /home/bkarasulu/work/CARBON/AIRSS/Generating-Clusters/ReaxFF-fromJPCA2015/Units_Real/with-SteepDescent/Higher-Symm
REM
REM
REM
REM
REM
REM ./C.cell (1df0a924f5614ab8850e4351716899ee)
REM
REM compiler GCC version 9.2.1 20190827 (Red Hat 9.2.1-1)
REM options -cpp -mtune=generic -march=x86-64 -g -O0 -fpre-include=/usr/include/finclude/math-vector-fortran.h
REM seed -2054894556 -858150772 204659681 -200156696 1017994186 -597927822 -90186400 73593261 1381043676 1811053322 105477284 -664449344 -395279029 1421791123 -153483921 458804288 -1922622028 260279677 581464415 1234518649 -47453213 1088689435 -652476536 577037901 1391655053 2005813267 1143250529 459760128 -1980478828 632268642 -1083490894 837621376 -132787974
REM
CELL 1.54180   50.00000   50.00000   50.00000   90.00000   90.00000   90.00000
LATT -1
SFAC C  
C      1  0.4324920000000  0.5406300000000  0.4831110000000 1.0
C      1  0.5202490000000  0.5375000000000  0.5616460000000 1.0
C      1  0.5423790000000  0.5360290000000  0.4522590000000 1.0
C      1  0.5240710000000  0.5569400000000  0.4408830000000 1.0
C      1  0.4355700000000  0.5584090000000  0.5064430000000 1.0
C      1  0.5392970000000  0.5582440000000  0.5520110000000 1.0
C      1  0.5187200000000  0.5770830000000  0.4608090000000 1.0
C      1  0.4563080000000  0.5789370000000  0.5044760000000 1.0
C      1  0.5264550000000  0.5772760000000  0.5341240000000 1.0
C      1  0.5266960000000  0.5099600000000  0.5783520000000 1.0
C      1  0.5533150000000  0.5095400000000  0.4384050000000 1.0
C      1  0.4179700000000  0.5123230000000  0.4833320000000 1.0
C      1  0.4768360000000  0.4438960000000  0.4267570000000 1.0
C      1  0.4473650000000  0.4438000000000  0.5569310000000 1.0
C      1  0.5752600000000  0.4445730000000  0.5172990000000 1.0
C      1  0.5081270000000  0.4255870000000  0.5421050000000 1.0
C      1  0.5325030000000  0.4261470000000  0.4719590000000 1.0
C      1  0.4589950000000  0.4258390000000  0.4865280000000 1.0
C      1  0.4917640000000  0.4650330000000  0.5256500000000 1.0
C      1  0.5290990000000  0.4651590000000  0.4957480000000 1.0
C      1  0.4824590000000  0.4632530000000  0.4801860000000 1.0
C      1  0.4562190000000  0.5500560000000  0.4367240000000 1.0
C      1  0.4676510000000  0.5478620000000  0.5663650000000 1.0
C      1  0.5630550000000  0.5359930000000  0.5053290000000 1.0
C      1  0.5038440000000  0.4349640000000  0.4333730000000 1.0
C      1  0.4394520000000  0.4353050000000  0.5301750000000 1.0
C      1  0.5560180000000  0.4350350000000  0.5369470000000 1.0
C      1  0.5372460000000  0.5000180000000  0.4160450000000 1.0
C      1  0.4090720000000  0.5012830000000  0.5095280000000 1.0
C      1  0.5542380000000  0.4997220000000  0.5743450000000 1.0
C      1  0.4803940000000  0.4958180000000  0.5231150000000 1.0
C      1  0.5363510000000  0.4891980000000  0.5093420000000 1.0
C      1  0.4900320000000  0.4872600000000  0.4655760000000 1.0
C      1  0.5024500000000  0.5162840000000  0.5174030000000 1.0
C      1  0.5094580000000  0.5302230000000  0.4915700000000 1.0
C      1  0.4822960000000  0.5321410000000  0.4863320000000 1.0
C      1  0.5078730000000  0.5061170000000  0.4083380000000 1.0
C      1  0.4169380000000  0.5064520000000  0.5389410000000 1.0
C      1  0.5754060000000  0.5059760000000  0.5525960000000 1.0
C      1  0.4394510000000  0.4924540000000  0.5517780000000 1.0
C      1  0.5773270000000  0.4938210000000  0.5262870000000 1.0
C      1  0.4848740000000  0.4926060000000  0.4204480000000 1.0
C      1  0.5294640000000  0.4478980000000  0.4266590000000 1.0
C      1  0.4210590000000  0.4485800000000  0.5111710000000 1.0
C      1  0.5490040000000  0.4474630000000  0.5627070000000 1.0
C      1  0.5598220000000  0.5547640000000  0.4706850000000 1.0
C      1  0.4478250000000  0.5573390000000  0.4625020000000 1.0
C      1  0.4936630000000  0.5549220000000  0.5608780000000 1.0
C      1  0.5795040000000  0.5386460000000  0.4840840000000 1.0
C      1  0.4452770000000  0.5299340000000  0.4318970000000 1.0
C      1  0.4676690000000  0.5300230000000  0.5818700000000 1.0
C      1  0.5553570000000  0.4731040000000  0.5685840000000 1.0
C      1  0.5315290000000  0.4732640000000  0.4178380000000 1.0
C      1  0.4129860000000  0.4743950000000  0.5130090000000 1.0
C      1  0.4739100000000  0.5002170000000  0.4460480000000 1.0
C      1  0.4662690000000  0.5034640000000  0.5503100000000 1.0
C      1  0.5613830000000  0.5058540000000  0.5045520000000 1.0
C      1  0.4778080000000  0.5502460000000  0.4179130000000 1.0
C      1  0.4404910000000  0.5503350000000  0.5591930000000 1.0
C      1  0.5790550000000  0.5481710000000  0.5232610000000 1.0
C      1  0.5298810000000  0.4915920000000  0.5362940000000 1.0
C      1  0.5173230000000  0.4939790000000  0.4599770000000 1.0
C      1  0.4589970000000  0.4952710000000  0.5046890000000 1.0
C      1  0.5065440000000  0.4225390000000  0.4596360000000 1.0
C      1  0.4612760000000  0.4235440000000  0.5151360000000 1.0
C      1  0.5318880000000  0.4228290000000  0.5257590000000 1.0
C      1  0.4525290000000  0.4577880000000  0.4362420000000 1.0
C      1  0.4683900000000  0.4572490000000  0.5730800000000 1.0
C      1  0.5793300000000  0.4580760000000  0.4910360000000 1.0
C      1  0.4656060000000  0.5774760000000  0.4745860000000 1.0
C      1  0.4958570000000  0.5771930000000  0.5420850000000 1.0
C      1  0.5425930000000  0.5756650000000  0.4817130000000 1.0
C      1  0.4586290000000  0.5208270000000  0.4897270000000 1.0
C      1  0.5208820000000  0.5190050000000  0.5386460000000 1.0
C      1  0.5249390000000  0.5197820000000  0.4689640000000 1.0
C      1  0.5166880000000  0.4459130000000  0.5630940000000 1.0
C      1  0.5459530000000  0.4480350000000  0.4548930000000 1.0
C      1  0.4382710000000  0.4483860000000  0.4841490000000 1.0
C      1  0.4922680000000  0.5781850000000  0.4683160000000 1.0
C      1  0.4762260000000  0.5789800000000  0.5232850000000 1.0
C      1  0.5343150000000  0.5772830000000  0.5077810000000 1.0
C      1  0.5282080000000  0.4690210000000  0.4680150000000 1.0
C      1  0.4586180000000  0.4693450000000  0.4934450000000 1.0
C      1  0.5148180000000  0.4676130000000  0.5403090000000 1.0
C      1  0.5056040000000  0.5548090000000  0.4208300000000 1.0
C      1  0.4296310000000  0.5533880000000  0.5329930000000 1.0
C      1  0.5664950000000  0.5560970000000  0.5471920000000 1.0
C      1  0.5776040000000  0.5098720000000  0.4789310000000 1.0
C      1  0.4445870000000  0.5035600000000  0.4417280000000 1.0
C      1  0.4776630000000  0.5041370000000  0.5771300000000 1.0
C      1  0.5043950000000  0.4916280000000  0.5834310000000 1.0
C      1  0.5701770000000  0.4936570000000  0.4560080000000 1.0
C      1  0.4253760000000  0.4932350000000  0.4624000000000 1.0
C      1  0.4425700000000  0.4688090000000  0.5671050000000 1.0
C      1  0.5866800000000  0.4697640000000  0.5165890000000 1.0
C      1  0.4704350000000  0.4688400000000  0.4166730000000 1.0
C      1  0.4354630000000  0.4659450000000  0.4582740000000 1.0
C      1  0.4960300000000  0.4640800000000  0.5774920000000 1.0
C      1  0.5693030000000  0.4654900000000  0.4653530000000 1.0
C      1  0.5313470000000  0.4358550000000  0.4989930000000 1.0
C      1  0.4836470000000  0.4346950000000  0.4745210000000 1.0
C      1  0.4854090000000  0.4368990000000  0.5276980000000 1.0
C      1  0.4191350000000  0.5334560000000  0.5487360000000 1.0
C      1  0.5828380000000  0.5338110000000  0.5485700000000 1.0
C      1  0.4979370000000  0.5330240000000  0.4057610000000 1.0
END
