TITL C-2441163-1170-1111 0.000251079394530474 125000 -1149.62842731178 0 0 10 (C1) n - 1
REM
REM in /home/bkarasulu/work/CARBON/AIRSS/Generating-Clusters/ReaxFF-fromJPCA2015/Units_Real/with-SteepDescent/Higher-Symm
REM
REM
REM
REM
REM
REM ./C.cell (1df0a924f5614ab8850e4351716899ee)
REM
REM compiler GCC version 9.2.1 20190827 (Red Hat 9.2.1-1)
REM options -cpp -mtune=generic -march=x86-64 -g -O0 -fpre-include=/usr/include/finclude/math-vector-fortran.h
REM seed 2117234131 732303822 -986439023 -529054959 -1050369011 1144474337 -792457149 816100647 -693021967 1805852494 -1743447058 1889215277 2048198400 429690445 -1851924271 1054421316 -917372397 1400520469 1900431951 -1794866596 -2073539189 -639123280 -566167035 -508491751 -1940072064 1807980088 -971549596 -261827748 1360137167 1963524523 748783715 -485905728 1217002732
REM
CELL 1.54180   50.00000   50.00000   50.00000   90.00000   90.00000   90.00000
LATT -1
SFAC C  
C      1  0.4887760000000  0.4572980000000  0.4845640000000 1.0
C      1  0.4877260000000  0.5253390000000  0.4882460000000 1.0
C      1  0.5389490000000  0.5133280000000  0.4837160000000 1.0
C      1  0.4902140000000  0.5488010000000  0.5050670000000 1.0
C      1  0.4761330000000  0.4765130000000  0.5018970000000 1.0
C      1  0.5246670000000  0.4928230000000  0.4989340000000 1.0
C      1  0.5525820000000  0.5011240000000  0.4971670000000 1.0
C      1  0.4691330000000  0.5458170000000  0.4969890000000 1.0
C      1  0.4709380000000  0.4487730000000  0.4960960000000 1.0
C      1  0.4959510000000  0.4979660000000  0.4969290000000 1.0
END
