TITL C-2441165-58-1046 0.0511580451365094 125000 -10409.1728665782 0 0 82 (C1) n - 1
REM
REM in /home/bkarasulu/work/CARBON/AIRSS/Generating-Clusters/ReaxFF-fromJPCA2015/Units_Real/with-SteepDescent/Higher-Symm
REM
REM
REM
REM
REM
REM ./C.cell (1df0a924f5614ab8850e4351716899ee)
REM
REM compiler GCC version 9.2.1 20190827 (Red Hat 9.2.1-1)
REM options -cpp -mtune=generic -march=x86-64 -g -O0 -fpre-include=/usr/include/finclude/math-vector-fortran.h
REM seed 1134528165 -1301878855 1365559586 -1120270695 -201119396 1628641398 1749618190 514071854 1370409304 1409549490 -837174867 -2089715592 1187416412 -1157761837 870738992 -1038370110 -358739970 1564384420 1764313000 -1557739828 -1483292734 962006262 -1793301503 485780408 -1720853164 1676579911 -841933811 -251970596 1353185478 377979888 -577633250 842292493 344589004
REM
CELL 1.54180   50.00000   50.00000   50.00000   90.00000   90.00000   90.00000
LATT -1
SFAC C  
C      1  0.5143160000000  0.4499310000000  0.4750680000000 1.0
C      1  0.4845340000000  0.4498920000000  0.4748690000000 1.0
C      1  0.5672070000000  0.5399300000000  0.4970760000000 1.0
C      1  0.4329810000000  0.5393960000000  0.4963270000000 1.0
C      1  0.4256920000000  0.4659980000000  0.4980720000000 1.0
C      1  0.5743120000000  0.4661000000000  0.4979640000000 1.0
C      1  0.5147310000000  0.4829750000000  0.4279520000000 1.0
C      1  0.4860780000000  0.4822330000000  0.4269130000000 1.0
C      1  0.5567950000000  0.4763900000000  0.4412980000000 1.0
C      1  0.4426990000000  0.4765360000000  0.4406770000000 1.0
C      1  0.4584610000000  0.5162690000000  0.5671130000000 1.0
C      1  0.5416890000000  0.5164310000000  0.5675340000000 1.0
C      1  0.4365020000000  0.4843000000000  0.5412340000000 1.0
C      1  0.5629950000000  0.4840710000000  0.5412600000000 1.0
C      1  0.4852210000000  0.5224710000000  0.5760060000000 1.0
C      1  0.5147710000000  0.5221840000000  0.5765830000000 1.0
C      1  0.5570860000000  0.5308480000000  0.5471780000000 1.0
C      1  0.4425220000000  0.5310210000000  0.5472620000000 1.0
C      1  0.5461870000000  0.5244310000000  0.5088590000000 1.0
C      1  0.4541570000000  0.5240580000000  0.5090370000000 1.0
C      1  0.4860500000000  0.4902290000000  0.5267790000000 1.0
C      1  0.5138940000000  0.4946760000000  0.5260290000000 1.0
C      1  0.4852630000000  0.4515160000000  0.5430160000000 1.0
C      1  0.5146060000000  0.4521030000000  0.5424470000000 1.0
C      1  0.4734170000000  0.4824460000000  0.5020020000000 1.0
C      1  0.5268610000000  0.4820890000000  0.5019340000000 1.0
C      1  0.5362440000000  0.5659090000000  0.4876290000000 1.0
C      1  0.4631480000000  0.5664570000000  0.4874790000000 1.0
C      1  0.5148160000000  0.4718530000000  0.5632030000000 1.0
C      1  0.4853770000000  0.4710310000000  0.5646350000000 1.0
C      1  0.4564700000000  0.5561260000000  0.5371540000000 1.0
C      1  0.5431300000000  0.5558340000000  0.5370940000000 1.0
C      1  0.5729230000000  0.5175090000000  0.4775940000000 1.0
C      1  0.4269550000000  0.5166590000000  0.4776740000000 1.0
C      1  0.5550970000000  0.4659060000000  0.4795370000000 1.0
C      1  0.4440220000000  0.4679900000000  0.4789380000000 1.0
C      1  0.4692840000000  0.5414330000000  0.4681330000000 1.0
C      1  0.5312600000000  0.5409970000000  0.4682940000000 1.0
C      1  0.5142990000000  0.5200140000000  0.4841620000000 1.0
C      1  0.4862600000000  0.5203800000000  0.4844240000000 1.0
C      1  0.5624480000000  0.4554400000000  0.4604380000000 1.0
C      1  0.4368160000000  0.4561320000000  0.4601980000000 1.0
C      1  0.4743660000000  0.4343730000000  0.4981550000000 1.0
C      1  0.5253380000000  0.4344700000000  0.4983280000000 1.0
C      1  0.4848940000000  0.4065450000000  0.4953770000000 1.0
C      1  0.5150890000000  0.4065870000000  0.4953400000000 1.0
C      1  0.5348970000000  0.4911940000000  0.5529760000000 1.0
C      1  0.4651400000000  0.4903940000000  0.5527060000000 1.0
C      1  0.4853120000000  0.4408380000000  0.4467300000000 1.0
C      1  0.5144270000000  0.4413440000000  0.4468700000000 1.0
C      1  0.4449840000000  0.5631460000000  0.5097510000000 1.0
C      1  0.5547010000000  0.5633600000000  0.5098930000000 1.0
C      1  0.5204510000000  0.5304880000000  0.5114350000000 1.0
C      1  0.4796880000000  0.5324150000000  0.5110630000000 1.0
C      1  0.5738510000000  0.5094930000000  0.5332580000000 1.0
C      1  0.4262040000000  0.5097660000000  0.5338270000000 1.0
C      1  0.5148740000000  0.5110640000000  0.4304410000000 1.0
C      1  0.4859770000000  0.5114910000000  0.4299400000000 1.0
C      1  0.4417960000000  0.4969030000000  0.4622530000000 1.0
C      1  0.5599150000000  0.4998240000000  0.4596840000000 1.0
C      1  0.5351430000000  0.4465330000000  0.5232450000000 1.0
C      1  0.4646190000000  0.4461020000000  0.5235660000000 1.0
C      1  0.5496760000000  0.5000550000000  0.5045740000000 1.0
C      1  0.4513710000000  0.4996960000000  0.5051320000000 1.0
C      1  0.5314650000000  0.4617730000000  0.4340960000000 1.0
C      1  0.4675310000000  0.4611670000000  0.4333090000000 1.0
C      1  0.5302550000000  0.5327350000000  0.4398880000000 1.0
C      1  0.4696640000000  0.5330540000000  0.4395760000000 1.0
C      1  0.5141550000000  0.5602000000000  0.5050930000000 1.0
C      1  0.4857920000000  0.5616130000000  0.5049050000000 1.0
C      1  0.5152080000000  0.5611610000000  0.5465790000000 1.0
C      1  0.4843700000000  0.5612090000000  0.5466000000000 1.0
C      1  0.5787120000000  0.4981400000000  0.5023620000000 1.0
C      1  0.4226510000000  0.4986020000000  0.5028300000000 1.0
C      1  0.5134950000000  0.5539560000000  0.4481880000000 1.0
C      1  0.4860710000000  0.5536570000000  0.4482870000000 1.0
C      1  0.5604030000000  0.4610650000000  0.5236930000000 1.0
C      1  0.4394630000000  0.4611480000000  0.5236710000000 1.0
C      1  0.5147570000000  0.4908210000000  0.4766300000000 1.0
C      1  0.4857530000000  0.4905790000000  0.4764910000000 1.0
C      1  0.4877950000000  0.5323780000000  0.5475800000000 1.0
C      1  0.5121700000000  0.5324660000000  0.5486040000000 1.0
END
