TITL C-2441158-471-1112 0.0756768036348932 125000 -21688.2569397987 0 0 156 (C1) n - 1
REM
REM in /home/bkarasulu/work/CARBON/AIRSS/Generating-Clusters/ReaxFF-fromJPCA2015/Units_Real/with-SteepDescent/Higher-Symm
REM
REM
REM
REM
REM
REM ./C.cell (1df0a924f5614ab8850e4351716899ee)
REM
REM compiler GCC version 9.2.1 20190827 (Red Hat 9.2.1-1)
REM options -cpp -mtune=generic -march=x86-64 -g -O0 -fpre-include=/usr/include/finclude/math-vector-fortran.h
REM seed -1185845492 1404184485 227970875 -1356884 340880679 790519038 936225240 125530931 555634160 461462505 902520891 2057983114 -95180066 -796902133 -1960564350 1765245622 -1153147466 794891990 -491965473 108063897 -350505342 -508441995 -704502124 -374692471 2077451862 1628364315 -1231469168 -1025831277 1863289049 1869118097 -1600517092 -1179440451 272034764
REM
CELL 1.54180   50.00000   50.00000   50.00000   90.00000   90.00000   90.00000
LATT -1
SFAC C  
C      1  0.4355090000000  0.4350740000000  0.5373690000000 1.0
C      1  0.4935830000000  0.4004860000000  0.5363300000000 1.0
C      1  0.5717670000000  0.4416690000000  0.5427370000000 1.0
C      1  0.5962770000000  0.5159360000000  0.5428490000000 1.0
C      1  0.5326440000000  0.5852790000000  0.5352320000000 1.0
C      1  0.4516840000000  0.5762030000000  0.5357960000000 1.0
C      1  0.4101700000000  0.5132720000000  0.5359600000000 1.0
C      1  0.4990220000000  0.5820890000000  0.5689910000000 1.0
C      1  0.4331830000000  0.5507740000000  0.5677660000000 1.0
C      1  0.4204050000000  0.4799910000000  0.5682960000000 1.0
C      1  0.4655830000000  0.4258090000000  0.5749490000000 1.0
C      1  0.5342000000000  0.4264150000000  0.5766910000000 1.0
C      1  0.5802850000000  0.4801230000000  0.5737720000000 1.0
C      1  0.5658400000000  0.5518380000000  0.5673140000000 1.0
C      1  0.5920330000000  0.4521440000000  0.4763780000000 1.0
C      1  0.5968940000000  0.5413190000000  0.4723880000000 1.0
C      1  0.5317330000000  0.5965470000000  0.4775000000000 1.0
C      1  0.4495290000000  0.5794150000000  0.4795930000000 1.0
C      1  0.3996570000000  0.5107980000000  0.4809650000000 1.0
C      1  0.4321380000000  0.4268490000000  0.4813040000000 1.0
C      1  0.5234410000000  0.3951900000000  0.4683960000000 1.0
C      1  0.5117690000000  0.4456860000000  0.4204190000000 1.0
C      1  0.5485020000000  0.4752140000000  0.4178550000000 1.0
C      1  0.5548220000000  0.5235640000000  0.4189990000000 1.0
C      1  0.5160440000000  0.5542730000000  0.4177900000000 1.0
C      1  0.4691150000000  0.5511630000000  0.4196440000000 1.0
C      1  0.4426820000000  0.5008430000000  0.4194170000000 1.0
C      1  0.4607090000000  0.4568070000000  0.4227720000000 1.0
C      1  0.5384690000000  0.5537430000000  0.5774450000000 1.0
C      1  0.4815680000000  0.5600550000000  0.5777970000000 1.0
C      1  0.4412210000000  0.5235760000000  0.5770990000000 1.0
C      1  0.4453970000000  0.4687740000000  0.5783410000000 1.0
C      1  0.4910560000000  0.4380120000000  0.5799430000000 1.0
C      1  0.5427680000000  0.4534150000000  0.5830810000000 1.0
C      1  0.5646160000000  0.5039920000000  0.5808480000000 1.0
C      1  0.5983370000000  0.5113500000000  0.5148360000000 1.0
C      1  0.5574120000000  0.5833850000000  0.5212110000000 1.0
C      1  0.4685190000000  0.5955570000000  0.5235250000000 1.0
C      1  0.4029620000000  0.5388350000000  0.5242650000000 1.0
C      1  0.4138970000000  0.4473250000000  0.5236050000000 1.0
C      1  0.4896380000000  0.4023740000000  0.5090320000000 1.0
C      1  0.5699830000000  0.4325070000000  0.5177470000000 1.0
C      1  0.5691050000000  0.4537510000000  0.5690760000000 1.0
C      1  0.5772370000000  0.5254120000000  0.5657850000000 1.0
C      1  0.5270700000000  0.5767390000000  0.5642530000000 1.0
C      1  0.4566340000000  0.5674040000000  0.5634730000000 1.0
C      1  0.4204410000000  0.5085230000000  0.5638950000000 1.0
C      1  0.4439040000000  0.4423830000000  0.5653090000000 1.0
C      1  0.5085810000000  0.4182800000000  0.5664290000000 1.0
C      1  0.4637010000000  0.4663090000000  0.4694190000000 1.0
C      1  0.5101100000000  0.4617840000000  0.4715920000000 1.0
C      1  0.5356530000000  0.4758620000000  0.4738330000000 1.0
C      1  0.5395000000000  0.5155610000000  0.4617510000000 1.0
C      1  0.5195120000000  0.5331580000000  0.4714260000000 1.0
C      1  0.4801980000000  0.5419220000000  0.4738020000000 1.0
C      1  0.4508190000000  0.5107540000000  0.4671290000000 1.0
C      1  0.4142270000000  0.5531870000000  0.5459110000000 1.0
C      1  0.4139360000000  0.4700240000000  0.5416320000000 1.0
C      1  0.4723350000000  0.4147330000000  0.5485100000000 1.0
C      1  0.5305590000000  0.4234710000000  0.5495340000000 1.0
C      1  0.5891620000000  0.4875470000000  0.5470850000000 1.0
C      1  0.5671840000000  0.5617040000000  0.5388130000000 1.0
C      1  0.4908160000000  0.5907050000000  0.5419560000000 1.0
C      1  0.5309440000000  0.4267810000000  0.5075460000000 1.0
C      1  0.5691010000000  0.4802640000000  0.5092410000000 1.0
C      1  0.5575160000000  0.5361660000000  0.5070880000000 1.0
C      1  0.5149770000000  0.5755160000000  0.5127680000000 1.0
C      1  0.4415160000000  0.5560190000000  0.5165960000000 1.0
C      1  0.4210860000000  0.4980570000000  0.5128810000000 1.0
C      1  0.4549560000000  0.4315690000000  0.5155820000000 1.0
C      1  0.4628090000000  0.5106330000000  0.4947400000000 1.0
C      1  0.4696350000000  0.4803040000000  0.4937810000000 1.0
C      1  0.4957610000000  0.4708690000000  0.4953680000000 1.0
C      1  0.5455760000000  0.4897220000000  0.4969430000000 1.0
C      1  0.5378360000000  0.5158630000000  0.5021970000000 1.0
C      1  0.5098370000000  0.5168380000000  0.5071460000000 1.0
C      1  0.4860520000000  0.5315370000000  0.5000290000000 1.0
C      1  0.5355000000000  0.5020210000000  0.5868900000000 1.0
C      1  0.5208670000000  0.5286560000000  0.5806970000000 1.0
C      1  0.4904320000000  0.5331570000000  0.5848830000000 1.0
C      1  0.4682810000000  0.5136310000000  0.5851740000000 1.0
C      1  0.4694510000000  0.4841860000000  0.5857700000000 1.0
C      1  0.4937960000000  0.4675360000000  0.5795390000000 1.0
C      1  0.5243710000000  0.4758310000000  0.5856220000000 1.0
C      1  0.4916370000000  0.5697530000000  0.4231810000000 1.0
C      1  0.4215890000000  0.5194550000000  0.4265880000000 1.0
C      1  0.4363430000000  0.4726840000000  0.4234860000000 1.0
C      1  0.4906910000000  0.4273510000000  0.4253100000000 1.0
C      1  0.5417700000000  0.4467730000000  0.4218390000000 1.0
C      1  0.5680270000000  0.4977470000000  0.4227740000000 1.0
C      1  0.5460480000000  0.5515260000000  0.4227320000000 1.0
C      1  0.4380350000000  0.4818440000000  0.5294960000000 1.0
C      1  0.4776090000000  0.4395270000000  0.5325740000000 1.0
C      1  0.5304470000000  0.4442550000000  0.5290910000000 1.0
C      1  0.5620570000000  0.4873960000000  0.5348680000000 1.0
C      1  0.5478660000000  0.5410600000000  0.5317020000000 1.0
C      1  0.4959350000000  0.5625570000000  0.5304150000000 1.0
C      1  0.4511860000000  0.5285350000000  0.5203450000000 1.0
C      1  0.4716510000000  0.5185270000000  0.5383380000000 1.0
C      1  0.4650630000000  0.4889380000000  0.5388430000000 1.0
C      1  0.4834370000000  0.4666170000000  0.5454990000000 1.0
C      1  0.5154240000000  0.4732130000000  0.5376730000000 1.0
C      1  0.5343930000000  0.4957110000000  0.5418050000000 1.0
C      1  0.5252110000000  0.5241390000000  0.5464430000000 1.0
C      1  0.4966660000000  0.5350060000000  0.5406760000000 1.0
C      1  0.4940930000000  0.5897880000000  0.4447800000000 1.0
C      1  0.4227960000000  0.5433810000000  0.4438340000000 1.0
C      1  0.4151340000000  0.4704510000000  0.4439110000000 1.0
C      1  0.4727370000000  0.4129330000000  0.4425550000000 1.0
C      1  0.5479790000000  0.4263500000000  0.4415830000000 1.0
C      1  0.5889580000000  0.4890470000000  0.4419220000000 1.0
C      1  0.5641830000000  0.5635400000000  0.4418460000000 1.0
C      1  0.4150270000000  0.4459960000000  0.4940610000000 1.0
C      1  0.4919370000000  0.4189210000000  0.4862840000000 1.0
C      1  0.5740980000000  0.4324250000000  0.4884050000000 1.0
C      1  0.6023370000000  0.5164510000000  0.4867890000000 1.0
C      1  0.5538410000000  0.5856000000000  0.4910120000000 1.0
C      1  0.4673650000000  0.5958590000000  0.4931490000000 1.0
C      1  0.4022510000000  0.5366150000000  0.4931720000000 1.0
C      1  0.4714580000000  0.4061570000000  0.4721020000000 1.0
C      1  0.5574180000000  0.4189210000000  0.4686880000000 1.0
C      1  0.5968920000000  0.4937830000000  0.4700150000000 1.0
C      1  0.5659050000000  0.5699520000000  0.4707320000000 1.0
C      1  0.4879120000000  0.5973250000000  0.4729750000000 1.0
C      1  0.4155270000000  0.5501700000000  0.4724350000000 1.0
C      1  0.4105340000000  0.4657990000000  0.4735900000000 1.0
C      1  0.4762220000000  0.4753000000000  0.4414970000000 1.0
C      1  0.5052490000000  0.4694480000000  0.4388020000000 1.0
C      1  0.5247890000000  0.4856660000000  0.4270100000000 1.0
C      1  0.5287660000000  0.5118240000000  0.4330900000000 1.0
C      1  0.5065470000000  0.5284340000000  0.4231710000000 1.0
C      1  0.4795370000000  0.5247770000000  0.4242820000000 1.0
C      1  0.4647500000000  0.5037730000000  0.4384230000000 1.0
C      1  0.4516440000000  0.4323940000000  0.4360450000000 1.0
C      1  0.5213830000000  0.4163400000000  0.4497570000000 1.0
C      1  0.5823330000000  0.4607950000000  0.4490070000000 1.0
C      1  0.5812220000000  0.5388920000000  0.4466380000000 1.0
C      1  0.5223180000000  0.5855610000000  0.4528400000000 1.0
C      1  0.4470700000000  0.5576190000000  0.4379680000000 1.0
C      1  0.4078760000000  0.4983530000000  0.4409840000000 1.0
C      1  0.4034960000000  0.4861400000000  0.4930940000000 1.0
C      1  0.4524970000000  0.4108570000000  0.4938530000000 1.0
C      1  0.5390840000000  0.4054510000000  0.4897150000000 1.0
C      1  0.5940850000000  0.4761490000000  0.4930180000000 1.0
C      1  0.5764550000000  0.5517040000000  0.4897290000000 1.0
C      1  0.5085200000000  0.5976240000000  0.4929000000000 1.0
C      1  0.4293540000000  0.5670700000000  0.4913750000000 1.0
C      1  0.4615430000000  0.5608630000000  0.4632440000000 1.0
C      1  0.4235020000000  0.5071220000000  0.4648860000000 1.0
C      1  0.4482790000000  0.4438750000000  0.4635770000000 1.0
C      1  0.5106360000000  0.4335300000000  0.4700630000000 1.0
C      1  0.5567920000000  0.4667140000000  0.4590070000000 1.0
C      1  0.5624900000000  0.5255550000000  0.4608140000000 1.0
C      1  0.5192820000000  0.5604360000000  0.4651100000000 1.0
C      1  0.5042410000000  0.4894020000000  0.5150930000000 1.0
C      1  0.4941110000000  0.5170630000000  0.4628040000000 1.0
END
