TITL C-2441161-5029-552 0.000956005964811413 125000 -4100.63269328843 0 0 29 (D2) n - 1
REM
REM in /home/bkarasulu/work/CARBON/AIRSS/Generating-Clusters/ReaxFF-fromJPCA2015/Units_Real/with-SteepDescent/Higher-Symm
REM
REM
REM
REM
REM
REM ./C.cell (1df0a924f5614ab8850e4351716899ee)
REM
REM compiler GCC version 9.2.1 20190827 (Red Hat 9.2.1-1)
REM options -cpp -mtune=generic -march=x86-64 -g -O0 -fpre-include=/usr/include/finclude/math-vector-fortran.h
REM seed -1222822494 -1654296637 2041168875 -74078115 1959547314 -600010805 337095981 -1640726690 114190029 1772423445 -700879158 -1644048669 2114710582 163846308 -219118601 1213085371 -60087385 685430008 -960909726 -1620746296 1281714331 -1126064678 1186222240 1384030403 1356824064 545155093 -1800828206 406629764 -2144564007 -125070655 1428221821 1221403294 299633064
REM
CELL 1.54180   50.00000   50.00000   50.00000   90.00000   90.00000   90.00000
LATT -1
SFAC C  
C      1  0.4687230000000  0.4607530000000  0.5149270000000 1.0
C      1  0.5325920000000  0.5383280000000  0.5147350000000 1.0
C      1  0.4688470000000  0.5384750000000  0.4825090000000 1.0
C      1  0.5324600000000  0.4608030000000  0.4824200000000 1.0
C      1  0.4814070000000  0.5125160000000  0.4769770000000 1.0
C      1  0.5197710000000  0.4867430000000  0.4769560000000 1.0
C      1  0.4816350000000  0.4865370000000  0.5204830000000 1.0
C      1  0.5193450000000  0.5126510000000  0.5203740000000 1.0
C      1  0.5251150000000  0.4751180000000  0.5378660000000 1.0
C      1  0.4762440000000  0.5241300000000  0.5378560000000 1.0
C      1  0.5252870000000  0.5241880000000  0.4592180000000 1.0
C      1  0.4759650000000  0.4752230000000  0.4593510000000 1.0
C      1  0.4687870000000  0.5474390000000  0.5241080000000 1.0
C      1  0.5325610000000  0.4519560000000  0.5240390000000 1.0
C      1  0.4687670000000  0.4519570000000  0.4733060000000 1.0
C      1  0.5324850000000  0.5474180000000  0.4731800000000 1.0
C      1  0.4863480000000  0.5550770000000  0.4999440000000 1.0
C      1  0.5150280000000  0.4442090000000  0.4999150000000 1.0
C      1  0.4863070000000  0.4442580000000  0.4974450000000 1.0
C      1  0.5150560000000  0.5550590000000  0.4973950000000 1.0
C      1  0.4468480000000  0.5397630000000  0.5036940000000 1.0
C      1  0.5544760000000  0.4597590000000  0.5036310000000 1.0
C      1  0.4467520000000  0.4594820000000  0.4936820000000 1.0
C      1  0.5545360000000  0.5396470000000  0.4935410000000 1.0
C      1  0.5161540000000  0.4996580000000  0.5466880000000 1.0
C      1  0.4849760000000  0.4996430000000  0.5466880000000 1.0
C      1  0.5163480000000  0.4996450000000  0.4507150000000 1.0
C      1  0.4851550000000  0.4998140000000  0.4506560000000 1.0
C      1  0.5005100000000  0.4995920000000  0.4985220000000 1.0
END
