TITL C-2441156-4686-248 0.0375313782741003 125000 -22103.2054691568 0 0 152 (C1) n - 1
REM
REM in /home/bkarasulu/work/CARBON/AIRSS/Generating-Clusters/ReaxFF-fromJPCA2015/Units_Real/with-SteepDescent/Higher-Symm
REM
REM
REM
REM
REM
REM ./C.cell (1df0a924f5614ab8850e4351716899ee)
REM
REM compiler GCC version 9.2.1 20190827 (Red Hat 9.2.1-1)
REM options -cpp -mtune=generic -march=x86-64 -g -O0 -fpre-include=/usr/include/finclude/math-vector-fortran.h
REM seed -1146990918 1811895110 -583916661 -1788520893 -845196379 1039637866 -1096789639 -756932575 1082934097 -1874084463 1198515222 -2112936432 -126133395 -264686657 1102901007 880785726 -178947547 -869656118 1739001663 -740871385 1099506880 -1270194624 1008988054 1527224724 -1041368771 -2109935422 12019097 1258356785 -1331720074 -335001616 -1643352938 -2054647364 -347812010
REM
CELL 1.54180   50.00000   50.00000   50.00000   90.00000   90.00000   90.00000
LATT -1
SFAC C  
C      1  0.4539580000000  0.5145280000000  0.4145300000000 1.0
C      1  0.4055040000000  0.5031800000000  0.5435370000000 1.0
C      1  0.5468280000000  0.5187310000000  0.5885560000000 1.0
C      1  0.5955280000000  0.5025800000000  0.4531030000000 1.0
C      1  0.4245940000000  0.5569930000000  0.4658650000000 1.0
C      1  0.4697650000000  0.5509990000000  0.5790790000000 1.0
C      1  0.5787030000000  0.5591930000000  0.5362040000000 1.0
C      1  0.5382160000000  0.5544840000000  0.4161290000000 1.0
C      1  0.5951080000000  0.4585940000000  0.5021080000000 1.0
C      1  0.4992080000000  0.4595650000000  0.4026330000000 1.0
C      1  0.4011500000000  0.4566780000000  0.4995470000000 1.0
C      1  0.4999230000000  0.4554190000000  0.5999470000000 1.0
C      1  0.5641460000000  0.5393620000000  0.5004610000000 1.0
C      1  0.4997430000000  0.5403190000000  0.4286690000000 1.0
C      1  0.4399560000000  0.5295080000000  0.5058630000000 1.0
C      1  0.5053710000000  0.5299560000000  0.5549490000000 1.0
C      1  0.4480120000000  0.5030360000000  0.5845160000000 1.0
C      1  0.5880950000000  0.5124220000000  0.5477920000000 1.0
C      1  0.5492900000000  0.5057220000000  0.4146060000000 1.0
C      1  0.4121650000000  0.5051880000000  0.4529510000000 1.0
C      1  0.5223840000000  0.4595780000000  0.5233060000000 1.0
C      1  0.5275470000000  0.4625690000000  0.4716310000000 1.0
C      1  0.4692560000000  0.4586710000000  0.4781700000000 1.0
C      1  0.4789380000000  0.4612130000000  0.5299270000000 1.0
C      1  0.5398540000000  0.4827210000000  0.4870130000000 1.0
C      1  0.4842120000000  0.4771240000000  0.4640160000000 1.0
C      1  0.4624300000000  0.4795970000000  0.5168450000000 1.0
C      1  0.5271520000000  0.4799260000000  0.5352940000000 1.0
C      1  0.5710510000000  0.4915920000000  0.5566600000000 1.0
C      1  0.5576410000000  0.4800740000000  0.4260520000000 1.0
C      1  0.4266390000000  0.4788340000000  0.4437140000000 1.0
C      1  0.4412130000000  0.4787060000000  0.5705630000000 1.0
C      1  0.4373340000000  0.4302000000000  0.4716140000000 1.0
C      1  0.4705190000000  0.4292860000000  0.5610680000000 1.0
C      1  0.5609380000000  0.4245370000000  0.5235220000000 1.0
C      1  0.5279590000000  0.4317560000000  0.4372390000000 1.0
C      1  0.5335770000000  0.5718610000000  0.4632910000000 1.0
C      1  0.4717910000000  0.5797970000000  0.4758420000000 1.0
C      1  0.4664910000000  0.5708400000000  0.5341950000000 1.0
C      1  0.5269220000000  0.5790840000000  0.5232170000000 1.0
C      1  0.4608730000000  0.4076560000000  0.5125230000000 1.0
C      1  0.5133220000000  0.4087120000000  0.5376860000000 1.0
C      1  0.5379670000000  0.4078350000000  0.4851210000000 1.0
C      1  0.4861870000000  0.4095310000000  0.4610490000000 1.0
C      1  0.3895460000000  0.4533980000000  0.5241130000000 1.0
C      1  0.5263860000000  0.4588160000000  0.6054470000000 1.0
C      1  0.6043950000000  0.4550470000000  0.4766420000000 1.0
C      1  0.4739960000000  0.4575780000000  0.3889230000000 1.0
C      1  0.5123590000000  0.4394660000000  0.4805090000000 1.0
C      1  0.4832490000000  0.4373280000000  0.4881800000000 1.0
C      1  0.4866520000000  0.4372970000000  0.5162430000000 1.0
C      1  0.5170840000000  0.4371120000000  0.5100080000000 1.0
C      1  0.4240640000000  0.5523490000000  0.4945560000000 1.0
C      1  0.5031960000000  0.5466360000000  0.5797130000000 1.0
C      1  0.5897810000000  0.5426440000000  0.5138830000000 1.0
C      1  0.5174350000000  0.5383120000000  0.4046060000000 1.0
C      1  0.4238850000000  0.4372920000000  0.4961650000000 1.0
C      1  0.4954380000000  0.4402500000000  0.5734180000000 1.0
C      1  0.5764020000000  0.4348210000000  0.5017810000000 1.0
C      1  0.5025640000000  0.4418630000000  0.4269900000000 1.0
C      1  0.4299760000000  0.5440090000000  0.5541250000000 1.0
C      1  0.5589990000000  0.5422880000000  0.5754860000000 1.0
C      1  0.5711050000000  0.5428510000000  0.4474410000000 1.0
C      1  0.4410450000000  0.5387300000000  0.4278120000000 1.0
C      1  0.5896010000000  0.4909650000000  0.5030160000000 1.0
C      1  0.5049710000000  0.4906260000000  0.4098920000000 1.0
C      1  0.4060380000000  0.4895050000000  0.4976840000000 1.0
C      1  0.4914960000000  0.4860930000000  0.5982520000000 1.0
C      1  0.5174570000000  0.4144880000000  0.4636700000000 1.0
C      1  0.4640990000000  0.4129610000000  0.4815050000000 1.0
C      1  0.4813120000000  0.4126890000000  0.5346870000000 1.0
C      1  0.5352100000000  0.4081180000000  0.5159070000000 1.0
C      1  0.4317230000000  0.5753860000000  0.5101690000000 1.0
C      1  0.5179960000000  0.5725500000000  0.5731830000000 1.0
C      1  0.5644950000000  0.5682000000000  0.4921110000000 1.0
C      1  0.4845420000000  0.5661830000000  0.4306880000000 1.0
C      1  0.4084940000000  0.4539770000000  0.5452680000000 1.0
C      1  0.5446230000000  0.4649250000000  0.5847520000000 1.0
C      1  0.5904680000000  0.4547170000000  0.4519540000000 1.0
C      1  0.4540960000000  0.4602100000000  0.4132650000000 1.0
C      1  0.4722750000000  0.5231920000000  0.4681320000000 1.0
C      1  0.4704200000000  0.5244530000000  0.5220750000000 1.0
C      1  0.5237120000000  0.5278130000000  0.5286970000000 1.0
C      1  0.5241650000000  0.5247050000000  0.4733170000000 1.0
C      1  0.4992030000000  0.5890300000000  0.5586250000000 1.0
C      1  0.5435950000000  0.5885020000000  0.5005530000000 1.0
C      1  0.5024580000000  0.5866350000000  0.4402200000000 1.0
C      1  0.4551160000000  0.5905070000000  0.4985620000000 1.0
C      1  0.4856800000000  0.4913680000000  0.5647820000000 1.0
C      1  0.5587460000000  0.4917430000000  0.5085550000000 1.0
C      1  0.5148950000000  0.4934840000000  0.4373200000000 1.0
C      1  0.4358440000000  0.4889420000000  0.4877790000000 1.0
C      1  0.4897130000000  0.4665730000000  0.5547030000000 1.0
C      1  0.5589690000000  0.4754800000000  0.5369500000000 1.0
C      1  0.5092570000000  0.4700010000000  0.4508350000000 1.0
C      1  0.4497280000000  0.4672380000000  0.4953950000000 1.0
C      1  0.5171760000000  0.5190680000000  0.4473260000000 1.0
C      1  0.4468020000000  0.5152070000000  0.4813490000000 1.0
C      1  0.4809810000000  0.5161760000000  0.5502870000000 1.0
C      1  0.5502960000000  0.5197690000000  0.5158790000000 1.0
C      1  0.5612140000000  0.4450550000000  0.5434570000000 1.0
C      1  0.5493240000000  0.4500520000000  0.4334590000000 1.0
C      1  0.4326710000000  0.4490900000000  0.4506040000000 1.0
C      1  0.4497460000000  0.4482770000000  0.5641280000000 1.0
C      1  0.5893560000000  0.5272870000000  0.4632120000000 1.0
C      1  0.4776830000000  0.5216450000000  0.4324050000000 1.0
C      1  0.4180830000000  0.5253960000000  0.5319350000000 1.0
C      1  0.5208870000000  0.5275640000000  0.5986590000000 1.0
C      1  0.4030920000000  0.5110460000000  0.4779430000000 1.0
C      1  0.4698580000000  0.4984000000000  0.6018070000000 1.0
C      1  0.5974720000000  0.5145640000000  0.5206340000000 1.0
C      1  0.5239690000000  0.5107490000000  0.3995860000000 1.0
C      1  0.5630750000000  0.5659430000000  0.4633730000000 1.0
C      1  0.4559440000000  0.5633280000000  0.4339250000000 1.0
C      1  0.4365060000000  0.5667560000000  0.5377380000000 1.0
C      1  0.5455500000000  0.5673810000000  0.5660980000000 1.0
C      1  0.5611040000000  0.4229890000000  0.4785640000000 1.0
C      1  0.4791070000000  0.4244940000000  0.4385950000000 1.0
C      1  0.4377080000000  0.4217990000000  0.5195050000000 1.0
C      1  0.5203220000000  0.4241310000000  0.5601660000000 1.0
C      1  0.4425680000000  0.4849510000000  0.4224850000000 1.0
C      1  0.4176710000000  0.4805160000000  0.5551760000000 1.0
C      1  0.5547340000000  0.4917760000000  0.5791710000000 1.0
C      1  0.5812200000000  0.4808940000000  0.4411680000000 1.0
C      1  0.4834540000000  0.5485460000000  0.5135170000000 1.0
C      1  0.5130320000000  0.5505970000000  0.5123540000000 1.0
C      1  0.5146010000000  0.5492870000000  0.4829410000000 1.0
C      1  0.4835820000000  0.5488050000000  0.4825340000000 1.0
C      1  0.4474360000000  0.5334280000000  0.5747120000000 1.0
C      1  0.5810750000000  0.5392210000000  0.5576370000000 1.0
C      1  0.5567970000000  0.5330230000000  0.4238400000000 1.0
C      1  0.4204130000000  0.5342520000000  0.4469350000000 1.0
C      1  0.4748400000000  0.5966290000000  0.5195400000000 1.0
C      1  0.5016880000000  0.5962570000000  0.5305400000000 1.0
C      1  0.5244860000000  0.5969000000000  0.4795370000000 1.0
C      1  0.4982980000000  0.5955410000000  0.4678310000000 1.0
C      1  0.3979340000000  0.5088550000000  0.5181220000000 1.0
C      1  0.5097860000000  0.5040580000000  0.6033520000000 1.0
C      1  0.6000260000000  0.5064320000000  0.4803900000000 1.0
C      1  0.4831730000000  0.5099560000000  0.4064360000000 1.0
C      1  0.5671040000000  0.4367360000000  0.4521070000000 1.0
C      1  0.4530380000000  0.4380820000000  0.4325880000000 1.0
C      1  0.4316150000000  0.4352150000000  0.5456090000000 1.0
C      1  0.5438770000000  0.4409870000000  0.5655600000000 1.0
C      1  0.5290140000000  0.5757140000000  0.4342760000000 1.0
C      1  0.4466510000000  0.5748600000000  0.4590240000000 1.0
C      1  0.4737190000000  0.5742690000000  0.5633270000000 1.0
C      1  0.5540480000000  0.5745360000000  0.5393070000000 1.0
C      1  0.5116910000000  0.5020300000000  0.5192760000000 1.0
C      1  0.5198520000000  0.5022600000000  0.4903450000000 1.0
C      1  0.4873680000000  0.5009290000000  0.4805720000000 1.0
C      1  0.4818660000000  0.5007810000000  0.5100110000000 1.0
END
