TITL C-2441154-10-721 0.0584404422506371 125000 -26326.0424958768 0 0 187 (C1) n - 1
REM
REM in /home/bkarasulu/work/CARBON/AIRSS/Generating-Clusters/ReaxFF-fromJPCA2015/Units_Real/with-SteepDescent/Higher-Symm
REM
REM
REM
REM
REM
REM ./C.cell (1df0a924f5614ab8850e4351716899ee)
REM
REM compiler GCC version 9.2.1 20190827 (Red Hat 9.2.1-1)
REM options -cpp -mtune=generic -march=x86-64 -g -O0 -fpre-include=/usr/include/finclude/math-vector-fortran.h
REM seed -1589190773 1060831431 -1044981051 431458405 1221214681 -192385012 -1885292948 -550009371 77526128 -434988296 -744330667 -911360184 39063762 -1363232914 35249501 -1960489369 760645297 -1902146388 151865800 1599027791 -1328169022 -404493737 552072894 -540688478 1419652326 1635439502 -1410540058 -989273642 -913866170 -1850182162 1686519277 1575006282 1360818429
REM
CELL 1.54180   50.00000   50.00000   50.00000   90.00000   90.00000   90.00000
LATT -1
SFAC C  
C      1  0.4017860000000  0.5385750000000  0.5266060000000 1.0
C      1  0.4230970000000  0.5236280000000  0.4812020000000 1.0
C      1  0.4160130000000  0.4998320000000  0.4641670000000 1.0
C      1  0.4228880000000  0.4528820000000  0.5070090000000 1.0
C      1  0.4042920000000  0.4855350000000  0.5520020000000 1.0
C      1  0.5440260000000  0.5397300000000  0.4137020000000 1.0
C      1  0.5429330000000  0.4237940000000  0.4300830000000 1.0
C      1  0.5383060000000  0.4127730000000  0.5432690000000 1.0
C      1  0.5495650000000  0.5192100000000  0.5958220000000 1.0
C      1  0.5445440000000  0.5976550000000  0.5101810000000 1.0
C      1  0.5100630000000  0.4078800000000  0.5579200000000 1.0
C      1  0.5073420000000  0.5182400000000  0.6095700000000 1.0
C      1  0.5127900000000  0.6126770000000  0.5035820000000 1.0
C      1  0.5093850000000  0.5409310000000  0.3927850000000 1.0
C      1  0.5084830000000  0.4148300000000  0.4280820000000 1.0
C      1  0.4972470000000  0.4514690000000  0.6144090000000 1.0
C      1  0.4973220000000  0.5802340000000  0.5774730000000 1.0
C      1  0.4955980000000  0.6063330000000  0.4338220000000 1.0
C      1  0.4954890000000  0.4768530000000  0.3835450000000 1.0
C      1  0.4926250000000  0.3758470000000  0.4863120000000 1.0
C      1  0.4223210000000  0.5485430000000  0.4674180000000 1.0
C      1  0.4202900000000  0.5084620000000  0.4370300000000 1.0
C      1  0.4234840000000  0.4387060000000  0.4777900000000 1.0
C      1  0.4146930000000  0.4595190000000  0.5571270000000 1.0
C      1  0.4157320000000  0.5356780000000  0.5517040000000 1.0
C      1  0.4612010000000  0.4196560000000  0.5556350000000 1.0
C      1  0.4551800000000  0.5239960000000  0.5943560000000 1.0
C      1  0.4673340000000  0.5998570000000  0.4993400000000 1.0
C      1  0.4595040000000  0.5359160000000  0.4052340000000 1.0
C      1  0.4577300000000  0.4263850000000  0.4391090000000 1.0
C      1  0.3859530000000  0.5146200000000  0.5127900000000 1.0
C      1  0.3798310000000  0.5054160000000  0.4856050000000 1.0
C      1  0.3956300000000  0.4796730000000  0.4757780000000 1.0
C      1  0.3988450000000  0.4706760000000  0.5037300000000 1.0
C      1  0.3920840000000  0.4888830000000  0.5255760000000 1.0
C      1  0.4604700000000  0.5233630000000  0.4524110000000 1.0
C      1  0.4565730000000  0.4736800000000  0.4511770000000 1.0
C      1  0.4511540000000  0.4610450000000  0.5189880000000 1.0
C      1  0.4511520000000  0.5045480000000  0.5443520000000 1.0
C      1  0.4532750000000  0.5594870000000  0.5108360000000 1.0
C      1  0.5003250000000  0.4835570000000  0.4519490000000 1.0
C      1  0.4940650000000  0.4482460000000  0.4949350000000 1.0
C      1  0.4991560000000  0.4609330000000  0.5517870000000 1.0
C      1  0.4989540000000  0.5495570000000  0.5396550000000 1.0
C      1  0.4936020000000  0.5561370000000  0.4733070000000 1.0
C      1  0.5766710000000  0.4339390000000  0.4902040000000 1.0
C      1  0.5824580000000  0.4707670000000  0.5594890000000 1.0
C      1  0.5782540000000  0.5480780000000  0.5459150000000 1.0
C      1  0.5811390000000  0.5596620000000  0.4689320000000 1.0
C      1  0.5768600000000  0.4884430000000  0.4338380000000 1.0
C      1  0.4955800000000  0.4553300000000  0.4470850000000 1.0
C      1  0.4942420000000  0.4318650000000  0.5186900000000 1.0
C      1  0.4886930000000  0.5085080000000  0.5653190000000 1.0
C      1  0.4955750000000  0.5745510000000  0.5262120000000 1.0
C      1  0.5036010000000  0.5247420000000  0.4329580000000 1.0
C      1  0.5248940000000  0.5164330000000  0.4710860000000 1.0
C      1  0.5344320000000  0.4619100000000  0.4599070000000 1.0
C      1  0.5193090000000  0.4791840000000  0.5123170000000 1.0
C      1  0.5266510000000  0.5122450000000  0.5513620000000 1.0
C      1  0.5191840000000  0.5453530000000  0.5052040000000 1.0
C      1  0.4135910000000  0.5110060000000  0.5659130000000 1.0
C      1  0.4039440000000  0.5644990000000  0.5122690000000 1.0
C      1  0.4193380000000  0.5371120000000  0.4399070000000 1.0
C      1  0.4132200000000  0.4524150000000  0.4570710000000 1.0
C      1  0.4145420000000  0.4410100000000  0.5354440000000 1.0
C      1  0.5008830000000  0.5063560000000  0.5401570000000 1.0
C      1  0.4974820000000  0.5305010000000  0.5175420000000 1.0
C      1  0.5012230000000  0.5296320000000  0.4613670000000 1.0
C      1  0.4960700000000  0.4917340000000  0.4789360000000 1.0
C      1  0.5000690000000  0.4795480000000  0.5303720000000 1.0
C      1  0.5112020000000  0.3887760000000  0.5022890000000 1.0
C      1  0.5097130000000  0.4753710000000  0.6021420000000 1.0
C      1  0.5127610000000  0.5971200000000  0.5629430000000 1.0
C      1  0.5175890000000  0.5848510000000  0.4304150000000 1.0
C      1  0.5119610000000  0.4592130000000  0.3974360000000 1.0
C      1  0.5609060000000  0.5208630000000  0.4869560000000 1.0
C      1  0.5594490000000  0.4940100000000  0.4786290000000 1.0
C      1  0.5588540000000  0.4766120000000  0.5014410000000 1.0
C      1  0.5582310000000  0.4936930000000  0.5251770000000 1.0
C      1  0.5596800000000  0.5204560000000  0.5147720000000 1.0
C      1  0.6051660000000  0.5104790000000  0.5207340000000 1.0
C      1  0.6053540000000  0.5248450000000  0.4954850000000 1.0
C      1  0.6043920000000  0.5042200000000  0.4740880000000 1.0
C      1  0.6035160000000  0.4776160000000  0.4866050000000 1.0
C      1  0.6040240000000  0.4816030000000  0.5156950000000 1.0
C      1  0.4893940000000  0.4525010000000  0.4166040000000 1.0
C      1  0.4855400000000  0.4037900000000  0.5181710000000 1.0
C      1  0.4856620000000  0.4886350000000  0.5867560000000 1.0
C      1  0.4927730000000  0.5995440000000  0.5405200000000 1.0
C      1  0.4989080000000  0.5648780000000  0.4235460000000 1.0
C      1  0.5602850000000  0.5807560000000  0.4624030000000 1.0
C      1  0.5538770000000  0.4895600000000  0.4140090000000 1.0
C      1  0.5559350000000  0.4132750000000  0.4820030000000 1.0
C      1  0.5628880000000  0.4587410000000  0.5798470000000 1.0
C      1  0.5513000000000  0.5575920000000  0.5630650000000 1.0
C      1  0.4747540000000  0.5225830000000  0.4276210000000 1.0
C      1  0.4692910000000  0.4483870000000  0.4568290000000 1.0
C      1  0.4819220000000  0.4408160000000  0.5418490000000 1.0
C      1  0.4644120000000  0.5212810000000  0.5651120000000 1.0
C      1  0.4792350000000  0.5715840000000  0.5020870000000 1.0
C      1  0.5517960000000  0.3901850000000  0.5283250000000 1.0
C      1  0.5514670000000  0.4770190000000  0.5983700000000 1.0
C      1  0.5541850000000  0.6056070000000  0.5402110000000 1.0
C      1  0.5574230000000  0.5680040000000  0.4109990000000 1.0
C      1  0.5561080000000  0.4380330000000  0.4049490000000 1.0
C      1  0.4862850000000  0.4329350000000  0.5928760000000 1.0
C      1  0.4858610000000  0.5607780000000  0.5919600000000 1.0
C      1  0.4864500000000  0.6022280000000  0.4619440000000 1.0
C      1  0.4822180000000  0.5012060000000  0.3852770000000 1.0
C      1  0.4872250000000  0.3961080000000  0.4675040000000 1.0
C      1  0.4710910000000  0.4647760000000  0.4987340000000 1.0
C      1  0.4539320000000  0.4759470000000  0.5434270000000 1.0
C      1  0.4499420000000  0.5133200000000  0.5193200000000 1.0
C      1  0.4489390000000  0.5210310000000  0.4966360000000 1.0
C      1  0.4582210000000  0.4980080000000  0.4652530000000 1.0
C      1  0.5909660000000  0.4618020000000  0.5335050000000 1.0
C      1  0.5932790000000  0.5232110000000  0.5453220000000 1.0
C      1  0.5927720000000  0.5513820000000  0.4942740000000 1.0
C      1  0.5910230000000  0.5098780000000  0.4487430000000 1.0
C      1  0.5892840000000  0.4551970000000  0.4739280000000 1.0
C      1  0.5828240000000  0.5619590000000  0.5209800000000 1.0
C      1  0.5828290000000  0.5384680000000  0.4480750000000 1.0
C      1  0.5795200000000  0.4620950000000  0.4468180000000 1.0
C      1  0.5772020000000  0.4389190000000  0.5191960000000 1.0
C      1  0.5861680000000  0.5001750000000  0.5641610000000 1.0
C      1  0.5402200000000  0.5458790000000  0.5892690000000 1.0
C      1  0.5434660000000  0.5974120000000  0.4795380000000 1.0
C      1  0.5396930000000  0.5124010000000  0.4010510000000 1.0
C      1  0.5425860000000  0.4081440000000  0.4565880000000 1.0
C      1  0.5378850000000  0.4419350000000  0.5733530000000 1.0
C      1  0.5188990000000  0.4479320000000  0.4799430000000 1.0
C      1  0.5277920000000  0.4636120000000  0.5576360000000 1.0
C      1  0.5283380000000  0.5407840000000  0.5483610000000 1.0
C      1  0.5219740000000  0.5583400000000  0.4804930000000 1.0
C      1  0.5186790000000  0.4987920000000  0.4345310000000 1.0
C      1  0.4592450000000  0.5940520000000  0.4721840000000 1.0
C      1  0.4560480000000  0.5090550000000  0.3943790000000 1.0
C      1  0.4603680000000  0.4049910000000  0.4593640000000 1.0
C      1  0.4597370000000  0.4319840000000  0.5820450000000 1.0
C      1  0.4573190000000  0.5533720000000  0.5879820000000 1.0
C      1  0.5417440000000  0.5456070000000  0.5215000000000 1.0
C      1  0.5430770000000  0.5385180000000  0.4698530000000 1.0
C      1  0.5403610000000  0.4908550000000  0.4557940000000 1.0
C      1  0.5369500000000  0.4556240000000  0.5053530000000 1.0
C      1  0.5423020000000  0.4887210000000  0.5496150000000 1.0
C      1  0.5555830000000  0.5712030000000  0.5167220000000 1.0
C      1  0.5548250000000  0.5375870000000  0.4407560000000 1.0
C      1  0.5543220000000  0.4469680000000  0.4463130000000 1.0
C      1  0.5495630000000  0.4347440000000  0.5273130000000 1.0
C      1  0.5684120000000  0.5156080000000  0.5780960000000 1.0
C      1  0.4311410000000  0.4180750000000  0.5413190000000 1.0
C      1  0.4302180000000  0.5061660000000  0.5888230000000 1.0
C      1  0.4300940000000  0.5786630000000  0.5175480000000 1.0
C      1  0.4369700000000  0.5526830000000  0.4210590000000 1.0
C      1  0.4278440000000  0.4436470000000  0.4352290000000 1.0
C      1  0.4567610000000  0.4133840000000  0.5056370000000 1.0
C      1  0.4585310000000  0.4708260000000  0.5712110000000 1.0
C      1  0.4594480000000  0.5597010000000  0.5395350000000 1.0
C      1  0.4636510000000  0.5520870000000  0.4590750000000 1.0
C      1  0.4565790000000  0.4742070000000  0.4228950000000 1.0
C      1  0.5484190000000  0.5826830000000  0.4350900000000 1.0
C      1  0.5422970000000  0.4633510000000  0.4031170000000 1.0
C      1  0.5408110000000  0.3953900000000  0.5006380000000 1.0
C      1  0.5325940000000  0.4941000000000  0.6119270000000 1.0
C      1  0.5420360000000  0.5875270000000  0.5591550000000 1.0
C      1  0.4805780000000  0.5094910000000  0.6072260000000 1.0
C      1  0.4870460000000  0.6147860000000  0.5158720000000 1.0
C      1  0.4853990000000  0.5532300000000  0.4011830000000 1.0
C      1  0.4830630000000  0.4240990000000  0.4200190000000 1.0
C      1  0.4841320000000  0.4000520000000  0.5477390000000 1.0
C      1  0.5135430000000  0.4017500000000  0.4516760000000 1.0
C      1  0.5132360000000  0.4252670000000  0.5795120000000 1.0
C      1  0.5119260000000  0.5441100000000  0.5987010000000 1.0
C      1  0.5144540000000  0.6050310000000  0.4778970000000 1.0
C      1  0.5125370000000  0.5139010000000  0.3873020000000 1.0
C      1  0.4335520000000  0.4624710000000  0.4145210000000 1.0
C      1  0.4338010000000  0.4044360000000  0.5173880000000 1.0
C      1  0.4405300000000  0.4800180000000  0.5914060000000 1.0
C      1  0.4397340000000  0.5800690000000  0.5450280000000 1.0
C      1  0.4507710000000  0.5726350000000  0.4357200000000 1.0
C      1  0.4361420000000  0.4535540000000  0.5808730000000 1.0
C      1  0.4384710000000  0.5560760000000  0.5632500000000 1.0
C      1  0.4446370000000  0.5665410000000  0.4763850000000 1.0
C      1  0.4368950000000  0.4931400000000  0.4132660000000 1.0
C      1  0.4423520000000  0.4148040000000  0.4797450000000 1.0
C      1  0.4711370000000  0.4927890000000  0.4904350000000 1.0
C      1  0.5152850000000  0.5033210000000  0.4965370000000 1.0
END
