TITL C-2441156-4686-727 2.21274685492448e-11 125000 -762.619583940476 0 0 6 (D(inf)h) n - 1
REM
REM in /home/bkarasulu/work/CARBON/AIRSS/Generating-Clusters/ReaxFF-fromJPCA2015/Units_Real/with-SteepDescent/Higher-Symm
REM
REM
REM
REM
REM
REM ./C.cell (1df0a924f5614ab8850e4351716899ee)
REM
REM compiler GCC version 9.2.1 20190827 (Red Hat 9.2.1-1)
REM options -cpp -mtune=generic -march=x86-64 -g -O0 -fpre-include=/usr/include/finclude/math-vector-fortran.h
REM seed -1883722243 715126663 -70835463 476254057 -1855846847 1797153225 1599747232 1441517718 1438761502 -1069806812 -907474834 154681156 887629228 1832480582 1304943762 521662648 53354347 2121958124 623640995 -2017783681 -790282319 80248706 607222191 538895523 -1549816896 -1266804039 1508377345 -1146263525 780963758 1663145824 1024006417 1171529500 -1954123149
REM
CELL 1.54180   50.00000   50.00000   50.00000   90.00000   90.00000   90.00000
LATT -1
SFAC C  
C      1  0.4993970000000  0.4988160000000  0.4616360000000 1.0
C      1  0.4993970000000  0.4988160000000  0.5383640000000 1.0
C      1  0.4993970000000  0.4988160000000  0.5627780000000 1.0
C      1  0.4993970000000  0.4988160000000  0.5126100000000 1.0
C      1  0.4993970000000  0.4988160000000  0.4873900000000 1.0
C      1  0.4993970000000  0.4988160000000  0.4372220000000 1.0
END
