TITL C-2441161-5029-86 0.0121051189854555 125000 -10233.4477049575 0 0 73 (C1) n - 1
REM
REM in /home/bkarasulu/work/CARBON/AIRSS/Generating-Clusters/ReaxFF-fromJPCA2015/Units_Real/with-SteepDescent/Higher-Symm
REM
REM
REM
REM
REM
REM ./C.cell (1df0a924f5614ab8850e4351716899ee)
REM
REM compiler GCC version 9.2.1 20190827 (Red Hat 9.2.1-1)
REM options -cpp -mtune=generic -march=x86-64 -g -O0 -fpre-include=/usr/include/finclude/math-vector-fortran.h
REM seed -566139019 229760417 1513868120 -262211899 1519114006 -1138665963 2134183217 1163059961 146977724 1279077887 -1900822613 425788354 -1335472830 -1194783180 -1985901346 2021219849 -1396740944 -107775383 -635512464 -436553398 199916806 -1348810572 1243965810 -1911183102 770834762 1116369512 -646253613 -2043233812 1998526303 -351413767 1112653579 -2042777899 -604265134
REM
CELL 1.54180   50.00000   50.00000   50.00000   90.00000   90.00000   90.00000
LATT -1
SFAC C  
C      1  0.5333310000000  0.5062610000000  0.5849710000000 1.0
C      1  0.4685490000000  0.5082740000000  0.5847920000000 1.0
C      1  0.5285290000000  0.4557020000000  0.5379030000000 1.0
C      1  0.4719050000000  0.4560640000000  0.5396520000000 1.0
C      1  0.4743400000000  0.5045790000000  0.5116440000000 1.0
C      1  0.5278310000000  0.5039490000000  0.5046040000000 1.0
C      1  0.4301130000000  0.4810010000000  0.4843780000000 1.0
C      1  0.5502500000000  0.4867600000000  0.4899400000000 1.0
C      1  0.5656300000000  0.5153920000000  0.5368060000000 1.0
C      1  0.4335450000000  0.5139750000000  0.5371260000000 1.0
C      1  0.4748640000000  0.4482760000000  0.4984460000000 1.0
C      1  0.5250510000000  0.4482120000000  0.4971690000000 1.0
C      1  0.5684610000000  0.4836220000000  0.5086070000000 1.0
C      1  0.4302570000000  0.4777370000000  0.5111510000000 1.0
C      1  0.5160460000000  0.5433700000000  0.5310020000000 1.0
C      1  0.4866840000000  0.5336640000000  0.5280170000000 1.0
C      1  0.5327520000000  0.5000930000000  0.4369190000000 1.0
C      1  0.4672790000000  0.5011110000000  0.4347000000000 1.0
C      1  0.5592750000000  0.5400980000000  0.4918830000000 1.0
C      1  0.4420060000000  0.5374400000000  0.4904350000000 1.0
C      1  0.4491890000000  0.5191370000000  0.5740820000000 1.0
C      1  0.5525680000000  0.5179860000000  0.5751630000000 1.0
C      1  0.4466350000000  0.5155120000000  0.5103720000000 1.0
C      1  0.5500090000000  0.5219500000000  0.5131170000000 1.0
C      1  0.4854060000000  0.4875380000000  0.4144170000000 1.0
C      1  0.5145270000000  0.4873520000000  0.4144100000000 1.0
C      1  0.5183140000000  0.4396450000000  0.4710070000000 1.0
C      1  0.4813070000000  0.4374760000000  0.4713930000000 1.0
C      1  0.4533950000000  0.4437550000000  0.4797680000000 1.0
C      1  0.5464260000000  0.4434400000000  0.4783350000000 1.0
C      1  0.4444900000000  0.5338250000000  0.5541440000000 1.0
C      1  0.5579880000000  0.5336090000000  0.5564700000000 1.0
C      1  0.4648740000000  0.5297310000000  0.4445850000000 1.0
C      1  0.5376870000000  0.5296980000000  0.4466620000000 1.0
C      1  0.5171270000000  0.5494200000000  0.4501210000000 1.0
C      1  0.4864780000000  0.5484400000000  0.4492320000000 1.0
C      1  0.5594830000000  0.5270350000000  0.4655150000000 1.0
C      1  0.4423830000000  0.5279210000000  0.4631210000000 1.0
C      1  0.4803330000000  0.5621310000000  0.4741280000000 1.0
C      1  0.5238830000000  0.5656780000000  0.4738990000000 1.0
C      1  0.5444500000000  0.5650580000000  0.4946130000000 1.0
C      1  0.4593890000000  0.5601310000000  0.4941590000000 1.0
C      1  0.5144340000000  0.4953750000000  0.5675910000000 1.0
C      1  0.4870230000000  0.4957280000000  0.5682410000000 1.0
C      1  0.4662760000000  0.5488180000000  0.5434200000000 1.0
C      1  0.5374840000000  0.5522520000000  0.5476670000000 1.0
C      1  0.5096110000000  0.5222920000000  0.4892300000000 1.0
C      1  0.4855700000000  0.5065680000000  0.4843210000000 1.0
C      1  0.4290450000000  0.5011040000000  0.4640170000000 1.0
C      1  0.5691890000000  0.4987600000000  0.4705400000000 1.0
C      1  0.5502700000000  0.4686600000000  0.5522470000000 1.0
C      1  0.4511350000000  0.4687160000000  0.5554510000000 1.0
C      1  0.5155380000000  0.4705020000000  0.5143470000000 1.0
C      1  0.4843100000000  0.4716580000000  0.5158400000000 1.0
C      1  0.5137210000000  0.4591040000000  0.4210850000000 1.0
C      1  0.4856600000000  0.4597840000000  0.4222020000000 1.0
C      1  0.5694720000000  0.4847580000000  0.5365840000000 1.0
C      1  0.4326080000000  0.4840010000000  0.5387620000000 1.0
C      1  0.4746410000000  0.5583340000000  0.5182910000000 1.0
C      1  0.5324220000000  0.5654760000000  0.5217030000000 1.0
C      1  0.4423760000000  0.4847800000000  0.4449530000000 1.0
C      1  0.5593710000000  0.4844990000000  0.4470720000000 1.0
C      1  0.4641530000000  0.4814100000000  0.5788200000000 1.0
C      1  0.5374970000000  0.4799360000000  0.5764100000000 1.0
C      1  0.4910830000000  0.4358540000000  0.5479470000000 1.0
C      1  0.5136390000000  0.4322180000000  0.5483300000000 1.0
C      1  0.5233510000000  0.4595010000000  0.4494910000000 1.0
C      1  0.4754130000000  0.4566820000000  0.4485600000000 1.0
C      1  0.4466910000000  0.4577980000000  0.4548860000000 1.0
C      1  0.5547380000000  0.4575170000000  0.4543310000000 1.0
C      1  0.4864570000000  0.4889550000000  0.4597340000000 1.0
C      1  0.5150840000000  0.4883140000000  0.4582890000000 1.0
C      1  0.5031780000000  0.5518340000000  0.4900020000000 1.0
END
