TITL C-2441167-4473-868 0.204395821396503 125000 -14609.8142350418 0 0 140 (C1) n - 1
REM
REM in /home/bkarasulu/work/CARBON/AIRSS/Generating-Clusters/ReaxFF-fromJPCA2015/Units_Real/with-SteepDescent/Higher-Symm
REM
REM
REM
REM
REM
REM ./C.cell (1df0a924f5614ab8850e4351716899ee)
REM
REM compiler GCC version 9.2.1 20190827 (Red Hat 9.2.1-1)
REM options -cpp -mtune=generic -march=x86-64 -g -O0 -fpre-include=/usr/include/finclude/math-vector-fortran.h
REM seed 1318303799 -1472113646 2089917985 144584095 -376928048 1760855367 -1333692655 615394067 -943893432 -1509149597 -146914076 -1039892542 108333506 -1077138134 -273333199 1988137794 83644479 1584767195 -2026820120 -1739913008 -954514108 1254442639 1542295011 -68833775 -1374881908 -218507383 1725088644 -619403730 1787395418 -501990694 1203942476 2115905976 -1165895565
REM
CELL 1.54180   50.00000   50.00000   50.00000   90.00000   90.00000   90.00000
LATT -1
SFAC C  
C      1  0.4224480000000  0.4592860000000  0.5440900000000 1.0
C      1  0.5432620000000  0.4220810000000  0.4596350000000 1.0
C      1  0.4595430000000  0.5431410000000  0.4224650000000 1.0
C      1  0.4225530000000  0.5407280000000  0.4557250000000 1.0
C      1  0.5781980000000  0.5407000000000  0.5440840000000 1.0
C      1  0.5776070000000  0.4597030000000  0.4574500000000 1.0
C      1  0.5434560000000  0.5778150000000  0.5405630000000 1.0
C      1  0.4575090000000  0.5776060000000  0.4593480000000 1.0
C      1  0.4567490000000  0.4219920000000  0.5402820000000 1.0
C      1  0.4598190000000  0.4567870000000  0.5776780000000 1.0
C      1  0.5406070000000  0.4562610000000  0.4226560000000 1.0
C      1  0.5405550000000  0.5436080000000  0.5779460000000 1.0
C      1  0.5781140000000  0.4592780000000  0.5439620000000 1.0
C      1  0.4563200000000  0.4219650000000  0.4594730000000 1.0
C      1  0.5407920000000  0.5433500000000  0.4222190000000 1.0
C      1  0.5781810000000  0.5408150000000  0.4567300000000 1.0
C      1  0.4222940000000  0.5403270000000  0.5427830000000 1.0
C      1  0.4223670000000  0.4596200000000  0.4566180000000 1.0
C      1  0.4566440000000  0.5777020000000  0.5404490000000 1.0
C      1  0.5437140000000  0.5779540000000  0.4595800000000 1.0
C      1  0.5434100000000  0.4220580000000  0.5408250000000 1.0
C      1  0.5408430000000  0.4563380000000  0.5781250000000 1.0
C      1  0.4595380000000  0.4560860000000  0.4223760000000 1.0
C      1  0.4592120000000  0.5443430000000  0.5778940000000 1.0
C      1  0.4725420000000  0.5161120000000  0.5306800000000 1.0
C      1  0.5340910000000  0.4698370000000  0.5128610000000 1.0
C      1  0.5136840000000  0.5346950000000  0.4694550000000 1.0
C      1  0.4687770000000  0.4841980000000  0.4657000000000 1.0
C      1  0.5297480000000  0.4858200000000  0.5349610000000 1.0
C      1  0.5276640000000  0.5119090000000  0.4618300000000 1.0
C      1  0.5362490000000  0.5295310000000  0.4858640000000 1.0
C      1  0.4589800000000  0.5275280000000  0.5103530000000 1.0
C      1  0.4636040000000  0.4703500000000  0.4872910000000 1.0
C      1  0.5134500000000  0.4619130000000  0.5282980000000 1.0
C      1  0.4843200000000  0.4639110000000  0.4692330000000 1.0
C      1  0.4888740000000  0.5375860000000  0.5335450000000 1.0
C      1  0.5294420000000  0.5141060000000  0.5372590000000 1.0
C      1  0.4676450000000  0.4716120000000  0.5149220000000 1.0
C      1  0.4878150000000  0.5421360000000  0.4725780000000 1.0
C      1  0.5272950000000  0.4838940000000  0.4680150000000 1.0
C      1  0.4681880000000  0.4895100000000  0.5373380000000 1.0
C      1  0.4677120000000  0.5102080000000  0.4629010000000 1.0
C      1  0.4696790000000  0.5264770000000  0.4845200000000 1.0
C      1  0.5364520000000  0.5284290000000  0.5143260000000 1.0
C      1  0.5419070000000  0.4728460000000  0.4878070000000 1.0
C      1  0.4876180000000  0.4594030000000  0.5285650000000 1.0
C      1  0.5104670000000  0.4623680000000  0.4683480000000 1.0
C      1  0.5155740000000  0.5373900000000  0.5294760000000 1.0
C      1  0.5128100000000  0.5695990000000  0.4801330000000 1.0
C      1  0.4802890000000  0.5127810000000  0.5704090000000 1.0
C      1  0.5702600000000  0.4800160000000  0.5129150000000 1.0
C      1  0.5132780000000  0.4329380000000  0.5206850000000 1.0
C      1  0.4869970000000  0.4318470000000  0.4797730000000 1.0
C      1  0.4874700000000  0.5643370000000  0.5219560000000 1.0
C      1  0.4799600000000  0.4868470000000  0.4319880000000 1.0
C      1  0.5198890000000  0.4871830000000  0.5684830000000 1.0
C      1  0.5208530000000  0.5123630000000  0.4334080000000 1.0
C      1  0.5671650000000  0.5197910000000  0.4872030000000 1.0
C      1  0.4327370000000  0.5209800000000  0.5117250000000 1.0
C      1  0.4330880000000  0.4793060000000  0.4877310000000 1.0
C      1  0.4878710000000  0.5680210000000  0.4799400000000 1.0
C      1  0.5208360000000  0.5126860000000  0.5669590000000 1.0
C      1  0.4304940000000  0.4806130000000  0.5129100000000 1.0
C      1  0.4872210000000  0.4331340000000  0.5209820000000 1.0
C      1  0.5123550000000  0.4352210000000  0.4784130000000 1.0
C      1  0.5132410000000  0.5666550000000  0.5204630000000 1.0
C      1  0.5200100000000  0.4874050000000  0.4309710000000 1.0
C      1  0.4791660000000  0.4880150000000  0.5656660000000 1.0
C      1  0.4780340000000  0.5120600000000  0.4360580000000 1.0
C      1  0.4280100000000  0.5199340000000  0.4872250000000 1.0
C      1  0.5678150000000  0.5208450000000  0.5130450000000 1.0
C      1  0.5675680000000  0.4796340000000  0.4880930000000 1.0
C      1  0.5144740000000  0.4142920000000  0.4570080000000 1.0
C      1  0.4567580000000  0.5143800000000  0.4148260000000 1.0
C      1  0.4138410000000  0.4571250000000  0.5147850000000 1.0
C      1  0.5145020000000  0.5865340000000  0.5423760000000 1.0
C      1  0.4855180000000  0.5867550000000  0.4561730000000 1.0
C      1  0.4853630000000  0.4134430000000  0.5436520000000 1.0
C      1  0.4568610000000  0.4849930000000  0.5858870000000 1.0
C      1  0.5429940000000  0.4855890000000  0.4136600000000 1.0
C      1  0.5436170000000  0.5146910000000  0.5859200000000 1.0
C      1  0.4130760000000  0.5434710000000  0.4855900000000 1.0
C      1  0.5860670000000  0.5440250000000  0.5150540000000 1.0
C      1  0.5867610000000  0.4564480000000  0.4854720000000 1.0
C      1  0.4852670000000  0.4133020000000  0.4572320000000 1.0
C      1  0.5438910000000  0.5148350000000  0.4140730000000 1.0
C      1  0.5868900000000  0.4565310000000  0.5145810000000 1.0
C      1  0.4854510000000  0.5855230000000  0.5431880000000 1.0
C      1  0.5144220000000  0.5870640000000  0.4567820000000 1.0
C      1  0.5144910000000  0.4136550000000  0.5432280000000 1.0
C      1  0.5428920000000  0.4854550000000  0.5864720000000 1.0
C      1  0.4575700000000  0.4852730000000  0.4135430000000 1.0
C      1  0.4572840000000  0.5144150000000  0.5864120000000 1.0
C      1  0.5864660000000  0.5420530000000  0.4857090000000 1.0
C      1  0.4133940000000  0.5440170000000  0.5148820000000 1.0
C      1  0.4141930000000  0.4567140000000  0.4853450000000 1.0
C      1  0.4251040000000  0.5140670000000  0.4448010000000 1.0
C      1  0.4447630000000  0.4231830000000  0.5138390000000 1.0
C      1  0.5139640000000  0.4446580000000  0.4238500000000 1.0
C      1  0.4239410000000  0.4859020000000  0.5552390000000 1.0
C      1  0.5764080000000  0.4860860000000  0.4451650000000 1.0
C      1  0.5757500000000  0.5138120000000  0.5552680000000 1.0
C      1  0.4454090000000  0.5764580000000  0.4857160000000 1.0
C      1  0.5551530000000  0.5751730000000  0.5141300000000 1.0
C      1  0.5546650000000  0.4244030000000  0.4861250000000 1.0
C      1  0.5139330000000  0.5554700000000  0.5759750000000 1.0
C      1  0.4857920000000  0.5546200000000  0.4252830000000 1.0
C      1  0.4863530000000  0.4456820000000  0.5750420000000 1.0
C      1  0.5756080000000  0.5144020000000  0.4454850000000 1.0
C      1  0.5550470000000  0.4233360000000  0.5144230000000 1.0
C      1  0.4859330000000  0.4443790000000  0.4240100000000 1.0
C      1  0.5764660000000  0.4856200000000  0.5557060000000 1.0
C      1  0.4234130000000  0.4860190000000  0.4443830000000 1.0
C      1  0.4244330000000  0.5140490000000  0.5546410000000 1.0
C      1  0.5555840000000  0.5763040000000  0.4859400000000 1.0
C      1  0.4452940000000  0.5750490000000  0.5140960000000 1.0
C      1  0.4454080000000  0.4247660000000  0.4858410000000 1.0
C      1  0.4857550000000  0.5556910000000  0.5761690000000 1.0
C      1  0.5141950000000  0.5552220000000  0.4234080000000 1.0
C      1  0.5144410000000  0.4447920000000  0.5764630000000 1.0
C      1  0.4182420000000  0.4996650000000  0.4720480000000 1.0
C      1  0.4998800000000  0.5295480000000  0.4195630000000 1.0
C      1  0.5002860000000  0.4710560000000  0.5815770000000 1.0
C      1  0.4177500000000  0.4998380000000  0.5293560000000 1.0
C      1  0.5814920000000  0.5002450000000  0.4709380000000 1.0
C      1  0.5817690000000  0.5004100000000  0.5276250000000 1.0
C      1  0.4719270000000  0.4190900000000  0.4997620000000 1.0
C      1  0.4704640000000  0.5804790000000  0.5008660000000 1.0
C      1  0.5277800000000  0.5812260000000  0.5003190000000 1.0
C      1  0.5291840000000  0.4194570000000  0.5001780000000 1.0
C      1  0.4999660000000  0.4731720000000  0.4189300000000 1.0
C      1  0.5003450000000  0.5277780000000  0.5819780000000 1.0
C      1  0.4456910000000  0.5550750000000  0.4450170000000 1.0
C      1  0.4450600000000  0.4448680000000  0.5550000000000 1.0
C      1  0.5551760000000  0.4447730000000  0.4452690000000 1.0
C      1  0.5552830000000  0.5552630000000  0.5553330000000 1.0
C      1  0.5552060000000  0.5551420000000  0.4451810000000 1.0
C      1  0.5550230000000  0.4448840000000  0.5551730000000 1.0
C      1  0.4451050000000  0.4447900000000  0.4451600000000 1.0
C      1  0.4448980000000  0.5551590000000  0.5548120000000 1.0
END
