TITL C-2441160-1326-11 0.115898867456233 125000 -20877.7765931046 0 0 163 (C1) n - 1
REM
REM in /home/bkarasulu/work/CARBON/AIRSS/Generating-Clusters/ReaxFF-fromJPCA2015/Units_Real/with-SteepDescent/Higher-Symm
REM
REM
REM
REM
REM
REM ./C.cell (1df0a924f5614ab8850e4351716899ee)
REM
REM compiler GCC version 9.2.1 20190827 (Red Hat 9.2.1-1)
REM options -cpp -mtune=generic -march=x86-64 -g -O0 -fpre-include=/usr/include/finclude/math-vector-fortran.h
REM seed -1035549810 -1399526367 84704820 916267142 -1095952108 726842177 487595826 1287432411 -2104742475 -2034695699 572466546 1066694717 1042507852 -624479037 119751873 -348406975 1871008910 -1360568080 -1045285840 942977792 396408100 -1010235773 -296415490 -2081419917 -1543301599 1496516983 1925241182 729395574 -168326352 764083775 -1535340912 1747844627 1645451717
REM
CELL 1.54180   50.00000   50.00000   50.00000   90.00000   90.00000   90.00000
LATT -1
SFAC C  
C      1  0.5370090000000  0.4721510000000  0.4056280000000 1.0
C      1  0.6086170000000  0.4701260000000  0.5126270000000 1.0
C      1  0.5260630000000  0.4730550000000  0.6012160000000 1.0
C      1  0.4138570000000  0.4746490000000  0.5552840000000 1.0
C      1  0.4203360000000  0.4703970000000  0.4270430000000 1.0
C      1  0.5384320000000  0.5279310000000  0.4030000000000 1.0
C      1  0.6097800000000  0.5271610000000  0.5143530000000 1.0
C      1  0.5263590000000  0.5268450000000  0.6021220000000 1.0
C      1  0.4133290000000  0.5291990000000  0.5558090000000 1.0
C      1  0.4193250000000  0.5264770000000  0.4273790000000 1.0
C      1  0.4456740000000  0.5585450000000  0.4944640000000 1.0
C      1  0.4881070000000  0.5666780000000  0.4406090000000 1.0
C      1  0.5491220000000  0.5587970000000  0.4744750000000 1.0
C      1  0.5430060000000  0.5677660000000  0.5413880000000 1.0
C      1  0.4744690000000  0.5686920000000  0.5563020000000 1.0
C      1  0.4447370000000  0.4385340000000  0.4915370000000 1.0
C      1  0.4873340000000  0.4349660000000  0.4411000000000 1.0
C      1  0.5508180000000  0.4362980000000  0.4727510000000 1.0
C      1  0.5383110000000  0.4474000000000  0.5372930000000 1.0
C      1  0.4732000000000  0.4326550000000  0.5553150000000 1.0
C      1  0.5228430000000  0.4846940000000  0.4311680000000 1.0
C      1  0.5829090000000  0.4866540000000  0.5021260000000 1.0
C      1  0.5262920000000  0.4880520000000  0.5772450000000 1.0
C      1  0.4392590000000  0.4860490000000  0.5450330000000 1.0
C      1  0.4297460000000  0.4854410000000  0.4529470000000 1.0
C      1  0.5240380000000  0.5129720000000  0.4236700000000 1.0
C      1  0.5846610000000  0.5145780000000  0.5013810000000 1.0
C      1  0.5227770000000  0.5147970000000  0.5756140000000 1.0
C      1  0.4367920000000  0.5123920000000  0.5515520000000 1.0
C      1  0.4326660000000  0.5135500000000  0.4517000000000 1.0
C      1  0.4549740000000  0.4756790000000  0.4888440000000 1.0
C      1  0.4927500000000  0.4761550000000  0.4709900000000 1.0
C      1  0.5324430000000  0.4751580000000  0.4873860000000 1.0
C      1  0.5322000000000  0.4753720000000  0.5359680000000 1.0
C      1  0.4910670000000  0.4731690000000  0.5198530000000 1.0
C      1  0.4551800000000  0.5301780000000  0.4906390000000 1.0
C      1  0.4974530000000  0.5255360000000  0.4594930000000 1.0
C      1  0.5411380000000  0.5299040000000  0.4825480000000 1.0
C      1  0.5253880000000  0.5273740000000  0.5303210000000 1.0
C      1  0.4764640000000  0.5280460000000  0.5371250000000 1.0
C      1  0.5079530000000  0.5660020000000  0.4765670000000 1.0
C      1  0.5290050000000  0.5638010000000  0.5089350000000 1.0
C      1  0.4955520000000  0.5620960000000  0.5372850000000 1.0
C      1  0.4800740000000  0.5641220000000  0.5133650000000 1.0
C      1  0.4828740000000  0.5605700000000  0.4688270000000 1.0
C      1  0.5115110000000  0.4330640000000  0.4742290000000 1.0
C      1  0.5303730000000  0.4344230000000  0.5131690000000 1.0
C      1  0.4913210000000  0.4433470000000  0.5348600000000 1.0
C      1  0.4829390000000  0.4323000000000  0.5120200000000 1.0
C      1  0.4934790000000  0.4501630000000  0.4646680000000 1.0
C      1  0.4959120000000  0.4454830000000  0.5745640000000 1.0
C      1  0.4331170000000  0.4464990000000  0.5180170000000 1.0
C      1  0.4582900000000  0.4438390000000  0.4387530000000 1.0
C      1  0.5446620000000  0.4452790000000  0.4450480000000 1.0
C      1  0.5673760000000  0.4446710000000  0.5257270000000 1.0
C      1  0.4978960000000  0.5561180000000  0.5758880000000 1.0
C      1  0.4309260000000  0.5590810000000  0.5187800000000 1.0
C      1  0.4587650000000  0.5575600000000  0.4349260000000 1.0
C      1  0.5456570000000  0.5582190000000  0.4447410000000 1.0
C      1  0.5680100000000  0.5556110000000  0.5289480000000 1.0
C      1  0.5084280000000  0.4114840000000  0.5444320000000 1.0
C      1  0.4699760000000  0.4064740000000  0.5170840000000 1.0
C      1  0.4689950000000  0.4054270000000  0.4717440000000 1.0
C      1  0.5159770000000  0.4054640000000  0.4648920000000 1.0
C      1  0.5464600000000  0.4109080000000  0.5078280000000 1.0
C      1  0.5069410000000  0.5892840000000  0.5420220000000 1.0
C      1  0.4652970000000  0.5890100000000  0.5201290000000 1.0
C      1  0.4688050000000  0.5866740000000  0.4718040000000 1.0
C      1  0.5155580000000  0.5919190000000  0.4625700000000 1.0
C      1  0.5426520000000  0.5888070000000  0.5049500000000 1.0
C      1  0.4995920000000  0.4856020000000  0.6056870000000 1.0
C      1  0.4023280000000  0.4868240000000  0.5311260000000 1.0
C      1  0.4421720000000  0.4842110000000  0.4115430000000 1.0
C      1  0.5605460000000  0.4849440000000  0.4165890000000 1.0
C      1  0.5997310000000  0.4826990000000  0.5385900000000 1.0
C      1  0.4994900000000  0.5163380000000  0.6076120000000 1.0
C      1  0.4014350000000  0.5174110000000  0.5313700000000 1.0
C      1  0.4419570000000  0.5156560000000  0.4111710000000 1.0
C      1  0.5626740000000  0.5169310000000  0.4156380000000 1.0
C      1  0.5996580000000  0.5153860000000  0.5395590000000 1.0
C      1  0.4833430000000  0.4646430000000  0.5920430000000 1.0
C      1  0.4134730000000  0.4685040000000  0.5090850000000 1.0
C      1  0.4626760000000  0.4621880000000  0.4166680000000 1.0
C      1  0.5662060000000  0.4634570000000  0.4352140000000 1.0
C      1  0.5802700000000  0.4601060000000  0.5462590000000 1.0
C      1  0.4835850000000  0.5368980000000  0.5926930000000 1.0
C      1  0.4076840000000  0.5402580000000  0.5140740000000 1.0
C      1  0.4624980000000  0.5383490000000  0.4139750000000 1.0
C      1  0.5669310000000  0.5385810000000  0.4349360000000 1.0
C      1  0.5808380000000  0.5378140000000  0.5482030000000 1.0
C      1  0.4861150000000  0.4599850000000  0.3979610000000 1.0
C      1  0.5928020000000  0.4596800000000  0.4511270000000 1.0
C      1  0.5703590000000  0.4602720000000  0.5743340000000 1.0
C      1  0.4527060000000  0.4629520000000  0.5907770000000 1.0
C      1  0.3948780000000  0.4592510000000  0.4847050000000 1.0
C      1  0.4877140000000  0.5417040000000  0.3973280000000 1.0
C      1  0.5915220000000  0.5407000000000  0.4514430000000 1.0
C      1  0.5727160000000  0.5408280000000  0.5766970000000 1.0
C      1  0.4534360000000  0.5383660000000  0.5907780000000 1.0
C      1  0.3974110000000  0.5411360000000  0.4863070000000 1.0
C      1  0.4925720000000  0.4889070000000  0.4262010000000 1.0
C      1  0.5651180000000  0.4857900000000  0.4802220000000 1.0
C      1  0.5453570000000  0.4888320000000  0.5563540000000 1.0
C      1  0.4686470000000  0.4856350000000  0.5543090000000 1.0
C      1  0.4306260000000  0.4848540000000  0.4833890000000 1.0
C      1  0.4983790000000  0.5160800000000  0.4327230000000 1.0
C      1  0.5690290000000  0.5141300000000  0.4764170000000 1.0
C      1  0.5403050000000  0.5175680000000  0.5526820000000 1.0
C      1  0.4636060000000  0.5141280000000  0.5581280000000 1.0
C      1  0.4285110000000  0.5124370000000  0.4822950000000 1.0
C      1  0.6007680000000  0.4858480000000  0.4548630000000 1.0
C      1  0.5684060000000  0.4871550000000  0.5838580000000 1.0
C      1  0.4429240000000  0.4871820000000  0.5935970000000 1.0
C      1  0.3912290000000  0.4858160000000  0.4779480000000 1.0
C      1  0.4915420000000  0.4886390000000  0.3952350000000 1.0
C      1  0.5970530000000  0.5128690000000  0.4593090000000 1.0
C      1  0.5730230000000  0.5143840000000  0.5828290000000 1.0
C      1  0.4461520000000  0.5126970000000  0.5949550000000 1.0
C      1  0.3987810000000  0.5128070000000  0.4772380000000 1.0
C      1  0.4866260000000  0.5154240000000  0.3901180000000 1.0
C      1  0.4446520000000  0.5588940000000  0.5446280000000 1.0
C      1  0.4384130000000  0.5591960000000  0.4554600000000 1.0
C      1  0.5195130000000  0.5586790000000  0.4312080000000 1.0
C      1  0.5744270000000  0.5589030000000  0.5001790000000 1.0
C      1  0.5264900000000  0.5583830000000  0.5693180000000 1.0
C      1  0.4436670000000  0.4438980000000  0.5449750000000 1.0
C      1  0.4381090000000  0.4425930000000  0.4610570000000 1.0
C      1  0.5195470000000  0.4416460000000  0.4301450000000 1.0
C      1  0.5714980000000  0.4444090000000  0.4950850000000 1.0
C      1  0.5238680000000  0.4408300000000  0.5681060000000 1.0
C      1  0.5929320000000  0.4543930000000  0.4794430000000 1.0
C      1  0.5438490000000  0.4525420000000  0.5857350000000 1.0
C      1  0.4326020000000  0.4552540000000  0.5692360000000 1.0
C      1  0.4107490000000  0.4511110000000  0.4621770000000 1.0
C      1  0.5148300000000  0.4520910000000  0.4048060000000 1.0
C      1  0.5885200000000  0.5512780000000  0.4777410000000 1.0
C      1  0.5448000000000  0.5470920000000  0.5883400000000 1.0
C      1  0.4338590000000  0.5482090000000  0.5681330000000 1.0
C      1  0.4158320000000  0.5526900000000  0.4681900000000 1.0
C      1  0.5167800000000  0.5489190000000  0.4055390000000 1.0
C      1  0.4719300000000  0.5171450000000  0.4696700000000 1.0
C      1  0.5226140000000  0.5146580000000  0.4669980000000 1.0
C      1  0.5395930000000  0.5161450000000  0.5084800000000 1.0
C      1  0.5006230000000  0.5147110000000  0.5373460000000 1.0
C      1  0.4643850000000  0.5149920000000  0.5143150000000 1.0
C      1  0.4692900000000  0.4895610000000  0.4685800000000 1.0
C      1  0.5309780000000  0.4889480000000  0.4604390000000 1.0
C      1  0.5410290000000  0.4882500000000  0.5126400000000 1.0
C      1  0.4977510000000  0.4875050000000  0.5448780000000 1.0
C      1  0.4644470000000  0.4865690000000  0.5139530000000 1.0
C      1  0.4798420000000  0.4054840000000  0.5442080000000 1.0
C      1  0.4520300000000  0.4091940000000  0.4932000000000 1.0
C      1  0.4888960000000  0.4057210000000  0.4532070000000 1.0
C      1  0.5420980000000  0.4094120000000  0.4774940000000 1.0
C      1  0.5316580000000  0.3992820000000  0.5319210000000 1.0
C      1  0.4789180000000  0.5966710000000  0.5450000000000 1.0
C      1  0.4500390000000  0.5873540000000  0.4949660000000 1.0
C      1  0.4886460000000  0.5954250000000  0.4519740000000 1.0
C      1  0.5418760000000  0.5871190000000  0.4741190000000 1.0
C      1  0.5342590000000  0.5952530000000  0.5332100000000 1.0
C      1  0.5042860000000  0.5699560000000  0.5000860000000 1.0
C      1  0.5073860000000  0.4350900000000  0.5000710000000 1.0
C      1  0.5053450000000  0.4818820000000  0.4955260000000 1.0
END
