TITL C-2441154-10-17 0.0036725375374914 125000 -2650.66765713075 0 0 22 (C1) n - 1
REM
REM in /home/bkarasulu/work/CARBON/AIRSS/Generating-Clusters/ReaxFF-fromJPCA2015/Units_Real/with-SteepDescent/Higher-Symm
REM
REM
REM
REM
REM
REM ./C.cell (1df0a924f5614ab8850e4351716899ee)
REM
REM compiler GCC version 9.2.1 20190827 (Red Hat 9.2.1-1)
REM options -cpp -mtune=generic -march=x86-64 -g -O0 -fpre-include=/usr/include/finclude/math-vector-fortran.h
REM seed -721674424 1294991459 1909306262 -447875377 194005981 1633157886 -723800669 -139790613 -409671149 -1117089191 -2072606897 -334382198 -2089056661 -1407909096 109394046 -305684785 1957294993 -702022465 2112471414 -852309015 1113865555 -1340741715 161644519 -1080851281 626189980 -717909453 1343896834 993625849 893344644 1612100482 -80394058 -641769323 -1571041256
REM
CELL 1.54180   50.00000   50.00000   50.00000   90.00000   90.00000   90.00000
LATT -1
SFAC C  
C      1  0.4894960000000  0.4898380000000  0.5420030000000 1.0
C      1  0.5280850000000  0.4954410000000  0.5352070000000 1.0
C      1  0.5451240000000  0.4967660000000  0.4999550000000 1.0
C      1  0.5284320000000  0.4970880000000  0.4646040000000 1.0
C      1  0.4883840000000  0.4954170000000  0.4589100000000 1.0
C      1  0.4640720000000  0.4924670000000  0.4746130000000 1.0
C      1  0.4549320000000  0.4871360000000  0.5164000000000 1.0
C      1  0.5554040000000  0.5033000000000  0.4595580000000 1.0
C      1  0.5012060000000  0.5026500000000  0.4329140000000 1.0
C      1  0.4484660000000  0.5041440000000  0.4535420000000 1.0
C      1  0.4344570000000  0.5064680000000  0.5083270000000 1.0
C      1  0.4674410000000  0.5041820000000  0.5545380000000 1.0
C      1  0.5238290000000  0.5043100000000  0.5615780000000 1.0
C      1  0.5653130000000  0.5026690000000  0.5188620000000 1.0
C      1  0.4417560000000  0.5109260000000  0.4809530000000 1.0
C      1  0.4459690000000  0.5080440000000  0.5356350000000 1.0
C      1  0.4959610000000  0.5104580000000  0.5625210000000 1.0
C      1  0.5509600000000  0.5093720000000  0.5421250000000 1.0
C      1  0.5646360000000  0.5096300000000  0.4851240000000 1.0
C      1  0.5279610000000  0.5091970000000  0.4402720000000 1.0
C      1  0.4728960000000  0.5096740000000  0.4387420000000 1.0
C      1  0.4838670000000  0.4878480000000  0.5096770000000 1.0
END
