TITL C-2441159-1093-622 0.0455544158789799 125000 -14204.8783242375 0 0 104 (C1) n - 1
REM
REM in /home/bkarasulu/work/CARBON/AIRSS/Generating-Clusters/ReaxFF-fromJPCA2015/Units_Real/with-SteepDescent/Higher-Symm
REM
REM
REM
REM
REM
REM ./C.cell (1df0a924f5614ab8850e4351716899ee)
REM
REM compiler GCC version 9.2.1 20190827 (Red Hat 9.2.1-1)
REM options -cpp -mtune=generic -march=x86-64 -g -O0 -fpre-include=/usr/include/finclude/math-vector-fortran.h
REM seed 338047622 -1945767746 -2051330773 155995429 -1200845385 -698538421 -1545940874 -38401750 -662238136 -1573699779 -2127412993 -1280387261 -1747000911 -610069089 -251062092 -1311769233 949806386 -1112907851 1203537909 1387373212 -487847693 -531211742 505672086 -645070773 671554534 1902824056 645879731 -1895573655 750978857 990832533 1750337426 -772153870 97374486
REM
CELL 1.54180   50.00000   50.00000   50.00000   90.00000   90.00000   90.00000
LATT -1
SFAC C  
C      1  0.4704500000000  0.5071090000000  0.4702250000000 1.0
C      1  0.5262960000000  0.4925570000000  0.4697060000000 1.0
C      1  0.4691970000000  0.4918590000000  0.5295220000000 1.0
C      1  0.5296510000000  0.5090620000000  0.5312630000000 1.0
C      1  0.4242770000000  0.5190060000000  0.4608340000000 1.0
C      1  0.5767310000000  0.4870010000000  0.4657790000000 1.0
C      1  0.4256480000000  0.4793730000000  0.5413870000000 1.0
C      1  0.5743350000000  0.5186820000000  0.5374480000000 1.0
C      1  0.5045790000000  0.4043430000000  0.4849210000000 1.0
C      1  0.4956400000000  0.5953190000000  0.4856690000000 1.0
C      1  0.5053320000000  0.5959330000000  0.5125710000000 1.0
C      1  0.4954000000000  0.4022500000000  0.5123430000000 1.0
C      1  0.4850630000000  0.4310730000000  0.5474790000000 1.0
C      1  0.5169740000000  0.5694850000000  0.5470270000000 1.0
C      1  0.4804620000000  0.5703360000000  0.4525850000000 1.0
C      1  0.5201810000000  0.4301210000000  0.4523790000000 1.0
C      1  0.5094340000000  0.5665990000000  0.4455540000000 1.0
C      1  0.4914170000000  0.4333330000000  0.4453910000000 1.0
C      1  0.5144660000000  0.4393400000000  0.5554120000000 1.0
C      1  0.4870790000000  0.5624500000000  0.5576430000000 1.0
C      1  0.4614430000000  0.4747120000000  0.4293020000000 1.0
C      1  0.5384950000000  0.5254100000000  0.4286760000000 1.0
C      1  0.4512110000000  0.5171610000000  0.5671660000000 1.0
C      1  0.5399330000000  0.4760910000000  0.5726590000000 1.0
C      1  0.5388060000000  0.4475310000000  0.5394810000000 1.0
C      1  0.4612020000000  0.5577840000000  0.5448160000000 1.0
C      1  0.5418710000000  0.5500190000000  0.4633870000000 1.0
C      1  0.4570320000000  0.4479770000000  0.4619710000000 1.0
C      1  0.4676960000000  0.4516880000000  0.5571230000000 1.0
C      1  0.5338390000000  0.5483860000000  0.5547320000000 1.0
C      1  0.4664900000000  0.5470330000000  0.4465760000000 1.0
C      1  0.5342810000000  0.4542580000000  0.4480920000000 1.0
C      1  0.5288240000000  0.5824440000000  0.5242510000000 1.0
C      1  0.4728910000000  0.4169990000000  0.5248700000000 1.0
C      1  0.5293230000000  0.4157880000000  0.4760800000000 1.0
C      1  0.4709410000000  0.5839670000000  0.4765510000000 1.0
C      1  0.4474380000000  0.5172510000000  0.5188410000000 1.0
C      1  0.5506580000000  0.4900480000000  0.5114520000000 1.0
C      1  0.4513750000000  0.4905360000000  0.4854010000000 1.0
C      1  0.5418150000000  0.5075600000000  0.4893510000000 1.0
C      1  0.4562910000000  0.4631710000000  0.4870880000000 1.0
C      1  0.5448450000000  0.5350130000000  0.4882460000000 1.0
C      1  0.4543120000000  0.5373470000000  0.4983460000000 1.0
C      1  0.5443440000000  0.4625230000000  0.5004190000000 1.0
C      1  0.5688660000000  0.4465330000000  0.4990170000000 1.0
C      1  0.4306770000000  0.5537830000000  0.4971490000000 1.0
C      1  0.5672060000000  0.5501100000000  0.5011240000000 1.0
C      1  0.4348880000000  0.4492750000000  0.5031950000000 1.0
C      1  0.5514950000000  0.5745020000000  0.5057050000000 1.0
C      1  0.4503430000000  0.4245410000000  0.5063830000000 1.0
C      1  0.5524900000000  0.4222580000000  0.4943930000000 1.0
C      1  0.4477160000000  0.5775280000000  0.4947500000000 1.0
C      1  0.5406230000000  0.4247360000000  0.5213560000000 1.0
C      1  0.4595940000000  0.5758620000000  0.5224830000000 1.0
C      1  0.5432710000000  0.5749950000000  0.4779810000000 1.0
C      1  0.4558570000000  0.4231510000000  0.4776220000000 1.0
C      1  0.5139560000000  0.4649310000000  0.4309330000000 1.0
C      1  0.4867340000000  0.5353070000000  0.4306330000000 1.0
C      1  0.5141260000000  0.5343880000000  0.5716000000000 1.0
C      1  0.4874080000000  0.4664110000000  0.5736280000000 1.0
C      1  0.4979350000000  0.4501860000000  0.5134610000000 1.0
C      1  0.5023390000000  0.5493340000000  0.5145240000000 1.0
C      1  0.4993110000000  0.5493530000000  0.4867220000000 1.0
C      1  0.4985110000000  0.4505750000000  0.4856990000000 1.0
C      1  0.4856790000000  0.5377570000000  0.5721870000000 1.0
C      1  0.5155310000000  0.4582720000000  0.5762530000000 1.0
C      1  0.4874240000000  0.4574170000000  0.4294410000000 1.0
C      1  0.5129650000000  0.5420130000000  0.4301890000000 1.0
C      1  0.5823060000000  0.4868150000000  0.5123820000000 1.0
C      1  0.4183830000000  0.5127690000000  0.5090470000000 1.0
C      1  0.5881130000000  0.5092090000000  0.4847490000000 1.0
C      1  0.4217020000000  0.4904870000000  0.4907500000000 1.0
C      1  0.4526720000000  0.4685050000000  0.5379470000000 1.0
C      1  0.5483000000000  0.5318530000000  0.5356670000000 1.0
C      1  0.4532170000000  0.5314360000000  0.4679960000000 1.0
C      1  0.5457860000000  0.4701310000000  0.4705250000000 1.0
C      1  0.5118290000000  0.4252990000000  0.5184660000000 1.0
C      1  0.4886330000000  0.5739010000000  0.5199300000000 1.0
C      1  0.5130560000000  0.5746050000000  0.4745050000000 1.0
C      1  0.4868740000000  0.4245050000000  0.4730760000000 1.0
C      1  0.5591950000000  0.4667390000000  0.5528910000000 1.0
C      1  0.4403950000000  0.5312360000000  0.5448040000000 1.0
C      1  0.5612210000000  0.5349390000000  0.4446740000000 1.0
C      1  0.4386090000000  0.4659790000000  0.4449120000000 1.0
C      1  0.5704890000000  0.4930760000000  0.5504010000000 1.0
C      1  0.4280060000000  0.5046720000000  0.5553910000000 1.0
C      1  0.5716960000000  0.5088250000000  0.4475620000000 1.0
C      1  0.4297130000000  0.4930140000000  0.4495000000000 1.0
C      1  0.4714450000000  0.4988780000000  0.4411980000000 1.0
C      1  0.5276660000000  0.5015280000000  0.4405750000000 1.0
C      1  0.4742150000000  0.5056570000000  0.5570760000000 1.0
C      1  0.5269240000000  0.4975280000000  0.5586730000000 1.0
C      1  0.5850530000000  0.5270770000000  0.5073210000000 1.0
C      1  0.4177970000000  0.4708630000000  0.5138490000000 1.0
C      1  0.5875490000000  0.4683120000000  0.4916390000000 1.0
C      1  0.4140690000000  0.5308810000000  0.4866470000000 1.0
C      1  0.4882590000000  0.5106860000000  0.4216770000000 1.0
C      1  0.5111060000000  0.4902280000000  0.4195850000000 1.0
C      1  0.4869340000000  0.4936620000000  0.5790640000000 1.0
C      1  0.5119250000000  0.5079630000000  0.5806170000000 1.0
C      1  0.5031110000000  0.5197320000000  0.5151350000000 1.0
C      1  0.4943230000000  0.4799310000000  0.5142160000000 1.0
C      1  0.4991610000000  0.4790960000000  0.4849760000000 1.0
C      1  0.4973510000000  0.5208330000000  0.4861370000000 1.0
END
