TITL C-2441162-9305-558 -3.25679433395012e-08 125000 -3002.48131955572 0 0 21 (Cs) n - 1
REM
REM in /home/bkarasulu/work/CARBON/AIRSS/Generating-Clusters/ReaxFF-fromJPCA2015/Units_Real/with-SteepDescent/Higher-Symm
REM
REM
REM
REM
REM
REM ./C.cell (1df0a924f5614ab8850e4351716899ee)
REM
REM compiler GCC version 9.2.1 20190827 (Red Hat 9.2.1-1)
REM options -cpp -mtune=generic -march=x86-64 -g -O0 -fpre-include=/usr/include/finclude/math-vector-fortran.h
REM seed -256878514 -294343754 1055487077 -1604709492 -1926687776 1318203245 -1816518394 1629722170 -1935012546 -335387631 -670578630 -52041592 -1546145173 -1298339802 -2053838035 1532654911 -245367296 -1627522678 247090827 1675980071 1844769369 1535164301 -170770791 1664690986 -1514658911 627284324 1826843948 -47121033 -1757328965 2046769048 1926024188 -418573734 -379372112
REM
CELL 1.54180   50.00000   50.00000   50.00000   90.00000   90.00000   90.00000
LATT -1
SFAC C  
C      1  0.5450700000000  0.4782240000000  0.4941370000000 1.0
C      1  0.4960030000000  0.4599700000000  0.4919750000000 1.0
C      1  0.4580890000000  0.4951990000000  0.4925580000000 1.0
C      1  0.4819000000000  0.5403800000000  0.4925460000000 1.0
C      1  0.5323920000000  0.5290170000000  0.4919560000000 1.0
C      1  0.5431800000000  0.4792280000000  0.5255590000000 1.0
C      1  0.4946190000000  0.4576380000000  0.5226900000000 1.0
C      1  0.4578110000000  0.4944560000000  0.5224990000000 1.0
C      1  0.4823620000000  0.5410420000000  0.5224870000000 1.0
C      1  0.5335400000000  0.5314900000000  0.5226710000000 1.0
C      1  0.4805400000000  0.4814860000000  0.4787280000000 1.0
C      1  0.4646300000000  0.5206130000000  0.4790570000000 1.0
C      1  0.5059000000000  0.5296050000000  0.4787150000000 1.0
C      1  0.5391240000000  0.5035250000000  0.4827550000000 1.0
C      1  0.5208350000000  0.4688230000000  0.4827640000000 1.0
C      1  0.4641490000000  0.5208810000000  0.5347700000000 1.0
C      1  0.5100110000000  0.5448860000000  0.5342300000000 1.0
C      1  0.5449870000000  0.5069300000000  0.5355820000000 1.0
C      1  0.5213520000000  0.4620820000000  0.5355940000000 1.0
C      1  0.4702710000000  0.4694810000000  0.5342500000000 1.0
C      1  0.4884430000000  0.5080600000000  0.4666510000000 1.0
END
