TITL C-2441160-1326-179 0.0426722867838426 125000 -13177.5060011202 0 0 96 (C1) n - 1
REM
REM in /home/bkarasulu/work/CARBON/AIRSS/Generating-Clusters/ReaxFF-fromJPCA2015/Units_Real/with-SteepDescent/Higher-Symm
REM
REM
REM
REM
REM
REM ./C.cell (1df0a924f5614ab8850e4351716899ee)
REM
REM compiler GCC version 9.2.1 20190827 (Red Hat 9.2.1-1)
REM options -cpp -mtune=generic -march=x86-64 -g -O0 -fpre-include=/usr/include/finclude/math-vector-fortran.h
REM seed 1772795391 -59385206 1664797955 -1070405505 2029992156 -1117611825 304701947 1636750538 1966584029 -1286942621 -1838022533 60847888 651901320 -124341924 1030370760 148980443 1256534557 1577266526 1804302355 -756544106 1573845203 -775475547 690201482 107611510 497920124 -142232566 -1296090302 828685363 -1599939170 -2135654575 -441999840 -1848732450 1408962156
REM
CELL 1.54180   50.00000   50.00000   50.00000   90.00000   90.00000   90.00000
LATT -1
SFAC C  
C      1  0.4702680000000  0.4957650000000  0.4736160000000 1.0
C      1  0.5299180000000  0.5067930000000  0.5256990000000 1.0
C      1  0.4345930000000  0.4362450000000  0.4840520000000 1.0
C      1  0.5656790000000  0.5701270000000  0.5175190000000 1.0
C      1  0.5045580000000  0.4930890000000  0.5296810000000 1.0
C      1  0.4941170000000  0.5079290000000  0.4694520000000 1.0
C      1  0.4712290000000  0.5757900000000  0.5207500000000 1.0
C      1  0.5273840000000  0.4250010000000  0.4809810000000 1.0
C      1  0.4285400000000  0.4620400000000  0.5378040000000 1.0
C      1  0.5718580000000  0.5349760000000  0.4620220000000 1.0
C      1  0.4855740000000  0.4697290000000  0.5631210000000 1.0
C      1  0.5134090000000  0.5295180000000  0.4356570000000 1.0
C      1  0.5518220000000  0.5238000000000  0.5672340000000 1.0
C      1  0.4481270000000  0.4761140000000  0.4323290000000 1.0
C      1  0.4172680000000  0.5051450000000  0.4862160000000 1.0
C      1  0.5849700000000  0.4918960000000  0.5151760000000 1.0
C      1  0.5553880000000  0.4918000000000  0.4487230000000 1.0
C      1  0.4444160000000  0.5049980000000  0.5511360000000 1.0
C      1  0.4334580000000  0.5384270000000  0.5185920000000 1.0
C      1  0.5651790000000  0.4608500000000  0.4809970000000 1.0
C      1  0.4789500000000  0.5345180000000  0.5118100000000 1.0
C      1  0.5236610000000  0.4685280000000  0.4924460000000 1.0
C      1  0.4878180000000  0.4758020000000  0.5157490000000 1.0
C      1  0.5094640000000  0.5273090000000  0.4814460000000 1.0
C      1  0.5332310000000  0.5055790000000  0.4084720000000 1.0
C      1  0.4671450000000  0.4922110000000  0.5912390000000 1.0
C      1  0.5589130000000  0.5535750000000  0.4960140000000 1.0
C      1  0.4520910000000  0.4275680000000  0.5033910000000 1.0
C      1  0.5082650000000  0.5425790000000  0.5061710000000 1.0
C      1  0.4942360000000  0.4606570000000  0.4939260000000 1.0
C      1  0.4988710000000  0.4263460000000  0.4737880000000 1.0
C      1  0.4994980000000  0.5752680000000  0.5299860000000 1.0
C      1  0.5092660000000  0.5737660000000  0.5034230000000 1.0
C      1  0.4847300000000  0.4276780000000  0.4994970000000 1.0
C      1  0.5120710000000  0.5089870000000  0.5794020000000 1.0
C      1  0.4880550000000  0.4903140000000  0.4207010000000 1.0
C      1  0.4890860000000  0.5445300000000  0.4305160000000 1.0
C      1  0.5110730000000  0.4563270000000  0.5690840000000 1.0
C      1  0.4751550000000  0.4657130000000  0.4298750000000 1.0
C      1  0.5242580000000  0.5339250000000  0.5697240000000 1.0
C      1  0.5271600000000  0.4793310000000  0.5749660000000 1.0
C      1  0.4723090000000  0.5215530000000  0.4251980000000 1.0
C      1  0.4648080000000  0.5579120000000  0.4707810000000 1.0
C      1  0.5378680000000  0.4413050000000  0.5303320000000 1.0
C      1  0.5280200000000  0.5668390000000  0.4631320000000 1.0
C      1  0.4698920000000  0.4320290000000  0.5397830000000 1.0
C      1  0.5228840000000  0.4521020000000  0.4491990000000 1.0
C      1  0.4766100000000  0.5403140000000  0.5423570000000 1.0
C      1  0.5515960000000  0.4744600000000  0.5599350000000 1.0
C      1  0.4480040000000  0.5257010000000  0.4406170000000 1.0
C      1  0.5454800000000  0.4434970000000  0.4657170000000 1.0
C      1  0.4524030000000  0.5562530000000  0.5342620000000 1.0
C      1  0.5161710000000  0.4369170000000  0.5472710000000 1.0
C      1  0.4874540000000  0.5630350000000  0.4543380000000 1.0
C      1  0.5550760000000  0.5591340000000  0.4665820000000 1.0
C      1  0.4439430000000  0.4373940000000  0.5309130000000 1.0
C      1  0.4916770000000  0.4489070000000  0.4510650000000 1.0
C      1  0.5085230000000  0.5502990000000  0.5488880000000 1.0
C      1  0.4922360000000  0.4963220000000  0.5540470000000 1.0
C      1  0.5053720000000  0.5031790000000  0.4453010000000 1.0
C      1  0.5347680000000  0.5152620000000  0.4778710000000 1.0
C      1  0.4612370000000  0.4856590000000  0.5136830000000 1.0
C      1  0.5742070000000  0.5340430000000  0.5505110000000 1.0
C      1  0.4247720000000  0.4668870000000  0.4490000000000 1.0
C      1  0.4426970000000  0.4775830000000  0.5558930000000 1.0
C      1  0.5517450000000  0.5198460000000  0.4503860000000 1.0
C      1  0.5737250000000  0.4853840000000  0.4689200000000 1.0
C      1  0.4260070000000  0.5130130000000  0.5314950000000 1.0
C      1  0.4135630000000  0.4872100000000  0.4648520000000 1.0
C      1  0.5842740000000  0.5181700000000  0.5263620000000 1.0
C      1  0.5300460000000  0.4794680000000  0.4405710000000 1.0
C      1  0.4705070000000  0.5170060000000  0.5582590000000 1.0
C      1  0.5388590000000  0.5286070000000  0.4224090000000 1.0
C      1  0.4599680000000  0.4693660000000  0.5767670000000 1.0
C      1  0.4943910000000  0.4264100000000  0.5310930000000 1.0
C      1  0.5055180000000  0.5778190000000  0.4724430000000 1.0
C      1  0.4750230000000  0.4645670000000  0.4717790000000 1.0
C      1  0.5270930000000  0.5376900000000  0.5285310000000 1.0
C      1  0.5317870000000  0.4435300000000  0.5038180000000 1.0
C      1  0.4691720000000  0.5576320000000  0.4976900000000 1.0
C      1  0.4184700000000  0.4847010000000  0.5223590000000 1.0
C      1  0.5812290000000  0.5136080000000  0.4796570000000 1.0
C      1  0.4289780000000  0.5327290000000  0.4896850000000 1.0
C      1  0.5718220000000  0.4670170000000  0.5103960000000 1.0
C      1  0.4354670000000  0.4826760000000  0.4987350000000 1.0
C      1  0.5699280000000  0.5275070000000  0.5023340000000 1.0
C      1  0.4663110000000  0.5101930000000  0.5007380000000 1.0
C      1  0.5356010000000  0.4944050000000  0.4969460000000 1.0
C      1  0.5558900000000  0.5531600000000  0.5373920000000 1.0
C      1  0.4442590000000  0.4519900000000  0.4667680000000 1.0
C      1  0.5171560000000  0.4841160000000  0.4123220000000 1.0
C      1  0.4829350000000  0.5143550000000  0.5880290000000 1.0
C      1  0.4428090000000  0.5414220000000  0.4657310000000 1.0
C      1  0.5575630000000  0.4593040000000  0.5353070000000 1.0
C      1  0.4507210000000  0.4989590000000  0.4510560000000 1.0
C      1  0.5504270000000  0.5010160000000  0.5481150000000 1.0
END
