TITL C-2441165-58-1184 0.0854676855427551 125000 -18969.40238807 0 0 138 (C1) n - 1
REM
REM in /home/bkarasulu/work/CARBON/AIRSS/Generating-Clusters/ReaxFF-fromJPCA2015/Units_Real/with-SteepDescent/Higher-Symm
REM
REM
REM
REM
REM
REM ./C.cell (1df0a924f5614ab8850e4351716899ee)
REM
REM compiler GCC version 9.2.1 20190827 (Red Hat 9.2.1-1)
REM options -cpp -mtune=generic -march=x86-64 -g -O0 -fpre-include=/usr/include/finclude/math-vector-fortran.h
REM seed 944665830 -796595277 1728877575 1067338968 1144135299 -894207169 -727479848 -1925079423 -571595500 1622383039 -548140690 704785842 -306812885 -676058294 -42073831 296798257 110801874 -1424007059 -2088159701 -398401179 1298735908 -789946859 -1968605200 -1988118779 -740532301 -220155846 886537589 39007016 1613291380 -147525871 220407566 1896920192 1631094077
REM
CELL 1.54180   50.00000   50.00000   50.00000   90.00000   90.00000   90.00000
LATT -1
SFAC C  
C      1  0.4484100000000  0.5486910000000  0.4715680000000 1.0
C      1  0.5656580000000  0.5237890000000  0.4756150000000 1.0
C      1  0.4924410000000  0.4336190000000  0.4846880000000 1.0
C      1  0.5543830000000  0.5509950000000  0.4696780000000 1.0
C      1  0.4335650000000  0.5225690000000  0.4726690000000 1.0
C      1  0.5191460000000  0.4479050000000  0.4907640000000 1.0
C      1  0.5139480000000  0.6065260000000  0.4985140000000 1.0
C      1  0.5846690000000  0.4334260000000  0.4995470000000 1.0
C      1  0.4039460000000  0.4594000000000  0.4996980000000 1.0
C      1  0.4866880000000  0.6063420000000  0.4985930000000 1.0
C      1  0.4164280000000  0.4349010000000  0.5000490000000 1.0
C      1  0.5980400000000  0.4590160000000  0.5001930000000 1.0
C      1  0.5298720000000  0.5915010000000  0.4802480000000 1.0
C      1  0.5645280000000  0.4281300000000  0.4791750000000 1.0
C      1  0.4090390000000  0.4805690000000  0.4808710000000 1.0
C      1  0.4707930000000  0.5905330000000  0.4807730000000 1.0
C      1  0.4354330000000  0.4276360000000  0.4802820000000 1.0
C      1  0.5929310000000  0.4809940000000  0.4815360000000 1.0
C      1  0.5157350000000  0.4144930000000  0.5323630000000 1.0
C      1  0.4194880000000  0.5306650000000  0.5302230000000 1.0
C      1  0.5699170000000  0.5567150000000  0.5348250000000 1.0
C      1  0.4858500000000  0.4103640000000  0.5321510000000 1.0
C      1  0.5783440000000  0.5299430000000  0.5300200000000 1.0
C      1  0.4286890000000  0.5570820000000  0.5364470000000 1.0
C      1  0.4341200000000  0.4782220000000  0.4651910000000 1.0
C      1  0.5153100000000  0.5701360000000  0.4662700000000 1.0
C      1  0.5505140000000  0.4521670000000  0.4686420000000 1.0
C      1  0.5677200000000  0.4770970000000  0.4669000000000 1.0
C      1  0.4854110000000  0.5691520000000  0.4666700000000 1.0
C      1  0.4458090000000  0.4508610000000  0.4654730000000 1.0
C      1  0.5131360000000  0.4690310000000  0.5387900000000 1.0
C      1  0.4715960000000  0.4938550000000  0.5355840000000 1.0
C      1  0.5134430000000  0.5196020000000  0.5362650000000 1.0
C      1  0.4853730000000  0.4713150000000  0.5446510000000 1.0
C      1  0.5207950000000  0.4942200000000  0.5261100000000 1.0
C      1  0.4843270000000  0.5185910000000  0.5357140000000 1.0
C      1  0.5550340000000  0.4437690000000  0.5324770000000 1.0
C      1  0.4217100000000  0.4840160000000  0.5368120000000 1.0
C      1  0.5228570000000  0.5768370000000  0.5349500000000 1.0
C      1  0.4461130000000  0.4460270000000  0.5321520000000 1.0
C      1  0.5804640000000  0.4841910000000  0.5370410000000 1.0
C      1  0.4770150000000  0.5755180000000  0.5330590000000 1.0
C      1  0.5145270000000  0.5711630000000  0.5607620000000 1.0
C      1  0.5545820000000  0.4538190000000  0.5603820000000 1.0
C      1  0.4311600000000  0.4775750000000  0.5621970000000 1.0
C      1  0.4861500000000  0.5709230000000  0.5604010000000 1.0
C      1  0.4458130000000  0.4545550000000  0.5598240000000 1.0
C      1  0.5688860000000  0.4774310000000  0.5617400000000 1.0
C      1  0.4854140000000  0.5295020000000  0.4893190000000 1.0
C      1  0.5215990000000  0.4974020000000  0.4983280000000 1.0
C      1  0.4779020000000  0.4786680000000  0.4975660000000 1.0
C      1  0.5128480000000  0.5222130000000  0.4850200000000 1.0
C      1  0.4707480000000  0.5041890000000  0.4859830000000 1.0
C      1  0.5080730000000  0.4744920000000  0.4855580000000 1.0
C      1  0.4427320000000  0.5010470000000  0.5730140000000 1.0
C      1  0.5293200000000  0.5497780000000  0.5710890000000 1.0
C      1  0.5263490000000  0.4533520000000  0.5682420000000 1.0
C      1  0.5565670000000  0.5009820000000  0.5715340000000 1.0
C      1  0.4707050000000  0.5496030000000  0.5723260000000 1.0
C      1  0.4743260000000  0.4539500000000  0.5663880000000 1.0
C      1  0.4856140000000  0.5718640000000  0.4366050000000 1.0
C      1  0.5691920000000  0.4749820000000  0.4374510000000 1.0
C      1  0.4451000000000  0.4499720000000  0.4359010000000 1.0
C      1  0.5150790000000  0.5706560000000  0.4367560000000 1.0
C      1  0.4319960000000  0.4764080000000  0.4353610000000 1.0
C      1  0.5529960000000  0.4503310000000  0.4383800000000 1.0
C      1  0.3955770000000  0.4994660000000  0.5001160000000 1.0
C      1  0.5515780000000  0.5910820000000  0.5008840000000 1.0
C      1  0.5508690000000  0.4083700000000  0.4976910000000 1.0
C      1  0.6058290000000  0.5003530000000  0.5011040000000 1.0
C      1  0.4491490000000  0.5905600000000  0.5013980000000 1.0
C      1  0.4479530000000  0.4092030000000  0.5004280000000 1.0
C      1  0.4656030000000  0.5357270000000  0.5240230000000 1.0
C      1  0.5551720000000  0.5180260000000  0.5082310000000 1.0
C      1  0.4852470000000  0.4381960000000  0.5133210000000 1.0
C      1  0.5319860000000  0.5330340000000  0.5197090000000 1.0
C      1  0.4427640000000  0.5215650000000  0.5124670000000 1.0
C      1  0.5139740000000  0.4439160000000  0.5193320000000 1.0
C      1  0.5105380000000  0.4774130000000  0.4569150000000 1.0
C      1  0.4693960000000  0.4986260000000  0.4565690000000 1.0
C      1  0.5129200000000  0.5209500000000  0.4561750000000 1.0
C      1  0.4845320000000  0.4761100000000  0.4456910000000 1.0
C      1  0.5276080000000  0.4978740000000  0.4470780000000 1.0
C      1  0.4857200000000  0.5208160000000  0.4458020000000 1.0
C      1  0.5236110000000  0.4026800000000  0.4974100000000 1.0
C      1  0.3984340000000  0.5266680000000  0.5089140000000 1.0
C      1  0.5716250000000  0.5728210000000  0.5109130000000 1.0
C      1  0.4748710000000  0.4005760000000  0.5035110000000 1.0
C      1  0.6004520000000  0.5270390000000  0.5093970000000 1.0
C      1  0.4291320000000  0.5722990000000  0.5115280000000 1.0
C      1  0.5913870000000  0.5373280000000  0.4838850000000 1.0
C      1  0.4876990000000  0.4049990000000  0.4768640000000 1.0
C      1  0.4244060000000  0.5611660000000  0.4848870000000 1.0
C      1  0.4088060000000  0.5357870000000  0.4838890000000 1.0
C      1  0.5165080000000  0.4029000000000  0.4695150000000 1.0
C      1  0.5775200000000  0.5633290000000  0.4839650000000 1.0
C      1  0.4855960000000  0.5250320000000  0.4144520000000 1.0
C      1  0.5300390000000  0.4986240000000  0.4167110000000 1.0
C      1  0.4849440000000  0.4736630000000  0.4150530000000 1.0
C      1  0.5163160000000  0.5254830000000  0.4127380000000 1.0
C      1  0.4691090000000  0.4996100000000  0.4111110000000 1.0
C      1  0.5154890000000  0.4707230000000  0.4151690000000 1.0
C      1  0.4317580000000  0.4232850000000  0.5213850000000 1.0
C      1  0.4693110000000  0.6003470000000  0.5210660000000 1.0
C      1  0.6042660000000  0.4789050000000  0.5216320000000 1.0
C      1  0.5676930000000  0.4204230000000  0.5197260000000 1.0
C      1  0.5312950000000  0.6004640000000  0.5207270000000 1.0
C      1  0.3984120000000  0.4780990000000  0.5209450000000 1.0
C      1  0.4302230000000  0.5242960000000  0.5618780000000 1.0
C      1  0.5563340000000  0.5487790000000  0.5595640000000 1.0
C      1  0.5136790000000  0.4259090000000  0.5600660000000 1.0
C      1  0.5698670000000  0.5240080000000  0.5601580000000 1.0
C      1  0.4430900000000  0.5491340000000  0.5613350000000 1.0
C      1  0.4858130000000  0.4242800000000  0.5595420000000 1.0
C      1  0.4896140000000  0.4305780000000  0.4364200000000 1.0
C      1  0.4480340000000  0.5471100000000  0.4416710000000 1.0
C      1  0.5661180000000  0.5205220000000  0.4432820000000 1.0
C      1  0.5118020000000  0.4229990000000  0.4460970000000 1.0
C      1  0.5533480000000  0.5457830000000  0.4404040000000 1.0
C      1  0.4343100000000  0.5217010000000  0.4426170000000 1.0
C      1  0.5614910000000  0.4995020000000  0.4240510000000 1.0
C      1  0.4705620000000  0.4449620000000  0.4222780000000 1.0
C      1  0.4698580000000  0.5516850000000  0.4231790000000 1.0
C      1  0.4432110000000  0.5006520000000  0.4228890000000 1.0
C      1  0.5261860000000  0.4474160000000  0.4269720000000 1.0
C      1  0.5293540000000  0.5484790000000  0.4230060000000 1.0
C      1  0.5597550000000  0.4883990000000  0.5162670000000 1.0
C      1  0.4625230000000  0.4584390000000  0.5100840000000 1.0
C      1  0.4853240000000  0.5545080000000  0.5123050000000 1.0
C      1  0.4450330000000  0.4942240000000  0.5222540000000 1.0
C      1  0.5477080000000  0.4635900000000  0.5124560000000 1.0
C      1  0.5151110000000  0.5555860000000  0.5169350000000 1.0
C      1  0.4858660000000  0.4766810000000  0.5858750000000 1.0
C      1  0.4854360000000  0.5263990000000  0.5817440000000 1.0
C      1  0.5291270000000  0.5014640000000  0.5818730000000 1.0
C      1  0.5142150000000  0.4764820000000  0.5845230000000 1.0
C      1  0.5148000000000  0.5265790000000  0.5810830000000 1.0
C      1  0.4707500000000  0.5010520000000  0.5834950000000 1.0
END
