TITL C-2441159-1093-691 0.0094704665356513 125000 -11996.4868618279 0 0 83 (C1) n - 1
REM
REM in /home/bkarasulu/work/CARBON/AIRSS/Generating-Clusters/ReaxFF-fromJPCA2015/Units_Real/with-SteepDescent/Higher-Symm
REM
REM
REM
REM
REM
REM ./C.cell (1df0a924f5614ab8850e4351716899ee)
REM
REM compiler GCC version 9.2.1 20190827 (Red Hat 9.2.1-1)
REM options -cpp -mtune=generic -march=x86-64 -g -O0 -fpre-include=/usr/include/finclude/math-vector-fortran.h
REM seed -467685737 1865296974 -204806381 -1777422080 -165695579 -1882613375 -1832491897 1802373748 1689844002 171738802 -2029306478 -763003227 -1394863033 1079316975 596434324 747731344 -412562658 363206943 839814238 -1923308479 1779464805 -488206675 -263819746 -820344027 -774356127 -1520350492 484793815 -585046620 638237717 -1587895185 -999005120 -1686601293 -1578314053
REM
CELL 1.54180   50.00000   50.00000   50.00000   90.00000   90.00000   90.00000
LATT -1
SFAC C  
C      1  0.4264490000000  0.5208080000000  0.5266640000000 1.0
C      1  0.5272890000000  0.4245960000000  0.5292000000000 1.0
C      1  0.5365940000000  0.5337710000000  0.4311740000000 1.0
C      1  0.5747380000000  0.4708240000000  0.5228970000000 1.0
C      1  0.5776000000000  0.5287430000000  0.4758210000000 1.0
C      1  0.4168920000000  0.4679870000000  0.4740660000000 1.0
C      1  0.4730460000000  0.5794190000000  0.5299260000000 1.0
C      1  0.4758480000000  0.4194330000000  0.4691350000000 1.0
C      1  0.5190240000000  0.5780460000000  0.4692270000000 1.0
C      1  0.4689780000000  0.4772440000000  0.4168210000000 1.0
C      1  0.4803420000000  0.5273070000000  0.5792810000000 1.0
C      1  0.5336730000000  0.4816870000000  0.5880550000000 1.0
C      1  0.4171290000000  0.4945670000000  0.5162630000000 1.0
C      1  0.5232310000000  0.4187660000000  0.4874740000000 1.0
C      1  0.4881670000000  0.5243690000000  0.4184580000000 1.0
C      1  0.5794040000000  0.5121280000000  0.5164640000000 1.0
C      1  0.5837910000000  0.4870830000000  0.4756390000000 1.0
C      1  0.4257200000000  0.5080750000000  0.4723090000000 1.0
C      1  0.4720680000000  0.5811310000000  0.4876620000000 1.0
C      1  0.4768090000000  0.4220970000000  0.5094570000000 1.0
C      1  0.5155710000000  0.5826490000000  0.5102290000000 1.0
C      1  0.5086280000000  0.4789510000000  0.4265510000000 1.0
C      1  0.5066850000000  0.5171500000000  0.5856790000000 1.0
C      1  0.4939600000000  0.4701890000000  0.5803810000000 1.0
C      1  0.5079090000000  0.5427980000000  0.4295020000000 1.0
C      1  0.4414130000000  0.5226360000000  0.5523670000000 1.0
C      1  0.5437230000000  0.4277360000000  0.5072940000000 1.0
C      1  0.4820320000000  0.4588330000000  0.4391020000000 1.0
C      1  0.4758120000000  0.5522860000000  0.5625320000000 1.0
C      1  0.5135560000000  0.4506940000000  0.5674190000000 1.0
C      1  0.5565860000000  0.4757020000000  0.5468890000000 1.0
C      1  0.5740060000000  0.5079790000000  0.4571020000000 1.0
C      1  0.4387570000000  0.4815360000000  0.4554900000000 1.0
C      1  0.4567220000000  0.5689720000000  0.5097930000000 1.0
C      1  0.4574420000000  0.4416980000000  0.4803670000000 1.0
C      1  0.5458870000000  0.5652450000000  0.4729880000000 1.0
C      1  0.4784680000000  0.5177510000000  0.4585780000000 1.0
C      1  0.4619860000000  0.4797440000000  0.5157130000000 1.0
C      1  0.5157260000000  0.4616420000000  0.4796750000000 1.0
C      1  0.5168760000000  0.4911410000000  0.4740710000000 1.0
C      1  0.5201180000000  0.5181540000000  0.5387690000000 1.0
C      1  0.4803310000000  0.4874180000000  0.5358940000000 1.0
C      1  0.5361890000000  0.5249080000000  0.5175990000000 1.0
C      1  0.5385640000000  0.4766930000000  0.4890950000000 1.0
C      1  0.4735510000000  0.5181760000000  0.4863690000000 1.0
C      1  0.4877680000000  0.5386470000000  0.4729990000000 1.0
C      1  0.4852850000000  0.4646480000000  0.5208920000000 1.0
C      1  0.5152440000000  0.5406780000000  0.5247940000000 1.0
C      1  0.5176760000000  0.4364830000000  0.4647870000000 1.0
C      1  0.4639790000000  0.5184190000000  0.4340500000000 1.0
C      1  0.4339130000000  0.4707390000000  0.5158060000000 1.0
C      1  0.4782300000000  0.5647850000000  0.4644860000000 1.0
C      1  0.4825200000000  0.4372250000000  0.5323070000000 1.0
C      1  0.5177750000000  0.5687430000000  0.5341650000000 1.0
C      1  0.5284930000000  0.4894760000000  0.4436320000000 1.0
C      1  0.5280960000000  0.5163770000000  0.5658440000000 1.0
C      1  0.4730510000000  0.4830970000000  0.5644840000000 1.0
C      1  0.5639430000000  0.5355010000000  0.5167240000000 1.0
C      1  0.5647790000000  0.4656580000000  0.4803730000000 1.0
C      1  0.4417660000000  0.5273640000000  0.4855000000000 1.0
C      1  0.4317250000000  0.4520310000000  0.4932030000000 1.0
C      1  0.4929500000000  0.4325710000000  0.4493910000000 1.0
C      1  0.4490420000000  0.4936740000000  0.4295530000000 1.0
C      1  0.5673060000000  0.5507160000000  0.4900850000000 1.0
C      1  0.5663420000000  0.4494710000000  0.5047400000000 1.0
C      1  0.4363420000000  0.5426220000000  0.5090390000000 1.0
C      1  0.5021040000000  0.5665320000000  0.4472100000000 1.0
C      1  0.5067270000000  0.4282620000000  0.5483930000000 1.0
C      1  0.4924090000000  0.5739280000000  0.5499600000000 1.0
C      1  0.5501830000000  0.5075930000000  0.4375850000000 1.0
C      1  0.5496210000000  0.4960230000000  0.5692290000000 1.0
C      1  0.4599830000000  0.5080780000000  0.5715550000000 1.0
C      1  0.4943050000000  0.4103150000000  0.4907940000000 1.0
C      1  0.4914180000000  0.4955770000000  0.4107070000000 1.0
C      1  0.4077760000000  0.4920890000000  0.4884180000000 1.0
C      1  0.5013580000000  0.5916790000000  0.4889930000000 1.0
C      1  0.5904050000000  0.4897810000000  0.5056960000000 1.0
C      1  0.5079550000000  0.4898490000000  0.5974940000000 1.0
C      1  0.5474870000000  0.5468110000000  0.4530590000000 1.0
C      1  0.5363010000000  0.4585230000000  0.5524640000000 1.0
C      1  0.4549320000000  0.5456600000000  0.5448650000000 1.0
C      1  0.4620440000000  0.4626870000000  0.4612000000000 1.0
C      1  0.4942820000000  0.4972430000000  0.4988470000000 1.0
END
