TITL C-2441159-1093-442 0.0674411886200868 125000 -13309.9631700188 0 0 102 (C1) n - 1
REM
REM in /home/bkarasulu/work/CARBON/AIRSS/Generating-Clusters/ReaxFF-fromJPCA2015/Units_Real/with-SteepDescent/Higher-Symm
REM
REM
REM
REM
REM
REM ./C.cell (1df0a924f5614ab8850e4351716899ee)
REM
REM compiler GCC version 9.2.1 20190827 (Red Hat 9.2.1-1)
REM options -cpp -mtune=generic -march=x86-64 -g -O0 -fpre-include=/usr/include/finclude/math-vector-fortran.h
REM seed -1696328734 910004969 -1072514939 -640842230 40103973 -567489534 73977673 276278784 375865518 64267162 1080241166 1816607834 -401402733 1088174276 -585730079 1675111437 -1890094752 -1653474918 -798705948 -741164476 -2055162044 2128666525 589625260 1496857782 144453436 -1378632930 1434749609 -2019996388 46998825 1638532627 290137307 -70760026 -3188714
REM
CELL 1.54180   50.00000   50.00000   50.00000   90.00000   90.00000   90.00000
LATT -1
SFAC C  
C      1  0.4640900000000  0.5251090000000  0.5721610000000 1.0
C      1  0.5356370000000  0.4748650000000  0.5720880000000 1.0
C      1  0.4642640000000  0.5250240000000  0.4295430000000 1.0
C      1  0.5356860000000  0.4747940000000  0.4292660000000 1.0
C      1  0.4640610000000  0.4748730000000  0.5723310000000 1.0
C      1  0.5360640000000  0.5251140000000  0.5724370000000 1.0
C      1  0.4642270000000  0.4745770000000  0.4292840000000 1.0
C      1  0.5356930000000  0.5251810000000  0.4293820000000 1.0
C      1  0.4372570000000  0.4704890000000  0.5152510000000 1.0
C      1  0.5624970000000  0.5302220000000  0.5160690000000 1.0
C      1  0.4372250000000  0.4714720000000  0.4861800000000 1.0
C      1  0.5628730000000  0.5283450000000  0.4869060000000 1.0
C      1  0.4378710000000  0.5287860000000  0.5151180000000 1.0
C      1  0.5622910000000  0.4710140000000  0.5150160000000 1.0
C      1  0.4374240000000  0.5285360000000  0.4863050000000 1.0
C      1  0.5625940000000  0.4711240000000  0.4861280000000 1.0
C      1  0.4839300000000  0.4741240000000  0.4853160000000 1.0
C      1  0.5160030000000  0.5260750000000  0.4848460000000 1.0
C      1  0.4855100000000  0.4862220000000  0.5137970000000 1.0
C      1  0.5144950000000  0.5142100000000  0.5135250000000 1.0
C      1  0.4843690000000  0.5266770000000  0.4849420000000 1.0
C      1  0.5156570000000  0.4733440000000  0.4851100000000 1.0
C      1  0.4858460000000  0.5170490000000  0.5146940000000 1.0
C      1  0.5142730000000  0.4830720000000  0.5147370000000 1.0
C      1  0.5133130000000  0.5625860000000  0.5136300000000 1.0
C      1  0.4865130000000  0.4379740000000  0.5145000000000 1.0
C      1  0.5195880000000  0.5552680000000  0.4883990000000 1.0
C      1  0.4803750000000  0.4451010000000  0.4888600000000 1.0
C      1  0.5135610000000  0.4369710000000  0.5136820000000 1.0
C      1  0.4863430000000  0.5629140000000  0.5139310000000 1.0
C      1  0.5196810000000  0.4441510000000  0.4885410000000 1.0
C      1  0.4803080000000  0.5557850000000  0.4886000000000 1.0
C      1  0.5135890000000  0.4608810000000  0.4384200000000 1.0
C      1  0.4863080000000  0.5394180000000  0.4378220000000 1.0
C      1  0.5134190000000  0.4619140000000  0.5622410000000 1.0
C      1  0.4864270000000  0.5385030000000  0.5628160000000 1.0
C      1  0.5133250000000  0.5398320000000  0.4374360000000 1.0
C      1  0.4865780000000  0.4608220000000  0.4381870000000 1.0
C      1  0.5134490000000  0.5377380000000  0.5624010000000 1.0
C      1  0.4862860000000  0.4614640000000  0.5629120000000 1.0
C      1  0.4239390000000  0.4842050000000  0.4484840000000 1.0
C      1  0.5760040000000  0.5157880000000  0.4487420000000 1.0
C      1  0.4239390000000  0.4841420000000  0.5531210000000 1.0
C      1  0.5765160000000  0.5152520000000  0.5535930000000 1.0
C      1  0.4240550000000  0.5155780000000  0.4484390000000 1.0
C      1  0.5759660000000  0.4844950000000  0.4483100000000 1.0
C      1  0.4240060000000  0.5157070000000  0.5531030000000 1.0
C      1  0.5761360000000  0.4840900000000  0.5530870000000 1.0
C      1  0.4601740000000  0.5141940000000  0.4750680000000 1.0
C      1  0.5398550000000  0.4856820000000  0.4750520000000 1.0
C      1  0.4601830000000  0.5135250000000  0.5264930000000 1.0
C      1  0.5400470000000  0.4862110000000  0.5265420000000 1.0
C      1  0.4599470000000  0.4862000000000  0.4749170000000 1.0
C      1  0.5402010000000  0.5136670000000  0.4751890000000 1.0
C      1  0.4599610000000  0.4851360000000  0.5270760000000 1.0
C      1  0.5399240000000  0.5146840000000  0.5269710000000 1.0
C      1  0.5437600000000  0.5708470000000  0.4857090000000 1.0
C      1  0.4564220000000  0.4292370000000  0.4859690000000 1.0
C      1  0.5402810000000  0.5729550000000  0.5165860000000 1.0
C      1  0.4596010000000  0.4272510000000  0.5169110000000 1.0
C      1  0.5441940000000  0.4292580000000  0.4858640000000 1.0
C      1  0.4559020000000  0.5709360000000  0.4857900000000 1.0
C      1  0.5406140000000  0.4271360000000  0.5168980000000 1.0
C      1  0.4593560000000  0.5730550000000  0.5167760000000 1.0
C      1  0.5430910000000  0.5615460000000  0.4576440000000 1.0
C      1  0.4571500000000  0.4385800000000  0.4579150000000 1.0
C      1  0.5422620000000  0.5610730000000  0.5438210000000 1.0
C      1  0.4577040000000  0.4387910000000  0.5444300000000 1.0
C      1  0.5433360000000  0.4387250000000  0.4577910000000 1.0
C      1  0.4568360000000  0.5614350000000  0.4577790000000 1.0
C      1  0.5420560000000  0.4392500000000  0.5438800000000 1.0
C      1  0.4577660000000  0.5610270000000  0.5439800000000 1.0
C      1  0.4437480000000  0.4626080000000  0.4443410000000 1.0
C      1  0.5561460000000  0.5372160000000  0.4443910000000 1.0
C      1  0.4435140000000  0.4623730000000  0.5578910000000 1.0
C      1  0.5570060000000  0.5374640000000  0.5571940000000 1.0
C      1  0.4436030000000  0.5371610000000  0.4441870000000 1.0
C      1  0.5564530000000  0.4628890000000  0.4439680000000 1.0
C      1  0.4433100000000  0.5376000000000  0.5575060000000 1.0
C      1  0.5563000000000  0.4624560000000  0.5573330000000 1.0
C      1  0.4134170000000  0.4850440000000  0.4754780000000 1.0
C      1  0.5864040000000  0.5147030000000  0.4757930000000 1.0
C      1  0.4137970000000  0.4849150000000  0.5260960000000 1.0
C      1  0.5859440000000  0.5151640000000  0.5263570000000 1.0
C      1  0.4136210000000  0.5151660000000  0.4754100000000 1.0
C      1  0.5863720000000  0.4845680000000  0.4752770000000 1.0
C      1  0.4140480000000  0.5151110000000  0.5260540000000 1.0
C      1  0.5859330000000  0.4849560000000  0.5259030000000 1.0
C      1  0.5155110000000  0.5650320000000  0.5556390000000 1.0
C      1  0.4841440000000  0.4337660000000  0.5561020000000 1.0
C      1  0.5152760000000  0.5661460000000  0.4475320000000 1.0
C      1  0.4849200000000  0.4341910000000  0.4475590000000 1.0
C      1  0.5151200000000  0.4346040000000  0.5555260000000 1.0
C      1  0.4845960000000  0.5658010000000  0.5555580000000 1.0
C      1  0.5154900000000  0.4344150000000  0.4477310000000 1.0
C      1  0.4847220000000  0.5656060000000  0.4475600000000 1.0
C      1  0.5270860000000  0.4999830000000  0.4191020000000 1.0
C      1  0.4728330000000  0.4998360000000  0.4192150000000 1.0
C      1  0.5274390000000  0.5000450000000  0.5827760000000 1.0
C      1  0.4729590000000  0.4999370000000  0.5820480000000 1.0
C      1  0.5002470000000  0.5000280000000  0.5824290000000 1.0
C      1  0.4999580000000  0.4999380000000  0.4191670000000 1.0
END
