TITL C-2441164-471-219 0.162835411911271 125000 -17505.4718698045 0 0 151 (C1) n - 1
REM
REM in /home/bkarasulu/work/CARBON/AIRSS/Generating-Clusters/ReaxFF-fromJPCA2015/Units_Real/with-SteepDescent/Higher-Symm
REM
REM
REM
REM
REM
REM ./C.cell (1df0a924f5614ab8850e4351716899ee)
REM
REM compiler GCC version 9.2.1 20190827 (Red Hat 9.2.1-1)
REM options -cpp -mtune=generic -march=x86-64 -g -O0 -fpre-include=/usr/include/finclude/math-vector-fortran.h
REM seed -592974018 394342832 -1613089633 1177348514 308371825 1095767431 1443917818 -969498450 -449481916 -985731115 900565648 -571899195 1693584364 -630715597 -138668954 1746722437 1008230365 2044780063 -478900217 513981905 -943013798 -1795814085 1861988002 1905543380 -2068321120 -1857141544 -1115305137 255262127 -925438901 1775422928 -123876117 1662993529 998999161
REM
CELL 1.54180   50.00000   50.00000   50.00000   90.00000   90.00000   90.00000
LATT -1
SFAC C  
C      1  0.4327760000000  0.5169300000000  0.5787930000000 1.0
C      1  0.4260020000000  0.4920150000000  0.4181290000000 1.0
C      1  0.5714160000000  0.5109920000000  0.5756440000000 1.0
C      1  0.5682760000000  0.4821490000000  0.4199840000000 1.0
C      1  0.4745600000000  0.5445060000000  0.4230480000000 1.0
C      1  0.4861450000000  0.4521880000000  0.5732300000000 1.0
C      1  0.5240490000000  0.5487760000000  0.4271570000000 1.0
C      1  0.5139390000000  0.4526960000000  0.5740410000000 1.0
C      1  0.4877390000000  0.5265550000000  0.4055240000000 1.0
C      1  0.4843420000000  0.4742670000000  0.5931580000000 1.0
C      1  0.5150560000000  0.5303020000000  0.4075670000000 1.0
C      1  0.5139560000000  0.4750680000000  0.5938430000000 1.0
C      1  0.5559070000000  0.5844910000000  0.4823950000000 1.0
C      1  0.5544380000000  0.4186550000000  0.5212040000000 1.0
C      1  0.4467840000000  0.5833960000000  0.4775610000000 1.0
C      1  0.4477460000000  0.4181980000000  0.5193910000000 1.0
C      1  0.4495960000000  0.5686300000000  0.4526920000000 1.0
C      1  0.4463870000000  0.4295600000000  0.5462450000000 1.0
C      1  0.5598620000000  0.5649350000000  0.4607400000000 1.0
C      1  0.5544230000000  0.4298210000000  0.5480460000000 1.0
C      1  0.5837800000000  0.4525580000000  0.5133280000000 1.0
C      1  0.5849880000000  0.5416690000000  0.4965780000000 1.0
C      1  0.4148520000000  0.4616270000000  0.5085090000000 1.0
C      1  0.4169280000000  0.5579920000000  0.4880660000000 1.0
C      1  0.4667850000000  0.4935720000000  0.5145320000000 1.0
C      1  0.4597900000000  0.4973190000000  0.4877040000000 1.0
C      1  0.5459670000000  0.4959340000000  0.5069300000000 1.0
C      1  0.5375580000000  0.5067490000000  0.4825520000000 1.0
C      1  0.5936920000000  0.4782570000000  0.5201190000000 1.0
C      1  0.5948820000000  0.5206970000000  0.4795560000000 1.0
C      1  0.4023470000000  0.4831500000000  0.5208510000000 1.0
C      1  0.4157430000000  0.5181250000000  0.4819050000000 1.0
C      1  0.5705370000000  0.4517720000000  0.5579210000000 1.0
C      1  0.5725900000000  0.5485440000000  0.4412350000000 1.0
C      1  0.4311430000000  0.4520670000000  0.5558680000000 1.0
C      1  0.4329530000000  0.5467270000000  0.4444660000000 1.0
C      1  0.5701000000000  0.4457490000000  0.4758610000000 1.0
C      1  0.5573530000000  0.5470910000000  0.5250180000000 1.0
C      1  0.4383530000000  0.4406050000000  0.4861220000000 1.0
C      1  0.4399450000000  0.5480670000000  0.5182670000000 1.0
C      1  0.5131760000000  0.5770770000000  0.5572750000000 1.0
C      1  0.5143960000000  0.4233790000000  0.4461950000000 1.0
C      1  0.4847310000000  0.5751710000000  0.5535580000000 1.0
C      1  0.4865020000000  0.4275430000000  0.4467800000000 1.0
C      1  0.5669740000000  0.4926340000000  0.5499170000000 1.0
C      1  0.5681940000000  0.5059580000000  0.4525030000000 1.0
C      1  0.4335240000000  0.4911110000000  0.5455390000000 1.0
C      1  0.4246210000000  0.5001130000000  0.4443920000000 1.0
C      1  0.4454410000000  0.4393490000000  0.4590970000000 1.0
C      1  0.4473300000000  0.5579980000000  0.5449410000000 1.0
C      1  0.5506320000000  0.4381800000000  0.4562730000000 1.0
C      1  0.5588860000000  0.5640790000000  0.5497890000000 1.0
C      1  0.5627760000000  0.5765520000000  0.5097450000000 1.0
C      1  0.5656830000000  0.4224000000000  0.4942610000000 1.0
C      1  0.4296740000000  0.5794630000000  0.5018240000000 1.0
C      1  0.4363110000000  0.4130230000000  0.4935080000000 1.0
C      1  0.4371470000000  0.5369430000000  0.4901660000000 1.0
C      1  0.4425760000000  0.4576940000000  0.5074710000000 1.0
C      1  0.5602110000000  0.5443950000000  0.4814490000000 1.0
C      1  0.5586200000000  0.4588390000000  0.5124390000000 1.0
C      1  0.5872640000000  0.4693420000000  0.4695410000000 1.0
C      1  0.5845820000000  0.5301970000000  0.5259830000000 1.0
C      1  0.4178650000000  0.4689390000000  0.4689630000000 1.0
C      1  0.4083730000000  0.5287890000000  0.5322530000000 1.0
C      1  0.5256880000000  0.4998570000000  0.4134050000000 1.0
C      1  0.5235630000000  0.5027070000000  0.5839600000000 1.0
C      1  0.4748280000000  0.4989590000000  0.4152460000000 1.0
C      1  0.4747870000000  0.5026180000000  0.5868460000000 1.0
C      1  0.5491170000000  0.5353550000000  0.4311550000000 1.0
C      1  0.5510870000000  0.4723550000000  0.5633880000000 1.0
C      1  0.4500340000000  0.5325170000000  0.4272430000000 1.0
C      1  0.4497200000000  0.4742760000000  0.5612940000000 1.0
C      1  0.5222380000000  0.5034470000000  0.5542680000000 1.0
C      1  0.5167000000000  0.4926100000000  0.4407640000000 1.0
C      1  0.4781070000000  0.5103540000000  0.5580100000000 1.0
C      1  0.4727950000000  0.4974850000000  0.4449210000000 1.0
C      1  0.4917300000000  0.5347120000000  0.5579400000000 1.0
C      1  0.4828500000000  0.4724960000000  0.4529720000000 1.0
C      1  0.5188590000000  0.5303880000000  0.5524420000000 1.0
C      1  0.5155870000000  0.4641290000000  0.4426770000000 1.0
C      1  0.4836070000000  0.5408200000000  0.5129440000000 1.0
C      1  0.4910520000000  0.4624690000000  0.4843250000000 1.0
C      1  0.5124680000000  0.5280110000000  0.5092110000000 1.0
C      1  0.5195620000000  0.4658680000000  0.4866210000000 1.0
C      1  0.4482720000000  0.4556840000000  0.4183320000000 1.0
C      1  0.4467730000000  0.5423060000000  0.5811230000000 1.0
C      1  0.5506350000000  0.4596290000000  0.4120690000000 1.0
C      1  0.5514950000000  0.5501470000000  0.5757660000000 1.0
C      1  0.5239190000000  0.4482790000000  0.4189760000000 1.0
C      1  0.5244010000000  0.5612510000000  0.5814390000000 1.0
C      1  0.4730680000000  0.4414010000000  0.4232450000000 1.0
C      1  0.4819920000000  0.5541170000000  0.5783770000000 1.0
C      1  0.5271950000000  0.4716880000000  0.4025100000000 1.0
C      1  0.5307930000000  0.5350170000000  0.5900460000000 1.0
C      1  0.4723220000000  0.4669990000000  0.4086590000000 1.0
C      1  0.4699970000000  0.5331390000000  0.5946180000000 1.0
C      1  0.5177860000000  0.5744230000000  0.5279760000000 1.0
C      1  0.5168270000000  0.4244540000000  0.4749710000000 1.0
C      1  0.4876300000000  0.5707250000000  0.5239440000000 1.0
C      1  0.4870640000000  0.4325470000000  0.4777350000000 1.0
C      1  0.4843750000000  0.5582870000000  0.4747730000000 1.0
C      1  0.4852570000000  0.4449130000000  0.5271710000000 1.0
C      1  0.5139830000000  0.5565300000000  0.4729370000000 1.0
C      1  0.5138020000000  0.4430080000000  0.5301130000000 1.0
C      1  0.4234300000000  0.4695310000000  0.4384710000000 1.0
C      1  0.4166140000000  0.5267930000000  0.5569870000000 1.0
C      1  0.5876890000000  0.4714850000000  0.4405810000000 1.0
C      1  0.5798380000000  0.5292440000000  0.5556310000000 1.0
C      1  0.4771130000000  0.5677540000000  0.4401440000000 1.0
C      1  0.4758030000000  0.4309260000000  0.5543540000000 1.0
C      1  0.5075450000000  0.5710390000000  0.4446090000000 1.0
C      1  0.5253190000000  0.4335190000000  0.5548960000000 1.0
C      1  0.5086600000000  0.4871910000000  0.5347640000000 1.0
C      1  0.5127160000000  0.5041560000000  0.4662800000000 1.0
C      1  0.4814140000000  0.4927120000000  0.5373170000000 1.0
C      1  0.4802450000000  0.5112420000000  0.4696880000000 1.0
C      1  0.4730590000000  0.5797160000000  0.4894030000000 1.0
C      1  0.4742880000000  0.4222460000000  0.5078320000000 1.0
C      1  0.5275730000000  0.5775670000000  0.4890980000000 1.0
C      1  0.5267100000000  0.4245980000000  0.5134880000000 1.0
C      1  0.4591120000000  0.4617100000000  0.4568910000000 1.0
C      1  0.4614970000000  0.5352290000000  0.5317660000000 1.0
C      1  0.5351310000000  0.4614790000000  0.4640140000000 1.0
C      1  0.5320960000000  0.5333270000000  0.5291980000000 1.0
C      1  0.4507990000000  0.5838250000000  0.5310920000000 1.0
C      1  0.4486610000000  0.4086360000000  0.4669030000000 1.0
C      1  0.5457760000000  0.5847510000000  0.5321430000000 1.0
C      1  0.5447300000000  0.4146810000000  0.4734080000000 1.0
C      1  0.5344260000000  0.4711950000000  0.5107270000000 1.0
C      1  0.5326570000000  0.5355680000000  0.4845130000000 1.0
C      1  0.4703640000000  0.4660810000000  0.5097320000000 1.0
C      1  0.4719940000000  0.5359070000000  0.4855070000000 1.0
C      1  0.5890590000000  0.4730010000000  0.5486290000000 1.0
C      1  0.5881680000000  0.5257460000000  0.4510690000000 1.0
C      1  0.4110190000000  0.4730750000000  0.5478810000000 1.0
C      1  0.4158510000000  0.5249940000000  0.4543490000000 1.0
C      1  0.4868930000000  0.6017880000000  0.4832120000000 1.0
C      1  0.4874390000000  0.3995200000000  0.5161450000000 1.0
C      1  0.5137770000000  0.6019850000000  0.4858390000000 1.0
C      1  0.5126270000000  0.4011100000000  0.5195940000000 1.0
C      1  0.4303840000000  0.4923520000000  0.4841620000000 1.0
C      1  0.4232300000000  0.5058680000000  0.5222340000000 1.0
C      1  0.5757960000000  0.4966470000000  0.4778160000000 1.0
C      1  0.5713370000000  0.5002570000000  0.5201380000000 1.0
C      1  0.4476030000000  0.5092420000000  0.4124930000000 1.0
C      1  0.4486330000000  0.4918510000000  0.5843080000000 1.0
C      1  0.5528780000000  0.5087110000000  0.4191230000000 1.0
C      1  0.5510170000000  0.4907780000000  0.5856730000000 1.0
C      1  0.4962360000000  0.4066910000000  0.5424000000000 1.0
C      1  0.5031670000000  0.5971880000000  0.4594800000000 1.0
C      1  0.5062370000000  0.4984650000000  0.5069210000000 1.0
END
