TITL C-2441161-5029-1184 0.0257096198052087 125000 -14974.7245769522 0 0 104 (C1) n - 1
REM
REM in /home/bkarasulu/work/CARBON/AIRSS/Generating-Clusters/ReaxFF-fromJPCA2015/Units_Real/with-SteepDescent/Higher-Symm
REM
REM
REM
REM
REM
REM ./C.cell (1df0a924f5614ab8850e4351716899ee)
REM
REM compiler GCC version 9.2.1 20190827 (Red Hat 9.2.1-1)
REM options -cpp -mtune=generic -march=x86-64 -g -O0 -fpre-include=/usr/include/finclude/math-vector-fortran.h
REM seed -1734883659 -1563178399 -1770484318 -1835167658 582758878 -1700054059 740788465 695007440 -761519466 296177547 217594006 -1755998820 364019899 -596821634 -1262515568 -1258941034 1586394577 2093002501 -1390220141 330009769 -1463597349 999137794 2137849726 1337511596 -1328186982 14564968 -857456083 962413651 808554535 1916808793 2131457776 -1697370132 -1404146271
REM
CELL 1.54180   50.00000   50.00000   50.00000   90.00000   90.00000   90.00000
LATT -1
SFAC C  
C      1  0.4810970000000  0.5146400000000  0.4904660000000 1.0
C      1  0.4378710000000  0.5239740000000  0.5609970000000 1.0
C      1  0.5436070000000  0.4408210000000  0.5459420000000 1.0
C      1  0.5605730000000  0.4580470000000  0.4521500000000 1.0
C      1  0.4840480000000  0.4670880000000  0.4973180000000 1.0
C      1  0.5043230000000  0.5085000000000  0.5946810000000 1.0
C      1  0.5201420000000  0.4442900000000  0.4313670000000 1.0
C      1  0.5853860000000  0.4894990000000  0.5113990000000 1.0
C      1  0.4655440000000  0.4906060000000  0.4947910000000 1.0
C      1  0.5000560000000  0.4614360000000  0.5496690000000 1.0
C      1  0.5062830000000  0.4823100000000  0.5303130000000 1.0
C      1  0.5392160000000  0.4921800000000  0.4594990000000 1.0
C      1  0.4770060000000  0.5565560000000  0.5831200000000 1.0
C      1  0.4454530000000  0.5604130000000  0.5259110000000 1.0
C      1  0.4932650000000  0.4844850000000  0.5831450000000 1.0
C      1  0.5487580000000  0.4924530000000  0.4312470000000 1.0
C      1  0.5768580000000  0.5393350000000  0.4763820000000 1.0
C      1  0.4770010000000  0.4084510000000  0.4811240000000 1.0
C      1  0.4668370000000  0.5505700000000  0.5433430000000 1.0
C      1  0.4470690000000  0.4816910000000  0.4678540000000 1.0
C      1  0.4646680000000  0.4779640000000  0.4186410000000 1.0
C      1  0.5547860000000  0.5522900000000  0.4619230000000 1.0
C      1  0.4591810000000  0.4744710000000  0.5582900000000 1.0
C      1  0.5417450000000  0.5735420000000  0.4763000000000 1.0
C      1  0.5136150000000  0.5711540000000  0.4632460000000 1.0
C      1  0.5007890000000  0.4119000000000  0.4969460000000 1.0
C      1  0.4862290000000  0.4199530000000  0.4553660000000 1.0
C      1  0.4273720000000  0.5399650000000  0.5368640000000 1.0
C      1  0.4733280000000  0.5194240000000  0.5378130000000 1.0
C      1  0.4674830000000  0.4710120000000  0.4482880000000 1.0
C      1  0.4927470000000  0.5259590000000  0.5145940000000 1.0
C      1  0.5289250000000  0.5280110000000  0.4928310000000 1.0
C      1  0.5479980000000  0.5097780000000  0.4788660000000 1.0
C      1  0.5547110000000  0.4579690000000  0.5233500000000 1.0
C      1  0.5039060000000  0.5054850000000  0.4212610000000 1.0
C      1  0.5444560000000  0.4231590000000  0.5011040000000 1.0
C      1  0.4942470000000  0.5820340000000  0.5037850000000 1.0
C      1  0.4356580000000  0.4943060000000  0.5589820000000 1.0
C      1  0.4876920000000  0.5240900000000  0.4642990000000 1.0
C      1  0.4295360000000  0.4920970000000  0.5304580000000 1.0
C      1  0.4186810000000  0.5355310000000  0.4799830000000 1.0
C      1  0.4643770000000  0.5517190000000  0.4520840000000 1.0
C      1  0.5129160000000  0.5581230000000  0.4354990000000 1.0
C      1  0.4821610000000  0.5250840000000  0.4151890000000 1.0
C      1  0.4362630000000  0.5374990000000  0.4554890000000 1.0
C      1  0.5653040000000  0.4420610000000  0.4994150000000 1.0
C      1  0.5755800000000  0.5107750000000  0.4719220000000 1.0
C      1  0.4778720000000  0.4956140000000  0.5608440000000 1.0
C      1  0.5451990000000  0.4837200000000  0.5726850000000 1.0
C      1  0.4743930000000  0.4486640000000  0.5549220000000 1.0
C      1  0.4191410000000  0.4682230000000  0.5171670000000 1.0
C      1  0.5177050000000  0.5874110000000  0.5204970000000 1.0
C      1  0.5237740000000  0.5494510000000  0.5432730000000 1.0
C      1  0.4836790000000  0.5696260000000  0.5576700000000 1.0
C      1  0.5208200000000  0.4306610000000  0.4827360000000 1.0
C      1  0.5392160000000  0.5499040000000  0.5181320000000 1.0
C      1  0.5131580000000  0.4821050000000  0.4658160000000 1.0
C      1  0.4575930000000  0.5596450000000  0.4980960000000 1.0
C      1  0.4989250000000  0.4563370000000  0.4181830000000 1.0
C      1  0.5198880000000  0.5051350000000  0.5196480000000 1.0
C      1  0.4661280000000  0.4408820000000  0.4569620000000 1.0
C      1  0.4116700000000  0.4807810000000  0.4913420000000 1.0
C      1  0.4544150000000  0.5028720000000  0.5217310000000 1.0
C      1  0.4837910000000  0.5295740000000  0.5914400000000 1.0
C      1  0.5076140000000  0.4585870000000  0.5776550000000 1.0
C      1  0.5397310000000  0.5770080000000  0.5049370000000 1.0
C      1  0.4512030000000  0.4257220000000  0.4781170000000 1.0
C      1  0.5109170000000  0.4642850000000  0.4880670000000 1.0
C      1  0.5039440000000  0.4141080000000  0.5257300000000 1.0
C      1  0.4928870000000  0.4954230000000  0.4505400000000 1.0
C      1  0.5848140000000  0.4854150000000  0.4836830000000 1.0
C      1  0.5106640000000  0.5743260000000  0.5461830000000 1.0
C      1  0.4897470000000  0.5862060000000  0.4753850000000 1.0
C      1  0.4852540000000  0.5495310000000  0.4298660000000 1.0
C      1  0.4151120000000  0.5335920000000  0.5106830000000 1.0
C      1  0.5103180000000  0.5398750000000  0.4739810000000 1.0
C      1  0.4425280000000  0.5194970000000  0.4370460000000 1.0
C      1  0.5581440000000  0.5212520000000  0.5479000000000 1.0
C      1  0.4643460000000  0.5733650000000  0.4725260000000 1.0
C      1  0.4561110000000  0.5346630000000  0.5814530000000 1.0
C      1  0.5648610000000  0.4936720000000  0.5540020000000 1.0
C      1  0.5330360000000  0.4204210000000  0.5284370000000 1.0
C      1  0.5146450000000  0.4263940000000  0.4536470000000 1.0
C      1  0.5749070000000  0.4579310000000  0.4761210000000 1.0
C      1  0.4710190000000  0.4491420000000  0.5137060000000 1.0
C      1  0.4848490000000  0.5542370000000  0.5057920000000 1.0
C      1  0.5736600000000  0.4765900000000  0.5327650000000 1.0
C      1  0.5278540000000  0.4772920000000  0.5108150000000 1.0
C      1  0.5823970000000  0.5378490000000  0.5058010000000 1.0
C      1  0.5359850000000  0.4560700000000  0.5696790000000 1.0
C      1  0.5460270000000  0.4623670000000  0.4300400000000 1.0
C      1  0.4910340000000  0.4794290000000  0.4066930000000 1.0
C      1  0.4805270000000  0.4299930000000  0.5330440000000 1.0
C      1  0.4197110000000  0.5107340000000  0.4934750000000 1.0
C      1  0.4577950000000  0.5073840000000  0.4174280000000 1.0
C      1  0.5642900000000  0.5405670000000  0.5280980000000 1.0
C      1  0.4414480000000  0.4500620000000  0.5205360000000 1.0
C      1  0.4352170000000  0.4365100000000  0.4985890000000 1.0
C      1  0.5372470000000  0.5419480000000  0.4376710000000 1.0
C      1  0.4229760000000  0.4711820000000  0.4675370000000 1.0
C      1  0.5331220000000  0.5161770000000  0.4247580000000 1.0
C      1  0.5287420000000  0.5072190000000  0.5790160000000 1.0
C      1  0.5895340000000  0.5126440000000  0.5142680000000 1.0
C      1  0.5336670000000  0.5280250000000  0.5596740000000 1.0
END
