TITL C-2441165-58-1479 0.00490399396013748 125000 -5364.36011377046 0 0 39 (C1) n - 1
REM
REM in /home/bkarasulu/work/CARBON/AIRSS/Generating-Clusters/ReaxFF-fromJPCA2015/Units_Real/with-SteepDescent/Higher-Symm
REM
REM
REM
REM
REM
REM ./C.cell (1df0a924f5614ab8850e4351716899ee)
REM
REM compiler GCC version 9.2.1 20190827 (Red Hat 9.2.1-1)
REM options -cpp -mtune=generic -march=x86-64 -g -O0 -fpre-include=/usr/include/finclude/math-vector-fortran.h
REM seed 2045267159 -1451523626 972799623 -103805272 1469384584 318067724 63977031 -1015775445 -661464606 -1385754674 901902352 1085654129 -125205541 -2140298998 -502118548 -2020419759 -1069155338 469598022 -301221266 1580837434 419239928 16921640 -503737554 1450242762 -710582045 682839308 402383239 -101233261 -1090883441 2065099969 1126730314 1017812975 1785698577
REM
CELL 1.54180   50.00000   50.00000   50.00000   90.00000   90.00000   90.00000
LATT -1
SFAC C  
C      1  0.4762100000000  0.5664740000000  0.5210650000000 1.0
C      1  0.4559220000000  0.4479730000000  0.5188900000000 1.0
C      1  0.5703810000000  0.4861100000000  0.5223390000000 1.0
C      1  0.5038070000000  0.5420820000000  0.4824930000000 1.0
C      1  0.4617020000000  0.4860310000000  0.4831430000000 1.0
C      1  0.5342600000000  0.4763940000000  0.4845230000000 1.0
C      1  0.4731910000000  0.5812950000000  0.4977130000000 1.0
C      1  0.4432770000000  0.4389790000000  0.4956430000000 1.0
C      1  0.5832740000000  0.4818970000000  0.4979570000000 1.0
C      1  0.5282330000000  0.5209310000000  0.5406870000000 1.0
C      1  0.4694700000000  0.5131880000000  0.5433840000000 1.0
C      1  0.5021890000000  0.4652770000000  0.5397710000000 1.0
C      1  0.5267410000000  0.5482960000000  0.4995420000000 1.0
C      1  0.4457780000000  0.5022850000000  0.5028530000000 1.0
C      1  0.5261900000000  0.4538880000000  0.5003300000000 1.0
C      1  0.4408500000000  0.5212110000000  0.4851450000000 1.0
C      1  0.5121750000000  0.4406750000000  0.4805500000000 1.0
C      1  0.5450420000000  0.5391110000000  0.4817560000000 1.0
C      1  0.5231880000000  0.4801550000000  0.4560840000000 1.0
C      1  0.5028570000000  0.5265800000000  0.4572690000000 1.0
C      1  0.4629660000000  0.4976590000000  0.4574310000000 1.0
C      1  0.4769560000000  0.5183410000000  0.4481270000000 1.0
C      1  0.5090140000000  0.4607010000000  0.4446350000000 1.0
C      1  0.5253950000000  0.5102580000000  0.4479770000000 1.0
C      1  0.5575410000000  0.4916890000000  0.4940010000000 1.0
C      1  0.4787570000000  0.5545100000000  0.4924990000000 1.0
C      1  0.4634510000000  0.4573980000000  0.4901020000000 1.0
C      1  0.5270600000000  0.4568930000000  0.5317350000000 1.0
C      1  0.5235780000000  0.5466260000000  0.5305150000000 1.0
C      1  0.4482930000000  0.4975300000000  0.5344330000000 1.0
C      1  0.4499250000000  0.5239050000000  0.4591360000000 1.0
C      1  0.5044830000000  0.4412160000000  0.4574570000000 1.0
C      1  0.5438810000000  0.5251410000000  0.4618120000000 1.0
C      1  0.4887800000000  0.5310590000000  0.5470820000000 1.0
C      1  0.4790930000000  0.4730550000000  0.5471130000000 1.0
C      1  0.5361150000000  0.4964140000000  0.5447320000000 1.0
C      1  0.4974020000000  0.5565180000000  0.5396820000000 1.0
C      1  0.4523570000000  0.4690560000000  0.5399080000000 1.0
C      1  0.5502160000000  0.4731990000000  0.5404860000000 1.0
END
