TITL C-2441157-2117-901 0.000826612748575422 125000 -5528.80077627889 0 0 39 (C1) n - 1
REM
REM in /home/bkarasulu/work/CARBON/AIRSS/Generating-Clusters/ReaxFF-fromJPCA2015/Units_Real/with-SteepDescent/Higher-Symm
REM
REM
REM
REM
REM
REM ./C.cell (1df0a924f5614ab8850e4351716899ee)
REM
REM compiler GCC version 9.2.1 20190827 (Red Hat 9.2.1-1)
REM options -cpp -mtune=generic -march=x86-64 -g -O0 -fpre-include=/usr/include/finclude/math-vector-fortran.h
REM seed -2025917072 554638224 -1852573849 1711636656 1866998932 1777074796 534160655 1591922613 1158659621 712859033 -1539172526 -701484978 -719926745 1996674654 -1918029480 1389332715 -317555041 -209320333 -1297042845 900103275 -732994293 -1733847247 -1800422580 989911479 1034040912 -1590343179 -1506368550 -1386004214 -923167427 1082506504 -1524775375 -99075867 2074055380
REM
CELL 1.54180   50.00000   50.00000   50.00000   90.00000   90.00000   90.00000
LATT -1
SFAC C  
C      1  0.4950370000000  0.5105320000000  0.5580510000000 1.0
C      1  0.5084790000000  0.5161840000000  0.4457230000000 1.0
C      1  0.5013470000000  0.4853540000000  0.4481470000000 1.0
C      1  0.4987210000000  0.4792510000000  0.5563060000000 1.0
C      1  0.4941460000000  0.5355160000000  0.4622710000000 1.0
C      1  0.5097250000000  0.5253750000000  0.5374060000000 1.0
C      1  0.4931080000000  0.4721840000000  0.5263270000000 1.0
C      1  0.5066320000000  0.4778600000000  0.4778660000000 1.0
C      1  0.5347810000000  0.5184130000000  0.4533360000000 1.0
C      1  0.4710000000000  0.5221750000000  0.5516060000000 1.0
C      1  0.5259650000000  0.4710690000000  0.5504810000000 1.0
C      1  0.4739690000000  0.4758490000000  0.4527890000000 1.0
C      1  0.5276080000000  0.4633630000000  0.4443680000000 1.0
C      1  0.4706080000000  0.4589220000000  0.5591180000000 1.0
C      1  0.5398480000000  0.5465940000000  0.5589260000000 1.0
C      1  0.4609450000000  0.5427800000000  0.4385760000000 1.0
C      1  0.4660630000000  0.4595920000000  0.5310940000000 1.0
C      1  0.5326150000000  0.4632760000000  0.4723700000000 1.0
C      1  0.4634170000000  0.5388790000000  0.4633920000000 1.0
C      1  0.5404030000000  0.5321800000000  0.5380340000000 1.0
C      1  0.4408890000000  0.5363940000000  0.4870830000000 1.0
C      1  0.5554050000000  0.5355020000000  0.5098250000000 1.0
C      1  0.4405970000000  0.4639860000000  0.5137720000000 1.0
C      1  0.5595700000000  0.4651240000000  0.4880200000000 1.0
C      1  0.5739830000000  0.4876020000000  0.4969350000000 1.0
C      1  0.4264540000000  0.4863310000000  0.5029550000000 1.0
C      1  0.5692720000000  0.5169280000000  0.4913700000000 1.0
C      1  0.4263810000000  0.5157170000000  0.4989370000000 1.0
C      1  0.4375960000000  0.5395700000000  0.5159080000000 1.0
C      1  0.5360460000000  0.5421490000000  0.4914100000000 1.0
C      1  0.4360960000000  0.4641590000000  0.4848080000000 1.0
C      1  0.5656830000000  0.4666490000000  0.5170120000000 1.0
C      1  0.4554000000000  0.4699520000000  0.4651380000000 1.0
C      1  0.5458690000000  0.4684370000000  0.5362290000000 1.0
C      1  0.4539050000000  0.5312690000000  0.5360170000000 1.0
C      1  0.5567780000000  0.5201060000000  0.4658120000000 1.0
C      1  0.5077270000000  0.5382240000000  0.4887600000000 1.0
C      1  0.4983220000000  0.4902320000000  0.5035110000000 1.0
C      1  0.5010610000000  0.5184800000000  0.5099230000000 1.0
END
