TITL C-2441157-2117-991 0.000575318058476528 125000 -2325.53816186601 0 0 18 (C1) n - 1
REM
REM in /home/bkarasulu/work/CARBON/AIRSS/Generating-Clusters/ReaxFF-fromJPCA2015/Units_Real/with-SteepDescent/Higher-Symm
REM
REM
REM
REM
REM
REM ./C.cell (1df0a924f5614ab8850e4351716899ee)
REM
REM compiler GCC version 9.2.1 20190827 (Red Hat 9.2.1-1)
REM options -cpp -mtune=generic -march=x86-64 -g -O0 -fpre-include=/usr/include/finclude/math-vector-fortran.h
REM seed 106459697 -1921128473 1528345529 1686022377 725692399 -810393229 -359551714 1533485468 246382170 1770780465 -1429008631 -1991014912 -1339566677 -1600233401 1391469241 -10823884 -1284088401 -1510971199 850727670 926812450 2088861970 1452766438 1874049756 1544017567 -1855978562 2018895231 2049537684 -354741721 -359073872 -1104018685 1438580570 476170474 -122037708
REM
CELL 1.54180   50.00000   50.00000   50.00000   90.00000   90.00000   90.00000
LATT -1
SFAC C  
C      1  0.5098690000000  0.4628510000000  0.4789650000000 1.0
C      1  0.4933920000000  0.4697720000000  0.4515290000000 1.0
C      1  0.5229350000000  0.5624100000000  0.4667530000000 1.0
C      1  0.5001630000000  0.4439890000000  0.4976870000000 1.0
C      1  0.5337000000000  0.5168420000000  0.4888650000000 1.0
C      1  0.5319850000000  0.5250670000000  0.5166200000000 1.0
C      1  0.5674640000000  0.4913460000000  0.5343970000000 1.0
C      1  0.5005820000000  0.5220950000000  0.5228280000000 1.0
C      1  0.4771250000000  0.4453820000000  0.5186010000000 1.0
C      1  0.5094810000000  0.4946240000000  0.4863950000000 1.0
C      1  0.4656710000000  0.4999040000000  0.5177930000000 1.0
C      1  0.4634510000000  0.4701380000000  0.5235260000000 1.0
C      1  0.4225810000000  0.5281350000000  0.5133560000000 1.0
C      1  0.4427970000000  0.5148870000000  0.5154390000000 1.0
C      1  0.4876610000000  0.5088610000000  0.5005760000000 1.0
C      1  0.4921010000000  0.4954380000000  0.4628620000000 1.0
C      1  0.5507490000000  0.5071460000000  0.5261930000000 1.0
C      1  0.5282930000000  0.5411120000000  0.4776160000000 1.0
END
