TITL C-2441160-1326-1075 0.0540073137848441 125000 -17324.2765584083 0 0 126 (C1) n - 1
REM
REM in /home/bkarasulu/work/CARBON/AIRSS/Generating-Clusters/ReaxFF-fromJPCA2015/Units_Real/with-SteepDescent/Higher-Symm
REM
REM
REM
REM
REM
REM ./C.cell (1df0a924f5614ab8850e4351716899ee)
REM
REM compiler GCC version 9.2.1 20190827 (Red Hat 9.2.1-1)
REM options -cpp -mtune=generic -march=x86-64 -g -O0 -fpre-include=/usr/include/finclude/math-vector-fortran.h
REM seed 126338809 1661039536 601981107 -1353611631 1469060747 1809844330 -988952836 -818128874 -220865227 -524337949 -103636627 -566541468 1152429241 -1945783974 -1120977824 669864466 1296099155 244773428 1234314657 -292267846 1977199630 566279777 -939349049 1295549073 1066252611 -1223347289 -1342651138 1853808628 1632150094 -642421267 -385392865 504049713 1967921554
REM
CELL 1.54180   50.00000   50.00000   50.00000   90.00000   90.00000   90.00000
LATT -1
SFAC C  
C      1  0.4228040000000  0.4596130000000  0.4942020000000 1.0
C      1  0.4613890000000  0.4967330000000  0.4247140000000 1.0
C      1  0.4945000000000  0.4231800000000  0.4611000000000 1.0
C      1  0.5770690000000  0.4614330000000  0.5022590000000 1.0
C      1  0.5743270000000  0.5371340000000  0.4964270000000 1.0
C      1  0.4246540000000  0.5373950000000  0.5048100000000 1.0
C      1  0.5424130000000  0.4941970000000  0.5761220000000 1.0
C      1  0.5397360000000  0.5062150000000  0.4215890000000 1.0
C      1  0.4570410000000  0.5052820000000  0.5846320000000 1.0
C      1  0.5030230000000  0.4262520000000  0.5420100000000 1.0
C      1  0.5061010000000  0.5794410000000  0.4592120000000 1.0
C      1  0.4948520000000  0.5742290000000  0.5393130000000 1.0
C      1  0.4950970000000  0.5482580000000  0.5870690000000 1.0
C      1  0.5488110000000  0.5886160000000  0.4922520000000 1.0
C      1  0.5907730000000  0.4888270000000  0.5494650000000 1.0
C      1  0.5119270000000  0.5511010000000  0.4100050000000 1.0
C      1  0.5118030000000  0.4515340000000  0.5903410000000 1.0
C      1  0.4920420000000  0.4510760000000  0.4097650000000 1.0
C      1  0.4483700000000  0.5887920000000  0.5107320000000 1.0
C      1  0.4492060000000  0.4103510000000  0.4881290000000 1.0
C      1  0.5494480000000  0.4086230000000  0.5090960000000 1.0
C      1  0.4111900000000  0.4929290000000  0.4510890000000 1.0
C      1  0.4110000000000  0.5101310000000  0.5524050000000 1.0
C      1  0.5903800000000  0.5117660000000  0.4494310000000 1.0
C      1  0.5023380000000  0.5593120000000  0.5149210000000 1.0
C      1  0.5527090000000  0.5183440000000  0.5048780000000 1.0
C      1  0.5196970000000  0.5026990000000  0.5569780000000 1.0
C      1  0.4974540000000  0.5580640000000  0.4790220000000 1.0
C      1  0.4957910000000  0.4438950000000  0.5198370000000 1.0
C      1  0.5023080000000  0.4422310000000  0.4832650000000 1.0
C      1  0.4445390000000  0.5168110000000  0.4958240000000 1.0
C      1  0.4433660000000  0.4797070000000  0.5041820000000 1.0
C      1  0.5568930000000  0.4818410000000  0.4941220000000 1.0
C      1  0.4826090000000  0.5045800000000  0.4439290000000 1.0
C      1  0.4893700000000  0.4991900000000  0.5527090000000 1.0
C      1  0.5195120000000  0.4971860000000  0.4428060000000 1.0
C      1  0.5241690000000  0.5171660000000  0.4951610000000 1.0
C      1  0.5230500000000  0.4870970000000  0.5331200000000 1.0
C      1  0.4970210000000  0.5294730000000  0.5158140000000 1.0
C      1  0.4712520000000  0.5185860000000  0.5059050000000 1.0
C      1  0.4683220000000  0.4810710000000  0.4901040000000 1.0
C      1  0.5335640000000  0.4807480000000  0.5094000000000 1.0
C      1  0.4836130000000  0.4914920000000  0.4691070000000 1.0
C      1  0.4775900000000  0.5151370000000  0.5330560000000 1.0
C      1  0.5239520000000  0.5134190000000  0.4660810000000 1.0
C      1  0.5132420000000  0.5352950000000  0.4769080000000 1.0
C      1  0.5097360000000  0.4684270000000  0.5178550000000 1.0
C      1  0.4907450000000  0.4681150000000  0.4820690000000 1.0
C      1  0.4290660000000  0.5315610000000  0.5534650000000 1.0
C      1  0.5329440000000  0.5532650000000  0.4285550000000 1.0
C      1  0.5518860000000  0.4287380000000  0.5315480000000 1.0
C      1  0.5725960000000  0.5330460000000  0.4476050000000 1.0
C      1  0.5729790000000  0.4674590000000  0.5511060000000 1.0
C      1  0.4282180000000  0.4694820000000  0.4467220000000 1.0
C      1  0.4692420000000  0.5520240000000  0.5717880000000 1.0
C      1  0.4682350000000  0.4486050000000  0.4282970000000 1.0
C      1  0.5326750000000  0.4483570000000  0.5718710000000 1.0
C      1  0.4478580000000  0.4290160000000  0.4670350000000 1.0
C      1  0.4480880000000  0.5708680000000  0.5324300000000 1.0
C      1  0.5531180000000  0.5721410000000  0.4692360000000 1.0
C      1  0.4205790000000  0.4846220000000  0.5548960000000 1.0
C      1  0.4859340000000  0.5558710000000  0.4161980000000 1.0
C      1  0.5597870000000  0.4195990000000  0.4858520000000 1.0
C      1  0.5826860000000  0.4864170000000  0.4447470000000 1.0
C      1  0.5830490000000  0.5140230000000  0.5546010000000 1.0
C      1  0.4219990000000  0.5192010000000  0.4445070000000 1.0
C      1  0.5218550000000  0.5504940000000  0.5743510000000 1.0
C      1  0.5156230000000  0.4430040000000  0.4216860000000 1.0
C      1  0.4850810000000  0.4445410000000  0.5848070000000 1.0
C      1  0.4446860000000  0.4165460000000  0.5142060000000 1.0
C      1  0.4442170000000  0.5801280000000  0.4839560000000 1.0
C      1  0.5543320000000  0.5787990000000  0.5176670000000 1.0
C      1  0.5708230000000  0.4500570000000  0.5288430000000 1.0
C      1  0.4504760000000  0.5308180000000  0.5726480000000 1.0
C      1  0.5328180000000  0.5722710000000  0.4495820000000 1.0
C      1  0.4287110000000  0.4502190000000  0.4672570000000 1.0
C      1  0.4297820000000  0.5492220000000  0.5313750000000 1.0
C      1  0.5710480000000  0.5501460000000  0.4700580000000 1.0
C      1  0.5514140000000  0.5322220000000  0.4287580000000 1.0
C      1  0.5527780000000  0.4678760000000  0.5711010000000 1.0
C      1  0.4499730000000  0.4700890000000  0.4288210000000 1.0
C      1  0.4692000000000  0.5700280000000  0.5504710000000 1.0
C      1  0.4691480000000  0.4302300000000  0.4492230000000 1.0
C      1  0.5307110000000  0.4297740000000  0.5507160000000 1.0
C      1  0.5192780000000  0.5707070000000  0.5541170000000 1.0
C      1  0.5710040000000  0.5548840000000  0.5195960000000 1.0
C      1  0.5589440000000  0.5164230000000  0.5693250000000 1.0
C      1  0.4841540000000  0.5707590000000  0.4410570000000 1.0
C      1  0.4808940000000  0.4335630000000  0.5585200000000 1.0
C      1  0.5196810000000  0.4294390000000  0.4457420000000 1.0
C      1  0.4313030000000  0.5548250000000  0.4823000000000 1.0
C      1  0.4303680000000  0.4416600000000  0.5160780000000 1.0
C      1  0.5721220000000  0.4433400000000  0.4793950000000 1.0
C      1  0.4456310000000  0.5204830000000  0.4281440000000 1.0
C      1  0.4465560000000  0.4836230000000  0.5685370000000 1.0
C      1  0.5580620000000  0.4846780000000  0.4301450000000 1.0
C      1  0.5491170000000  0.5369410000000  0.5299310000000 1.0
C      1  0.5367820000000  0.5299080000000  0.5574120000000 1.0
C      1  0.5315910000000  0.5631910000000  0.5282740000000 1.0
C      1  0.4399750000000  0.5292580000000  0.4680890000000 1.0
C      1  0.4464480000000  0.4619650000000  0.5269140000000 1.0
C      1  0.5485840000000  0.4642850000000  0.4709400000000 1.0
C      1  0.4651480000000  0.5293500000000  0.4500900000000 1.0
C      1  0.4718790000000  0.4774680000000  0.5559130000000 1.0
C      1  0.5369950000000  0.4735630000000  0.4457990000000 1.0
C      1  0.4744510000000  0.5540030000000  0.4619600000000 1.0
C      1  0.4712960000000  0.4537140000000  0.5388230000000 1.0
C      1  0.5284420000000  0.4431270000000  0.4710840000000 1.0
C      1  0.5229270000000  0.5960520000000  0.4982800000000 1.0
C      1  0.5960000000000  0.5072990000000  0.5271620000000 1.0
C      1  0.4998520000000  0.5222910000000  0.5937770000000 1.0
C      1  0.4686050000000  0.5974000000000  0.4916490000000 1.0
C      1  0.4705160000000  0.4035780000000  0.5059900000000 1.0
C      1  0.5240890000000  0.4057160000000  0.4964090000000 1.0
C      1  0.4064380000000  0.5000700000000  0.4777770000000 1.0
C      1  0.4052670000000  0.4928560000000  0.5309210000000 1.0
C      1  0.5952720000000  0.4933830000000  0.4719510000000 1.0
C      1  0.4940150000000  0.5297420000000  0.4033450000000 1.0
C      1  0.4920460000000  0.4699960000000  0.5966270000000 1.0
C      1  0.5049380000000  0.4763280000000  0.4045930000000 1.0
C      1  0.4842720000000  0.4991430000000  0.5959150000000 1.0
C      1  0.4966190000000  0.5980260000000  0.4952560000000 1.0
C      1  0.5933780000000  0.4999950000000  0.4997360000000 1.0
C      1  0.5021750000000  0.5028370000000  0.4038340000000 1.0
C      1  0.4975150000000  0.4045930000000  0.4976930000000 1.0
C      1  0.4052770000000  0.5011880000000  0.5040020000000 1.0
END
