TITL C-2441162-9305-1472 0.0199708004927729 125000 -10682.8550255101 0 0 77 (C1) n - 1
REM
REM in /home/bkarasulu/work/CARBON/AIRSS/Generating-Clusters/ReaxFF-fromJPCA2015/Units_Real/with-SteepDescent/Higher-Symm
REM
REM
REM
REM
REM
REM ./C.cell (1df0a924f5614ab8850e4351716899ee)
REM
REM compiler GCC version 9.2.1 20190827 (Red Hat 9.2.1-1)
REM options -cpp -mtune=generic -march=x86-64 -g -O0 -fpre-include=/usr/include/finclude/math-vector-fortran.h
REM seed 1284804512 -1568140623 -672597043 997046571 887798073 1719331218 759754667 1946702206 -954287464 16646386 -1010112935 1603487501 -754533287 -1776114722 -991350644 554500323 -1428411152 -747237810 1233925730 -1090156920 1839936874 1314789961 -1472868273 -1172726301 -295384815 -1947372287 -893724053 1167800168 622510398 187904624 241279844 1316377260 -1856461518
REM
CELL 1.54180   50.00000   50.00000   50.00000   90.00000   90.00000   90.00000
LATT -1
SFAC C  
C      1  0.5468120000000  0.5106660000000  0.4859020000000 1.0
C      1  0.5250380000000  0.5078000000000  0.4726480000000 1.0
C      1  0.5048710000000  0.5052720000000  0.4599770000000 1.0
C      1  0.4804620000000  0.5074800000000  0.4594960000000 1.0
C      1  0.4592500000000  0.5124190000000  0.4741640000000 1.0
C      1  0.4508790000000  0.5116750000000  0.4998120000000 1.0
C      1  0.4599950000000  0.5109240000000  0.5263730000000 1.0
C      1  0.4846770000000  0.5061570000000  0.5333700000000 1.0
C      1  0.5072810000000  0.5021280000000  0.5415320000000 1.0
C      1  0.5271650000000  0.5071040000000  0.5282010000000 1.0
C      1  0.5478030000000  0.5123180000000  0.5140940000000 1.0
C      1  0.5396390000000  0.4471720000000  0.4505830000000 1.0
C      1  0.4977930000000  0.4467480000000  0.4293790000000 1.0
C      1  0.4710610000000  0.4464380000000  0.4420900000000 1.0
C      1  0.4363340000000  0.4471430000000  0.4733490000000 1.0
C      1  0.4382840000000  0.4492340000000  0.5029290000000 1.0
C      1  0.4475500000000  0.4472920000000  0.5474050000000 1.0
C      1  0.4738880000000  0.4461700000000  0.5606850000000 1.0
C      1  0.5198450000000  0.4461770000000  0.5629550000000 1.0
C      1  0.5468220000000  0.4462320000000  0.5490850000000 1.0
C      1  0.5624340000000  0.4516090000000  0.5120810000000 1.0
C      1  0.5611240000000  0.4472110000000  0.4718780000000 1.0
C      1  0.5334860000000  0.5509140000000  0.4591690000000 1.0
C      1  0.5055980000000  0.5518880000000  0.4482300000000 1.0
C      1  0.4762010000000  0.5513990000000  0.4531990000000 1.0
C      1  0.4560450000000  0.5532800000000  0.4736410000000 1.0
C      1  0.4470550000000  0.5519720000000  0.5015720000000 1.0
C      1  0.4562280000000  0.5514910000000  0.5303290000000 1.0
C      1  0.4797710000000  0.5503440000000  0.5482670000000 1.0
C      1  0.5097100000000  0.5512160000000  0.5513860000000 1.0
C      1  0.5364460000000  0.5502250000000  0.5385340000000 1.0
C      1  0.5508980000000  0.5531330000000  0.5133160000000 1.0
C      1  0.5504470000000  0.5512920000000  0.4836600000000 1.0
C      1  0.4602930000000  0.4697070000000  0.5551340000000 1.0
C      1  0.4962280000000  0.4592080000000  0.5731230000000 1.0
C      1  0.5347100000000  0.4685970000000  0.5596780000000 1.0
C      1  0.5660700000000  0.4607550000000  0.5355080000000 1.0
C      1  0.5734930000000  0.4618040000000  0.4922830000000 1.0
C      1  0.5548160000000  0.4692180000000  0.4572840000000 1.0
C      1  0.5240280000000  0.4593400000000  0.4302950000000 1.0
C      1  0.4842240000000  0.4694830000000  0.4343810000000 1.0
C      1  0.4461480000000  0.4587880000000  0.4486370000000 1.0
C      1  0.4331990000000  0.4706050000000  0.4864460000000 1.0
C      1  0.4309190000000  0.4608240000000  0.5277470000000 1.0
C      1  0.5164590000000  0.5063470000000  0.5814630000000 1.0
C      1  0.5625230000000  0.5068510000000  0.5592860000000 1.0
C      1  0.5870070000000  0.5030630000000  0.5188080000000 1.0
C      1  0.5838540000000  0.5060750000000  0.4697120000000 1.0
C      1  0.5499920000000  0.5054000000000  0.4316130000000 1.0
C      1  0.5069880000000  0.5064480000000  0.4174970000000 1.0
C      1  0.4561900000000  0.5056380000000  0.4254290000000 1.0
C      1  0.4230300000000  0.5033810000000  0.4574890000000 1.0
C      1  0.4119700000000  0.5055730000000  0.5080840000000 1.0
C      1  0.4290880000000  0.5054900000000  0.5524790000000 1.0
C      1  0.4717440000000  0.5053550000000  0.5799800000000 1.0
C      1  0.5142670000000  0.5347940000000  0.4253330000000 1.0
C      1  0.4579730000000  0.5338780000000  0.4358970000000 1.0
C      1  0.4377720000000  0.5305650000000  0.4572140000000 1.0
C      1  0.4273690000000  0.5296990000000  0.5011170000000 1.0
C      1  0.4427700000000  0.5300350000000  0.5444840000000 1.0
C      1  0.4786670000000  0.5337950000000  0.5736600000000 1.0
C      1  0.5074600000000  0.5348480000000  0.5760960000000 1.0
C      1  0.5590040000000  0.5349770000000  0.5503280000000 1.0
C      1  0.5711550000000  0.5321390000000  0.5235140000000 1.0
C      1  0.5677130000000  0.5301430000000  0.4734720000000 1.0
C      1  0.5413810000000  0.5338710000000  0.4355400000000 1.0
C      1  0.4811730000000  0.4931030000000  0.4185790000000 1.0
C      1  0.4388480000000  0.4864820000000  0.4406300000000 1.0
C      1  0.4146570000000  0.4919320000000  0.4825290000000 1.0
C      1  0.4202270000000  0.4883310000000  0.5305040000000 1.0
C      1  0.4490610000000  0.4919890000000  0.5687610000000 1.0
C      1  0.4942920000000  0.4872160000000  0.5825700000000 1.0
C      1  0.5409120000000  0.4934910000000  0.5723030000000 1.0
C      1  0.5768020000000  0.4887480000000  0.5411840000000 1.0
C      1  0.5869060000000  0.4895310000000  0.4935940000000 1.0
C      1  0.5689210000000  0.4923790000000  0.4485640000000 1.0
C      1  0.5288070000000  0.4875810000000  0.4224840000000 1.0
END
