TITL C-2441165-58-739 -1.1938845353463e-07 125000 -13388.9141679903 0 0 84 (C4v) n - 1
REM
REM in /home/bkarasulu/work/CARBON/AIRSS/Generating-Clusters/ReaxFF-fromJPCA2015/Units_Real/with-SteepDescent/Higher-Symm
REM
REM
REM
REM
REM
REM ./C.cell (1df0a924f5614ab8850e4351716899ee)
REM
REM compiler GCC version 9.2.1 20190827 (Red Hat 9.2.1-1)
REM options -cpp -mtune=generic -march=x86-64 -g -O0 -fpre-include=/usr/include/finclude/math-vector-fortran.h
REM seed -357329651 -397359828 1553090192 1248840180 -2135134581 -986924935 -1715926984 1567627165 1044497000 -1313338999 1115787226 709817071 -1022888390 1145908317 -1108028107 -651267733 668310427 412887736 1791794771 538933405 -1133445972 1674290484 -622908003 -1939085958 1617798262 -906204137 -638296939 665577279 1997019291 1884247140 -1081698374 -1554243288 543853239
REM
CELL 1.54180   50.00000   50.00000   50.00000   90.00000   90.00000   90.00000
LATT -1
SFAC C  
C      1  0.5286640000000  0.4021430000000  0.4876790000000 1.0
C      1  0.5605440000000  0.4365190000000  0.4820730000000 1.0
C      1  0.5861120000000  0.4832720000000  0.4820680000000 1.0
C      1  0.5978550000000  0.5286620000000  0.4876650000000 1.0
C      1  0.5634780000000  0.5605410000000  0.4820590000000 1.0
C      1  0.5167250000000  0.5861100000000  0.4820560000000 1.0
C      1  0.4713360000000  0.5978540000000  0.4876570000000 1.0
C      1  0.4394560000000  0.5634770000000  0.4820580000000 1.0
C      1  0.4138880000000  0.5167230000000  0.4820630000000 1.0
C      1  0.4021450000000  0.4713350000000  0.4876700000000 1.0
C      1  0.4365220000000  0.4394540000000  0.4820720000000 1.0
C      1  0.4832750000000  0.4138860000000  0.4820750000000 1.0
C      1  0.4807530000000  0.4218290000000  0.5374700000000 1.0
C      1  0.5231810000000  0.4208670000000  0.5408360000000 1.0
C      1  0.5583840000000  0.4445690000000  0.5374680000000 1.0
C      1  0.5781750000000  0.4807570000000  0.5374640000000 1.0
C      1  0.5791370000000  0.5231860000000  0.5408240000000 1.0
C      1  0.5554350000000  0.5583890000000  0.5374550000000 1.0
C      1  0.5192470000000  0.5781800000000  0.5374530000000 1.0
C      1  0.4768190000000  0.5791420000000  0.5408180000000 1.0
C      1  0.4416150000000  0.5554400000000  0.5374550000000 1.0
C      1  0.4218250000000  0.5192510000000  0.5374590000000 1.0
C      1  0.4208620000000  0.4768240000000  0.5408290000000 1.0
C      1  0.4445650000000  0.4416200000000  0.5374680000000 1.0
C      1  0.4331710000000  0.4553960000000  0.4581240000000 1.0
C      1  0.4985070000000  0.4196630000000  0.4581290000000 1.0
C      1  0.5256200000000  0.4125330000000  0.4623710000000 1.0
C      1  0.5446000000000  0.4331650000000  0.4581270000000 1.0
C      1  0.5803310000000  0.4985020000000  0.4581200000000 1.0
C      1  0.5874610000000  0.5256150000000  0.4623580000000 1.0
C      1  0.5668290000000  0.5445950000000  0.4581150000000 1.0
C      1  0.5014930000000  0.5803280000000  0.4581110000000 1.0
C      1  0.4743800000000  0.5874580000000  0.4623510000000 1.0
C      1  0.4554000000000  0.5668260000000  0.4581120000000 1.0
C      1  0.4196690000000  0.5014890000000  0.4581190000000 1.0
C      1  0.4125390000000  0.4743770000000  0.4623630000000 1.0
C      1  0.5758190000000  0.4585350000000  0.4929870000000 1.0
C      1  0.5980590000000  0.5027380000000  0.4999970000000 1.0
C      1  0.5840390000000  0.5506020000000  0.4999920000000 1.0
C      1  0.5414640000000  0.5758180000000  0.4929730000000 1.0
C      1  0.4972620000000  0.5980600000000  0.4999870000000 1.0
C      1  0.4493970000000  0.5840390000000  0.4999880000000 1.0
C      1  0.4241810000000  0.5414640000000  0.4929770000000 1.0
C      1  0.4019410000000  0.4972620000000  0.4999970000000 1.0
C      1  0.4159610000000  0.4493980000000  0.5000020000000 1.0
C      1  0.4585360000000  0.4241800000000  0.4929900000000 1.0
C      1  0.5027380000000  0.4019400000000  0.5000080000000 1.0
C      1  0.5506030000000  0.4159610000000  0.5000070000000 1.0
C      1  0.5541740000000  0.4869250000000  0.5516970000000 1.0
C      1  0.5545080000000  0.5159730000000  0.5534350000000 1.0
C      1  0.5385540000000  0.5402490000000  0.5516910000000 1.0
C      1  0.5130810000000  0.5541810000000  0.5516900000000 1.0
C      1  0.4840330000000  0.5545150000000  0.5534310000000 1.0
C      1  0.4597560000000  0.5385610000000  0.5516910000000 1.0
C      1  0.4458250000000  0.5130870000000  0.5516940000000 1.0
C      1  0.4454910000000  0.4840390000000  0.5534380000000 1.0
C      1  0.4614450000000  0.4597620000000  0.5517000000000 1.0
C      1  0.4869190000000  0.4458310000000  0.5517020000000 1.0
C      1  0.5159670000000  0.4454970000000  0.5534430000000 1.0
C      1  0.5402430000000  0.4614510000000  0.5517000000000 1.0
C      1  0.5004020000000  0.5558310000000  0.4420730000000 1.0
C      1  0.4695350000000  0.5467890000000  0.4420740000000 1.0
C      1  0.4589410000000  0.5224490000000  0.4408700000000 1.0
C      1  0.4441640000000  0.5003960000000  0.4420790000000 1.0
C      1  0.4532060000000  0.4695280000000  0.4420830000000 1.0
C      1  0.4775460000000  0.4589330000000  0.4408780000000 1.0
C      1  0.4995980000000  0.4441560000000  0.4420850000000 1.0
C      1  0.5304660000000  0.4531980000000  0.4420840000000 1.0
C      1  0.5410600000000  0.4775380000000  0.4408760000000 1.0
C      1  0.5558360000000  0.4995910000000  0.4420800000000 1.0
C      1  0.5467940000000  0.5304590000000  0.4420760000000 1.0
C      1  0.5224550000000  0.5410530000000  0.4408690000000 1.0
C      1  0.4073990000000  0.4977670000000  0.5284730000000 1.0
C      1  0.4208280000000  0.4519240000000  0.5284780000000 1.0
C      1  0.4577740000000  0.4227900000000  0.5220770000000 1.0
C      1  0.5022370000000  0.4074020000000  0.5284840000000 1.0
C      1  0.5480790000000  0.4208300000000  0.5284830000000 1.0
C      1  0.5772120000000  0.4577760000000  0.5220740000000 1.0
C      1  0.5926010000000  0.5022400000000  0.5284730000000 1.0
C      1  0.5791720000000  0.5480830000000  0.5284680000000 1.0
C      1  0.5422260000000  0.5772150000000  0.5220600000000 1.0
C      1  0.4977630000000  0.5926040000000  0.5284630000000 1.0
C      1  0.4519200000000  0.5791760000000  0.5284650000000 1.0
C      1  0.4227880000000  0.5422290000000  0.5220640000000 1.0
END
