TITL C-2441165-58-828 0.0664824065182495 125000 -10636.6124204075 0 0 84 (C1) n - 1
REM
REM in /home/bkarasulu/work/CARBON/AIRSS/Generating-Clusters/ReaxFF-fromJPCA2015/Units_Real/with-SteepDescent/Higher-Symm
REM
REM
REM
REM
REM
REM ./C.cell (1df0a924f5614ab8850e4351716899ee)
REM
REM compiler GCC version 9.2.1 20190827 (Red Hat 9.2.1-1)
REM options -cpp -mtune=generic -march=x86-64 -g -O0 -fpre-include=/usr/include/finclude/math-vector-fortran.h
REM seed -791464943 -1512865839 97432597 -73569819 646094795 366026924 1744061231 -767904853 -1677462084 -7704614 -58323649 -1578247260 -1022936390 333345639 -599700103 -1813838103 208507960 384653576 -279107296 -283507910 1031137419 1579231692 -391936127 632172038 711613092 791879433 448891579 -1373083539 -1177206995 -1169332774 426255400 -141977093 -689682314
REM
CELL 1.54180   50.00000   50.00000   50.00000   90.00000   90.00000   90.00000
LATT -1
SFAC C  
C      1  0.5239470000000  0.4516990000000  0.5598900000000 1.0
C      1  0.5402480000000  0.4527890000000  0.4492090000000 1.0
C      1  0.4347280000000  0.4520440000000  0.4911670000000 1.0
C      1  0.5278660000000  0.5326680000000  0.5196920000000 1.0
C      1  0.5027930000000  0.5345830000000  0.4615570000000 1.0
C      1  0.4678540000000  0.5345040000000  0.5142520000000 1.0
C      1  0.4447020000000  0.4628100000000  0.5444240000000 1.0
C      1  0.5637400000000  0.4640460000000  0.5259030000000 1.0
C      1  0.4861240000000  0.4586810000000  0.4288700000000 1.0
C      1  0.4997950000000  0.4671990000000  0.5170560000000 1.0
C      1  0.5153750000000  0.4687200000000  0.4913960000000 1.0
C      1  0.4860870000000  0.4707290000000  0.4911420000000 1.0
C      1  0.5308170000000  0.5811410000000  0.5069660000000 1.0
C      1  0.4898420000000  0.5814810000000  0.4701970000000 1.0
C      1  0.4786010000000  0.5810800000000  0.5240160000000 1.0
C      1  0.4832890000000  0.5255900000000  0.5679700000000 1.0
C      1  0.5671840000000  0.5278610000000  0.4800620000000 1.0
C      1  0.4526140000000  0.5267330000000  0.4497110000000 1.0
C      1  0.4548860000000  0.5466310000000  0.4706520000000 1.0
C      1  0.4989360000000  0.5455700000000  0.5534450000000 1.0
C      1  0.5455920000000  0.5468640000000  0.4746780000000 1.0
C      1  0.5495610000000  0.4480470000000  0.5065160000000 1.0
C      1  0.4818340000000  0.4500060000000  0.4558990000000 1.0
C      1  0.4683750000000  0.4483900000000  0.5385390000000 1.0
C      1  0.5211360000000  0.4285000000000  0.4839540000000 1.0
C      1  0.4711170000000  0.4267730000000  0.4873930000000 1.0
C      1  0.5020820000000  0.4281530000000  0.5275470000000 1.0
C      1  0.5642440000000  0.5106890000000  0.5411520000000 1.0
C      1  0.5035180000000  0.5103550000000  0.4330330000000 1.0
C      1  0.4358060000000  0.5062870000000  0.5306750000000 1.0
C      1  0.5491140000000  0.4637750000000  0.5508200000000 1.0
C      1  0.5158100000000  0.4599090000000  0.4320150000000 1.0
C      1  0.4310850000000  0.4586720000000  0.5197690000000 1.0
C      1  0.4694220000000  0.4834030000000  0.4311420000000 1.0
C      1  0.4482990000000  0.4906660000000  0.5518530000000 1.0
C      1  0.5697470000000  0.4916250000000  0.5189690000000 1.0
C      1  0.5088420000000  0.5168870000000  0.4816840000000 1.0
C      1  0.4863380000000  0.5156200000000  0.4997850000000 1.0
C      1  0.5058340000000  0.5139630000000  0.5215330000000 1.0
C      1  0.4752100000000  0.4944950000000  0.4806210000000 1.0
C      1  0.4980260000000  0.4900390000000  0.5338730000000 1.0
C      1  0.5267840000000  0.4946540000000  0.4853910000000 1.0
C      1  0.5070940000000  0.5854690000000  0.5228550000000 1.0
C      1  0.5155650000000  0.5853180000000  0.4829060000000 1.0
C      1  0.4767000000000  0.5857120000000  0.4956470000000 1.0
C      1  0.5508310000000  0.4784250000000  0.4433970000000 1.0
C      1  0.4267490000000  0.4785110000000  0.4843460000000 1.0
C      1  0.5200100000000  0.4701600000000  0.5796040000000 1.0
C      1  0.5892990000000  0.5366400000000  0.4977770000000 1.0
C      1  0.4534240000000  0.5367890000000  0.4202630000000 1.0
C      1  0.4566860000000  0.5360170000000  0.5798570000000 1.0
C      1  0.4995510000000  0.4873760000000  0.5886030000000 1.0
C      1  0.5751380000000  0.4858070000000  0.4558080000000 1.0
C      1  0.4283830000000  0.4867830000000  0.4564800000000 1.0
C      1  0.5263180000000  0.5477100000000  0.4538720000000 1.0
C      1  0.4471990000000  0.5457570000000  0.4995200000000 1.0
C      1  0.5268940000000  0.5464570000000  0.5448310000000 1.0
C      1  0.5538250000000  0.4508400000000  0.4774690000000 1.0
C      1  0.4550510000000  0.4451090000000  0.4698430000000 1.0
C      1  0.4912580000000  0.4495290000000  0.5567950000000 1.0
C      1  0.5210570000000  0.4877590000000  0.4362390000000 1.0
C      1  0.4323450000000  0.4862070000000  0.5119170000000 1.0
C      1  0.5457700000000  0.4925640000000  0.5521770000000 1.0
C      1  0.4813260000000  0.5535400000000  0.4638020000000 1.0
C      1  0.4782270000000  0.5521770000000  0.5341420000000 1.0
C      1  0.5388490000000  0.5522040000000  0.5017680000000 1.0
C      1  0.4279470000000  0.5159910000000  0.4626530000000 1.0
C      1  0.5069860000000  0.5146990000000  0.5804590000000 1.0
C      1  0.5722250000000  0.5143000000000  0.4526110000000 1.0
C      1  0.4762170000000  0.5038210000000  0.4524720000000 1.0
C      1  0.4767680000000  0.4957160000000  0.5529090000000 1.0
C      1  0.5564930000000  0.4978260000000  0.4928280000000 1.0
C      1  0.4757550000000  0.4295690000000  0.5162750000000 1.0
C      1  0.5265870000000  0.4284770000000  0.5119970000000 1.0
C      1  0.4957140000000  0.4284190000000  0.4709870000000 1.0
C      1  0.4799490000000  0.4731630000000  0.5711000000000 1.0
C      1  0.5713630000000  0.4738910000000  0.4818280000000 1.0
C      1  0.4481830000000  0.4695190000000  0.4444690000000 1.0
C      1  0.4272170000000  0.5304180000000  0.5158620000000 1.0
C      1  0.5498220000000  0.5323170000000  0.5552710000000 1.0
C      1  0.5262640000000  0.5304450000000  0.4299590000000 1.0
C      1  0.5335260000000  0.5128230000000  0.5677300000000 1.0
C      1  0.5513760000000  0.5208180000000  0.4366380000000 1.0
C      1  0.4228520000000  0.5205960000000  0.4896160000000 1.0
END
