TITL C-2441169-1362-967 1.38299243646403e-05 125000 -1865.33575518982 0 0 14 (D3h) n - 1
REM
REM in /home/bkarasulu/work/CARBON/AIRSS/Generating-Clusters/ReaxFF-fromJPCA2015/Units_Real/with-SteepDescent/Higher-Symm
REM
REM
REM
REM
REM
REM ./C.cell (1df0a924f5614ab8850e4351716899ee)
REM
REM compiler GCC version 9.2.1 20190827 (Red Hat 9.2.1-1)
REM options -cpp -mtune=generic -march=x86-64 -g -O0 -fpre-include=/usr/include/finclude/math-vector-fortran.h
REM seed -852610123 211805800 -1336617747 1362587729 -1228645383 -449595257 363166095 -1078243613 -906239449 -527703166 1685752076 -1322648471 389142897 -806307615 -878275315 2121693473 -1163689834 -1907358192 64652856 -314830450 -1554160147 967553458 -1549546088 -1612389418 1974963310 852095280 1748457357 1452520580 -1127274479 -1895364095 -1616245887 1754208578 426183904
REM
CELL 1.54180   50.00000   50.00000   50.00000   90.00000   90.00000   90.00000
LATT -1
SFAC C  
C      1  0.4615040000000  0.4817600000000  0.5386660000000 1.0
C      1  0.4856610000000  0.4817600000000  0.4463500000000 1.0
C      1  0.5535310000000  0.4817600000000  0.5134280000000 1.0
C      1  0.4615040000000  0.5137650000000  0.5386660000000 1.0
C      1  0.4856610000000  0.5137640000000  0.4463500000000 1.0
C      1  0.5535310000000  0.5137640000000  0.5134280000000 1.0
C      1  0.4923320000000  0.5252330000000  0.4712730000000 1.0
C      1  0.5286110000000  0.5252320000000  0.5067440000000 1.0
C      1  0.4797530000000  0.5252330000000  0.5204260000000 1.0
C      1  0.4923320000000  0.4702920000000  0.4712730000000 1.0
C      1  0.5286100000000  0.4702920000000  0.5067440000000 1.0
C      1  0.4797530000000  0.4702920000000  0.5204260000000 1.0
C      1  0.5002320000000  0.4807530000000  0.4994810000000 1.0
C      1  0.5002320000000  0.5147710000000  0.4994810000000 1.0
END
