TITL C-2441154-10-115 0.0086641569576829 125000 -10592.1505542296 0 0 72 (D2d) n - 1
REM
REM in /home/bkarasulu/work/CARBON/AIRSS/Generating-Clusters/ReaxFF-fromJPCA2015/Units_Real/with-SteepDescent/Higher-Symm
REM
REM
REM
REM
REM
REM ./C.cell (1df0a924f5614ab8850e4351716899ee)
REM
REM compiler GCC version 9.2.1 20190827 (Red Hat 9.2.1-1)
REM options -cpp -mtune=generic -march=x86-64 -g -O0 -fpre-include=/usr/include/finclude/math-vector-fortran.h
REM seed 692413456 -320101905 -329777074 1310607657 -1367287187 -1767701637 -1086469835 563108468 964301708 -1241800809 1906325195 -642214175 -1749822461 -1639863826 -90780831 93812245 -169265853 1530656732 -2141057882 971087315 -1506862418 -1636371115 1895513098 -1198221460 -1064750677 1750702492 1609496817 1710270754 -1982819810 1838011923 522876081 -179350288 1551287324
REM
CELL 1.54180   50.00000   50.00000   50.00000   90.00000   90.00000   90.00000
LATT -1
SFAC C  
C      1  0.4924710000000  0.5583740000000  0.5361020000000 1.0
C      1  0.4924570000000  0.4415990000000  0.4638880000000 1.0
C      1  0.5075590000000  0.5584860000000  0.4638290000000 1.0
C      1  0.5075830000000  0.4413580000000  0.5363080000000 1.0
C      1  0.4924810000000  0.5360990000000  0.5583730000000 1.0
C      1  0.4924500000000  0.4638750000000  0.4415920000000 1.0
C      1  0.5075810000000  0.4638010000000  0.5585350000000 1.0
C      1  0.5075610000000  0.5362240000000  0.4414710000000 1.0
C      1  0.5408580000000  0.4777220000000  0.5024210000000 1.0
C      1  0.5409610000000  0.5220620000000  0.4976920000000 1.0
C      1  0.4590610000000  0.4778260000000  0.4975850000000 1.0
C      1  0.4590050000000  0.5221390000000  0.5023520000000 1.0
C      1  0.5408840000000  0.5024130000000  0.4777310000000 1.0
C      1  0.5409410000000  0.4976900000000  0.5220670000000 1.0
C      1  0.4590300000000  0.4976660000000  0.4778430000000 1.0
C      1  0.4590510000000  0.5023930000000  0.5221820000000 1.0
C      1  0.4932460000000  0.4866470000000  0.5699920000000 1.0
C      1  0.4932210000000  0.5133780000000  0.4299950000000 1.0
C      1  0.5067860000000  0.4866650000000  0.4300120000000 1.0
C      1  0.5068270000000  0.5133580000000  0.5700260000000 1.0
C      1  0.4932320000000  0.5700030000000  0.4866540000000 1.0
C      1  0.4932440000000  0.4300180000000  0.5133890000000 1.0
C      1  0.5067890000000  0.4300270000000  0.4866720000000 1.0
C      1  0.5068190000000  0.5700280000000  0.5133590000000 1.0
C      1  0.5362750000000  0.4425950000000  0.5358320000000 1.0
C      1  0.5362650000000  0.5573250000000  0.4642240000000 1.0
C      1  0.4637330000000  0.4427050000000  0.4642300000000 1.0
C      1  0.4637290000000  0.5572910000000  0.5357670000000 1.0
C      1  0.5362670000000  0.5358170000000  0.4426300000000 1.0
C      1  0.5362620000000  0.4642240000000  0.5573250000000 1.0
C      1  0.4637210000000  0.4642350000000  0.4426960000000 1.0
C      1  0.4637380000000  0.5357650000000  0.5572890000000 1.0
C      1  0.4497820000000  0.4898250000000  0.4366420000000 1.0
C      1  0.4497820000000  0.5101810000000  0.5633700000000 1.0
C      1  0.5501650000000  0.4898430000000  0.5633410000000 1.0
C      1  0.5502190000000  0.5101960000000  0.4366010000000 1.0
C      1  0.4497850000000  0.4366120000000  0.4898090000000 1.0
C      1  0.4497820000000  0.5633520000000  0.5101800000000 1.0
C      1  0.5501720000000  0.5633460000000  0.4898320000000 1.0
C      1  0.5502150000000  0.4366010000000  0.5101920000000 1.0
C      1  0.4639670000000  0.4850070000000  0.5706060000000 1.0
C      1  0.4639440000000  0.5150000000000  0.4293780000000 1.0
C      1  0.5360600000000  0.4850000000000  0.4293770000000 1.0
C      1  0.5360850000000  0.5150420000000  0.5706750000000 1.0
C      1  0.4639560000000  0.5706160000000  0.4850040000000 1.0
C      1  0.4639560000000  0.4293890000000  0.5150020000000 1.0
C      1  0.5360600000000  0.4293770000000  0.4849940000000 1.0
C      1  0.5360820000000  0.5706670000000  0.5150320000000 1.0
C      1  0.4877120000000  0.4726940000000  0.5074600000000 1.0
C      1  0.4877060000000  0.5273350000000  0.4924870000000 1.0
C      1  0.5123090000000  0.4726440000000  0.4924890000000 1.0
C      1  0.5122470000000  0.5273440000000  0.5075200000000 1.0
C      1  0.4877340000000  0.5074910000000  0.4726730000000 1.0
C      1  0.4876720000000  0.4925210000000  0.5273280000000 1.0
C      1  0.5123170000000  0.4924990000000  0.4726330000000 1.0
C      1  0.5122380000000  0.5075180000000  0.5273460000000 1.0
C      1  0.4393440000000  0.5407090000000  0.4968610000000 1.0
C      1  0.4393190000000  0.4593050000000  0.5031370000000 1.0
C      1  0.5606190000000  0.5406980000000  0.5031380000000 1.0
C      1  0.5606560000000  0.4593190000000  0.4968470000000 1.0
C      1  0.4393600000000  0.4968650000000  0.5406930000000 1.0
C      1  0.4393400000000  0.5031450000000  0.4592860000000 1.0
C      1  0.5606050000000  0.5031440000000  0.5406960000000 1.0
C      1  0.5606610000000  0.4968490000000  0.4593140000000 1.0
C      1  0.5526650000000  0.4501030000000  0.4710420000000 1.0
C      1  0.5526440000000  0.5499000000000  0.5289830000000 1.0
C      1  0.4473690000000  0.4501100000000  0.5289560000000 1.0
C      1  0.4473580000000  0.5499000000000  0.4710340000000 1.0
C      1  0.5526680000000  0.4710450000000  0.4500980000000 1.0
C      1  0.5526370000000  0.5289920000000  0.5498970000000 1.0
C      1  0.4473520000000  0.5289700000000  0.4500960000000 1.0
C      1  0.4473660000000  0.4710420000000  0.5498880000000 1.0
END
