TITL C-2441156-4686-131 0.205470888103754 125000 -21529.4207825535 0 0 182 (C1) n - 1
REM
REM in /home/bkarasulu/work/CARBON/AIRSS/Generating-Clusters/ReaxFF-fromJPCA2015/Units_Real/with-SteepDescent/Higher-Symm
REM
REM
REM
REM
REM
REM ./C.cell (1df0a924f5614ab8850e4351716899ee)
REM
REM compiler GCC version 9.2.1 20190827 (Red Hat 9.2.1-1)
REM options -cpp -mtune=generic -march=x86-64 -g -O0 -fpre-include=/usr/include/finclude/math-vector-fortran.h
REM seed -1762446373 1605735783 -1615878240 -1706889947 422000782 2081349242 -93174071 58857344 1909171382 1447228459 -85869815 -1126588164 -426552802 584179917 -1965229007 -1680741498 -993837966 -1158834810 486671770 -982347707 -1083107410 -1027950159 1169628663 1312792605 1984931112 84944445 -284314940 -1560482780 -805042542 -298569009 316427963 1776632890 920859074
REM
CELL 1.54180   50.00000   50.00000   50.00000   90.00000   90.00000   90.00000
LATT -1
SFAC C  
C      1  0.5530340000000  0.4641370000000  0.4679160000000 1.0
C      1  0.4418030000000  0.5251920000000  0.4617820000000 1.0
C      1  0.5516250000000  0.5435760000000  0.4866120000000 1.0
C      1  0.4490920000000  0.5343330000000  0.5321880000000 1.0
C      1  0.5559230000000  0.4878390000000  0.5409650000000 1.0
C      1  0.4475980000000  0.4525110000000  0.5062540000000 1.0
C      1  0.4829700000000  0.5063940000000  0.5154960000000 1.0
C      1  0.5180740000000  0.4828000000000  0.5245350000000 1.0
C      1  0.4839060000000  0.4808780000000  0.5001560000000 1.0
C      1  0.5151510000000  0.4842100000000  0.4686150000000 1.0
C      1  0.4827470000000  0.5175800000000  0.4702590000000 1.0
C      1  0.5163270000000  0.5311400000000  0.4983780000000 1.0
C      1  0.5428080000000  0.5040610000000  0.5602540000000 1.0
C      1  0.4606050000000  0.4477460000000  0.5425300000000 1.0
C      1  0.5348810000000  0.4428860000000  0.4719310000000 1.0
C      1  0.4669380000000  0.5038310000000  0.4289800000000 1.0
C      1  0.5447370000000  0.5480640000000  0.4613500000000 1.0
C      1  0.4613820000000  0.5573150000000  0.5229500000000 1.0
C      1  0.4364440000000  0.4934190000000  0.5395310000000 1.0
C      1  0.5629040000000  0.4555170000000  0.5057260000000 1.0
C      1  0.4374120000000  0.4812470000000  0.4615340000000 1.0
C      1  0.5618130000000  0.5083890000000  0.4602870000000 1.0
C      1  0.4188960000000  0.5440300000000  0.5045910000000 1.0
C      1  0.5655320000000  0.5298320000000  0.5255680000000 1.0
C      1  0.4521800000000  0.4136950000000  0.4720390000000 1.0
C      1  0.5506160000000  0.4787530000000  0.4146580000000 1.0
C      1  0.4550350000000  0.5670360000000  0.4386990000000 1.0
C      1  0.5470660000000  0.5873630000000  0.5252950000000 1.0
C      1  0.4528770000000  0.5182100000000  0.5873350000000 1.0
C      1  0.5474880000000  0.4345190000000  0.5600520000000 1.0
C      1  0.5294580000000  0.5385030000000  0.5941460000000 1.0
C      1  0.4704930000000  0.4329730000000  0.5817220000000 1.0
C      1  0.5300530000000  0.3972850000000  0.4836750000000 1.0
C      1  0.4722970000000  0.4623480000000  0.4058960000000 1.0
C      1  0.5300830000000  0.5679320000000  0.4193510000000 1.0
C      1  0.4706760000000  0.6013700000000  0.5141080000000 1.0
C      1  0.5803720000000  0.5504600000000  0.4807640000000 1.0
C      1  0.4181550000000  0.5360070000000  0.5335250000000 1.0
C      1  0.5817130000000  0.4931790000000  0.5531440000000 1.0
C      1  0.4230230000000  0.4503490000000  0.5221960000000 1.0
C      1  0.5802970000000  0.4634980000000  0.4587270000000 1.0
C      1  0.4216400000000  0.5040180000000  0.4542290000000 1.0
C      1  0.4791500000000  0.5780770000000  0.5474230000000 1.0
C      1  0.5190050000000  0.4971290000000  0.5898050000000 1.0
C      1  0.4773620000000  0.4218800000000  0.5437670000000 1.0
C      1  0.5211570000000  0.4242700000000  0.4536430000000 1.0
C      1  0.4886250000000  0.5019270000000  0.4113120000000 1.0
C      1  0.5194020000000  0.5808930000000  0.4572430000000 1.0
C      1  0.5703990000000  0.5775840000000  0.4821750000000 1.0
C      1  0.4429330000000  0.5576030000000  0.5711650000000 1.0
C      1  0.5552970000000  0.4674820000000  0.5844050000000 1.0
C      1  0.4438830000000  0.4083450000000  0.5145210000000 1.0
C      1  0.5567130000000  0.4380990000000  0.4267600000000 1.0
C      1  0.4434660000000  0.5339460000000  0.4132490000000 1.0
C      1  0.4270270000000  0.5759720000000  0.4772050000000 1.0
C      1  0.5732790000000  0.5599820000000  0.5550200000000 1.0
C      1  0.4255130000000  0.4749290000000  0.5729910000000 1.0
C      1  0.5728190000000  0.4202380000000  0.5211110000000 1.0
C      1  0.4235840000000  0.4426170000000  0.4472300000000 1.0
C      1  0.5714400000000  0.5258030000000  0.4242080000000 1.0
C      1  0.4435000000000  0.4253980000000  0.5685890000000 1.0
C      1  0.5560340000000  0.4100290000000  0.4736390000000 1.0
C      1  0.4455520000000  0.4758270000000  0.4116510000000 1.0
C      1  0.5535910000000  0.5750570000000  0.4351650000000 1.0
C      1  0.4441940000000  0.5921000000000  0.5256920000000 1.0
C      1  0.5557080000000  0.5212530000000  0.5926410000000 1.0
C      1  0.4037380000000  0.4712190000000  0.4863480000000 1.0
C      1  0.6016700000000  0.5034130000000  0.4685180000000 1.0
C      1  0.4051550000000  0.5292230000000  0.4831870000000 1.0
C      1  0.6104050000000  0.5318040000000  0.5197780000000 1.0
C      1  0.3965650000000  0.4934810000000  0.5359800000000 1.0
C      1  0.5982930000000  0.4728200000000  0.5100540000000 1.0
C      1  0.5297370000000  0.5654770000000  0.5365430000000 1.0
C      1  0.4720350000000  0.5073470000000  0.5678130000000 1.0
C      1  0.5280700000000  0.4426260000000  0.5382590000000 1.0
C      1  0.4703410000000  0.4381500000000  0.4703040000000 1.0
C      1  0.5307010000000  0.4918170000000  0.4313070000000 1.0
C      1  0.4732190000000  0.5661660000000  0.4620950000000 1.0
C      1  0.5050620000000  0.5229010000000  0.5960190000000 1.0
C      1  0.4950740000000  0.4264390000000  0.5697040000000 1.0
C      1  0.5048240000000  0.4038200000000  0.4721830000000 1.0
C      1  0.4978470000000  0.4766330000000  0.4023970000000 1.0
C      1  0.5058290000000  0.5722260000000  0.4330640000000 1.0
C      1  0.4941050000000  0.5951490000000  0.5285850000000 1.0
C      1  0.4789960000000  0.5316990000000  0.5534020000000 1.0
C      1  0.5158880000000  0.4679580000000  0.5484800000000 1.0
C      1  0.4736700000000  0.4389240000000  0.5006510000000 1.0
C      1  0.5217740000000  0.4702960000000  0.4453590000000 1.0
C      1  0.4680940000000  0.5296020000000  0.4459480000000 1.0
C      1  0.5236960000000  0.5594630000000  0.5025850000000 1.0
C      1  0.4618380000000  0.4884230000000  0.5498910000000 1.0
C      1  0.5374000000000  0.4497740000000  0.5127070000000 1.0
C      1  0.4612280000000  0.4645120000000  0.4606500000000 1.0
C      1  0.5370060000000  0.5126430000000  0.4472670000000 1.0
C      1  0.4678850000000  0.5503710000000  0.4855290000000 1.0
C      1  0.5390740000000  0.5368550000000  0.5355470000000 1.0
C      1  0.5842170000000  0.5062710000000  0.4445370000000 1.0
C      1  0.4184140000000  0.5498740000000  0.4619360000000 1.0
C      1  0.5845470000000  0.5531990000000  0.5290220000000 1.0
C      1  0.4157520000000  0.5000280000000  0.5590110000000 1.0
C      1  0.5797430000000  0.4500310000000  0.5292490000000 1.0
C      1  0.4165190000000  0.4453290000000  0.4769290000000 1.0
C      1  0.5335310000000  0.5468730000000  0.3993540000000 1.0
C      1  0.4838680000000  0.6042360000000  0.4886100000000 1.0
C      1  0.5162500000000  0.5626690000000  0.5846960000000 1.0
C      1  0.4825610000000  0.4550900000000  0.5985730000000 1.0
C      1  0.5312190000000  0.3898730000000  0.5121820000000 1.0
C      1  0.4825360000000  0.4382050000000  0.4179740000000 1.0
C      1  0.5315720000000  0.4418830000000  0.4114410000000 1.0
C      1  0.4715730000000  0.5441820000000  0.4075850000000 1.0
C      1  0.5246720000000  0.6046120000000  0.4894130000000 1.0
C      1  0.4675240000000  0.5574660000000  0.5875320000000 1.0
C      1  0.5296370000000  0.4545400000000  0.5914710000000 1.0
C      1  0.4703280000000  0.3970310000000  0.5073620000000 1.0
C      1  0.4788070000000  0.5677100000000  0.4215010000000 1.0
C      1  0.5218770000000  0.6017810000000  0.5176080000000 1.0
C      1  0.4764180000000  0.5329000000000  0.5995670000000 1.0
C      1  0.5233580000000  0.4310440000000  0.5771040000000 1.0
C      1  0.4772470000000  0.3975000000000  0.4794690000000 1.0
C      1  0.5271120000000  0.4678210000000  0.3997620000000 1.0
C      1  0.4293770000000  0.4210790000000  0.4902450000000 1.0
C      1  0.5707360000000  0.4633410000000  0.4302970000000 1.0
C      1  0.4306470000000  0.5513200000000  0.4339980000000 1.0
C      1  0.5701370000000  0.5774960000000  0.5107030000000 1.0
C      1  0.4319710000000  0.5308230000000  0.5712420000000 1.0
C      1  0.5683310000000  0.4543420000000  0.5612320000000 1.0
C      1  0.4826960000000  0.5510970000000  0.5097240000000 1.0
C      1  0.5221360000000  0.5193310000000  0.5500610000000 1.0
C      1  0.4756920000000  0.4665250000000  0.5406260000000 1.0
C      1  0.5190140000000  0.4471620000000  0.4930870000000 1.0
C      1  0.4776190000000  0.4815860000000  0.4463450000000 1.0
C      1  0.5202450000000  0.5356770000000  0.4541210000000 1.0
C      1  0.5188660000000  0.4069770000000  0.5331350000000 1.0
C      1  0.4707640000000  0.4204970000000  0.4368160000000 1.0
C      1  0.5212470000000  0.5216940000000  0.3978370000000 1.0
C      1  0.4729930000000  0.5965110000000  0.4635930000000 1.0
C      1  0.5306590000000  0.5767960000000  0.5649080000000 1.0
C      1  0.4686100000000  0.4773590000000  0.6040340000000 1.0
C      1  0.4868970000000  0.4592280000000  0.5171510000000 1.0
C      1  0.5032300000000  0.4680620000000  0.4835130000000 1.0
C      1  0.4952290000000  0.4972960000000  0.4599630000000 1.0
C      1  0.5019920000000  0.5347670000000  0.4761870000000 1.0
C      1  0.4921710000000  0.5309090000000  0.5271600000000 1.0
C      1  0.5063070000000  0.4962090000000  0.5441610000000 1.0
C      1  0.5419010000000  0.4885050000000  0.5166150000000 1.0
C      1  0.4528970000000  0.4768770000000  0.4993980000000 1.0
C      1  0.5444330000000  0.4918730000000  0.4878230000000 1.0
C      1  0.4557610000000  0.5102310000000  0.4799780000000 1.0
C      1  0.5400140000000  0.5192550000000  0.4928900000000 1.0
C      1  0.4552830000000  0.5162810000000  0.5090640000000 1.0
C      1  0.4450660000000  0.4786880000000  0.5921240000000 1.0
C      1  0.5496730000000  0.4038510000000  0.5288610000000 1.0
C      1  0.4445210000000  0.4276690000000  0.4349710000000 1.0
C      1  0.5505900000000  0.5238440000000  0.4035400000000 1.0
C      1  0.4470220000000  0.5951510000000  0.4727510000000 1.0
C      1  0.5547020000000  0.5653860000000  0.5726960000000 1.0
C      1  0.5979530000000  0.4770900000000  0.4805480000000 1.0
C      1  0.4022340000000  0.5006940000000  0.4755370000000 1.0
C      1  0.5968170000000  0.5262330000000  0.4901020000000 1.0
C      1  0.3972910000000  0.5184660000000  0.5248140000000 1.0
C      1  0.5990930000000  0.4969350000000  0.5274790000000 1.0
C      1  0.4023880000000  0.4700960000000  0.5154580000000 1.0
C      1  0.5695360000000  0.5160750000000  0.5676680000000 1.0
C      1  0.4325120000000  0.4502510000000  0.5529210000000 1.0
C      1  0.5698820000000  0.4276530000000  0.4932820000000 1.0
C      1  0.4286870000000  0.4688950000000  0.4352780000000 1.0
C      1  0.5654720000000  0.5488720000000  0.4410100000000 1.0
C      1  0.4330100000000  0.5714290000000  0.5062420000000 1.0
C      1  0.4920670000000  0.4119710000000  0.5206380000000 1.0
C      1  0.5101460000000  0.4451610000000  0.4330470000000 1.0
C      1  0.4955920000000  0.5273540000000  0.4084930000000 1.0
C      1  0.5073000000000  0.5815750000000  0.4845180000000 1.0
C      1  0.4898860000000  0.5590560000000  0.5687590000000 1.0
C      1  0.5062970000000  0.4706850000000  0.5911850000000 1.0
C      1  0.5501110000000  0.4173310000000  0.4464770000000 1.0
C      1  0.4436070000000  0.5046970000000  0.4084730000000 1.0
C      1  0.5479360000000  0.5870840000000  0.4613570000000 1.0
C      1  0.4497050000000  0.5809160000000  0.5515980000000 1.0
C      1  0.5474300000000  0.4937590000000  0.5974290000000 1.0
C      1  0.4486150000000  0.4111670000000  0.5437960000000 1.0
C      1  0.4342580000000  0.4946730000000  0.5115290000000 1.0
C      1  0.5784850000000  0.5091530000000  0.5088400000000 1.0
END
