TITL C-2441167-4473-675 0.0362497354063475 125000 -19476.0438199439 0 0 141 (C1) n - 1
REM
REM in /home/bkarasulu/work/CARBON/AIRSS/Generating-Clusters/ReaxFF-fromJPCA2015/Units_Real/with-SteepDescent/Higher-Symm
REM
REM
REM
REM
REM
REM ./C.cell (1df0a924f5614ab8850e4351716899ee)
REM
REM compiler GCC version 9.2.1 20190827 (Red Hat 9.2.1-1)
REM options -cpp -mtune=generic -march=x86-64 -g -O0 -fpre-include=/usr/include/finclude/math-vector-fortran.h
REM seed -321654271 -534746272 981272664 -745799165 -1773839461 179568972 1416825058 -1262884166 -1147669916 -1388007975 685438592 1106737018 -561207567 -853328119 -323591184 -1105490996 -1777045790 -1708039136 488769648 -1083535279 1350426214 1174258604 1313224469 -1465342539 -480874946 1804969693 -1250302452 1662498330 1143551238 -1651453024 1595048261 294262673 1333340147
REM
CELL 1.54180   50.00000   50.00000   50.00000   90.00000   90.00000   90.00000
LATT -1
SFAC C  
C      1  0.5880860000000  0.4596910000000  0.5227280000000 1.0
C      1  0.5821350000000  0.5425890000000  0.4802950000000 1.0
C      1  0.5825670000000  0.5380160000000  0.5267210000000 1.0
C      1  0.5859210000000  0.4660400000000  0.4766910000000 1.0
C      1  0.5611850000000  0.4506560000000  0.5541450000000 1.0
C      1  0.5592030000000  0.5531950000000  0.4468980000000 1.0
C      1  0.5646740000000  0.5543230000000  0.5601900000000 1.0
C      1  0.5637350000000  0.4497790000000  0.4410450000000 1.0
C      1  0.4842640000000  0.4589050000000  0.5768330000000 1.0
C      1  0.4760890000000  0.5171800000000  0.4053610000000 1.0
C      1  0.4896830000000  0.5368180000000  0.5824100000000 1.0
C      1  0.4783100000000  0.4669910000000  0.4131860000000 1.0
C      1  0.5408720000000  0.4749680000000  0.5303220000000 1.0
C      1  0.5565870000000  0.5259990000000  0.4799020000000 1.0
C      1  0.5504930000000  0.5274960000000  0.5280840000000 1.0
C      1  0.5585580000000  0.4752870000000  0.4816200000000 1.0
C      1  0.4246700000000  0.4715740000000  0.5346790000000 1.0
C      1  0.4304290000000  0.5303030000000  0.4683950000000 1.0
C      1  0.4209600000000  0.5263040000000  0.5338010000000 1.0
C      1  0.4185620000000  0.4783260000000  0.4605000000000 1.0
C      1  0.4690300000000  0.5306910000000  0.5624670000000 1.0
C      1  0.4759260000000  0.4838700000000  0.4568780000000 1.0
C      1  0.4721490000000  0.4812910000000  0.5690020000000 1.0
C      1  0.4725610000000  0.5311390000000  0.4310280000000 1.0
C      1  0.4425950000000  0.5828180000000  0.5141690000000 1.0
C      1  0.4433810000000  0.4137210000000  0.4809500000000 1.0
C      1  0.4434110000000  0.4131730000000  0.5225940000000 1.0
C      1  0.4496130000000  0.5821020000000  0.4705630000000 1.0
C      1  0.4894200000000  0.5667140000000  0.4721990000000 1.0
C      1  0.4787640000000  0.4320220000000  0.5332860000000 1.0
C      1  0.4790290000000  0.4312040000000  0.4672860000000 1.0
C      1  0.4770860000000  0.5705740000000  0.5340490000000 1.0
C      1  0.5636600000000  0.4431600000000  0.5239850000000 1.0
C      1  0.5659820000000  0.5674070000000  0.4749180000000 1.0
C      1  0.5734330000000  0.5648820000000  0.5317260000000 1.0
C      1  0.5734380000000  0.4392990000000  0.4681670000000 1.0
C      1  0.5709030000000  0.4744640000000  0.4274830000000 1.0
C      1  0.5697170000000  0.5284910000000  0.5694360000000 1.0
C      1  0.5693900000000  0.5294820000000  0.4333930000000 1.0
C      1  0.5703900000000  0.4748630000000  0.5673070000000 1.0
C      1  0.4562150000000  0.5241280000000  0.4806640000000 1.0
C      1  0.4528370000000  0.4743720000000  0.5237550000000 1.0
C      1  0.4560130000000  0.4762050000000  0.4777760000000 1.0
C      1  0.4746760000000  0.5231620000000  0.5334740000000 1.0
C      1  0.4509350000000  0.4329900000000  0.4594700000000 1.0
C      1  0.4491370000000  0.5705100000000  0.5405500000000 1.0
C      1  0.4659830000000  0.5638290000000  0.4547950000000 1.0
C      1  0.4519890000000  0.4314720000000  0.5446540000000 1.0
C      1  0.5197640000000  0.5255920000000  0.4453410000000 1.0
C      1  0.5210070000000  0.4732570000000  0.5509200000000 1.0
C      1  0.5196540000000  0.4718890000000  0.4442430000000 1.0
C      1  0.5274190000000  0.5280100000000  0.5471870000000 1.0
C      1  0.5000840000000  0.4731650000000  0.5295590000000 1.0
C      1  0.5041220000000  0.5248970000000  0.4678690000000 1.0
C      1  0.5045410000000  0.5289880000000  0.5274960000000 1.0
C      1  0.5016040000000  0.4705080000000  0.4673230000000 1.0
C      1  0.5035890000000  0.4391740000000  0.5758750000000 1.0
C      1  0.5095640000000  0.5754130000000  0.4234330000000 1.0
C      1  0.5061150000000  0.5595680000000  0.5759400000000 1.0
C      1  0.4942010000000  0.4468190000000  0.4245480000000 1.0
C      1  0.5254990000000  0.4221460000000  0.4519290000000 1.0
C      1  0.5249080000000  0.5807080000000  0.5447560000000 1.0
C      1  0.5170720000000  0.5674480000000  0.4632720000000 1.0
C      1  0.5268460000000  0.4199860000000  0.5453540000000 1.0
C      1  0.4380720000000  0.5572700000000  0.4607470000000 1.0
C      1  0.4356160000000  0.4536520000000  0.5560620000000 1.0
C      1  0.4367140000000  0.4566080000000  0.4484800000000 1.0
C      1  0.4319530000000  0.5469310000000  0.5512040000000 1.0
C      1  0.4508960000000  0.5210250000000  0.4158120000000 1.0
C      1  0.4446460000000  0.4734340000000  0.5756760000000 1.0
C      1  0.4540930000000  0.4745850000000  0.4320290000000 1.0
C      1  0.4411070000000  0.5277160000000  0.5716580000000 1.0
C      1  0.5366580000000  0.5892090000000  0.5188360000000 1.0
C      1  0.5368500000000  0.4112890000000  0.4775170000000 1.0
C      1  0.5381530000000  0.4135580000000  0.5194520000000 1.0
C      1  0.5361010000000  0.5847800000000  0.4768080000000 1.0
C      1  0.4979030000000  0.4220180000000  0.5521450000000 1.0
C      1  0.4951690000000  0.5904700000000  0.4400900000000 1.0
C      1  0.4974390000000  0.5772460000000  0.5538680000000 1.0
C      1  0.4973360000000  0.4258480000000  0.4446570000000 1.0
C      1  0.5343170000000  0.4461140000000  0.4378610000000 1.0
C      1  0.5330220000000  0.5564030000000  0.5609610000000 1.0
C      1  0.5288660000000  0.5522230000000  0.4399960000000 1.0
C      1  0.5328470000000  0.4436240000000  0.5632600000000 1.0
C      1  0.5110830000000  0.4985650000000  0.4790330000000 1.0
C      1  0.5092690000000  0.4995660000000  0.5179170000000 1.0
C      1  0.5907890000000  0.4942280000000  0.4566440000000 1.0
C      1  0.5891760000000  0.4873140000000  0.5332010000000 1.0
C      1  0.5596880000000  0.4249950000000  0.4883870000000 1.0
C      1  0.5602980000000  0.5757700000000  0.5085700000000 1.0
C      1  0.5194470000000  0.5988480000000  0.4960250000000 1.0
C      1  0.5205090000000  0.4012150000000  0.5009500000000 1.0
C      1  0.4612550000000  0.5360800000000  0.5090890000000 1.0
C      1  0.4548780000000  0.4582530000000  0.5005080000000 1.0
C      1  0.4082000000000  0.4580840000000  0.5047000000000 1.0
C      1  0.4174440000000  0.5361370000000  0.5050100000000 1.0
C      1  0.4745900000000  0.4878590000000  0.5380340000000 1.0
C      1  0.4778200000000  0.5169650000000  0.4569880000000 1.0
C      1  0.5222990000000  0.5054200000000  0.6087610000000 1.0
C      1  0.5164320000000  0.4940210000000  0.3940850000000 1.0
C      1  0.3885640000000  0.5363020000000  0.4966970000000 1.0
C      1  0.3876810000000  0.4421930000000  0.5032290000000 1.0
C      1  0.5605310000000  0.4968450000000  0.5303130000000 1.0
C      1  0.5622740000000  0.4983020000000  0.4605140000000 1.0
C      1  0.4303620000000  0.4998520000000  0.5709840000000 1.0
C      1  0.4376800000000  0.4999190000000  0.4281880000000 1.0
C      1  0.5107700000000  0.5411610000000  0.4987050000000 1.0
C      1  0.5088420000000  0.4572480000000  0.5005280000000 1.0
C      1  0.4608010000000  0.5954790000000  0.4942200000000 1.0
C      1  0.4613780000000  0.4012760000000  0.5018430000000 1.0
C      1  0.5417190000000  0.4956770000000  0.5905970000000 1.0
C      1  0.5384580000000  0.5024010000000  0.4070510000000 1.0
C      1  0.5391160000000  0.4582070000000  0.5062850000000 1.0
C      1  0.5393150000000  0.5375530000000  0.5015570000000 1.0
C      1  0.5021200000000  0.5101760000000  0.5894440000000 1.0
C      1  0.4884170000000  0.4913500000000  0.3982760000000 1.0
C      1  0.5674480000000  0.5026870000000  0.4193160000000 1.0
C      1  0.5701110000000  0.5013810000000  0.5792970000000 1.0
C      1  0.4362980000000  0.4347200000000  0.5016190000000 1.0
C      1  0.4406700000000  0.5554290000000  0.5032150000000 1.0
C      1  0.4179820000000  0.4997200000000  0.5455140000000 1.0
C      1  0.4222810000000  0.5062840000000  0.4514710000000 1.0
C      1  0.4899620000000  0.5968010000000  0.5004290000000 1.0
C      1  0.4906550000000  0.4055390000000  0.5051410000000 1.0
C      1  0.4906980000000  0.5671740000000  0.5024030000000 1.0
C      1  0.4899700000000  0.4346980000000  0.4972270000000 1.0
C      1  0.5955950000000  0.5301120000000  0.5029600000000 1.0
C      1  0.6028550000000  0.4692850000000  0.4990080000000 1.0
C      1  0.5222650000000  0.5019370000000  0.5671970000000 1.0
C      1  0.5240460000000  0.4998720000000  0.4333870000000 1.0
C      1  0.5544180000000  0.4981260000000  0.4987980000000 1.0
C      1  0.3883190000000  0.5054370000000  0.4938850000000 1.0
C      1  0.6331950000000  0.4958280000000  0.5030380000000 1.0
C      1  0.3622530000000  0.5010910000000  0.4980310000000 1.0
C      1  0.6047600000000  0.4990030000000  0.5085500000000 1.0
C      1  0.4866940000000  0.4988720000000  0.4981580000000 1.0
C      1  0.3389160000000  0.4965560000000  0.5015720000000 1.0
C      1  0.6554730000000  0.5017360000000  0.4967810000000 1.0
C      1  0.4074220000000  0.4836940000000  0.4854760000000 1.0
C      1  0.5285780000000  0.4982740000000  0.4991660000000 1.0
C      1  0.4590360000000  0.4997910000000  0.4936720000000 1.0
END
