TITL C-2441166-8118-737 0.0590614944444412 125000 -20200.9891647248 0 0 145 (C1) n - 1
REM
REM in /home/bkarasulu/work/CARBON/AIRSS/Generating-Clusters/ReaxFF-fromJPCA2015/Units_Real/with-SteepDescent/Higher-Symm
REM
REM
REM
REM
REM
REM ./C.cell (1df0a924f5614ab8850e4351716899ee)
REM
REM compiler GCC version 9.2.1 20190827 (Red Hat 9.2.1-1)
REM options -cpp -mtune=generic -march=x86-64 -g -O0 -fpre-include=/usr/include/finclude/math-vector-fortran.h
REM seed 1729388278 1846239739 23740485 -1978332796 1494028135 -1779649248 1296331914 1345388563 -929905796 -1070056083 -2063080287 -451455596 -2006632696 -71743452 -191289379 1061918462 -584282738 -457724310 1148788349 -1897795806 -92030418 563754865 -499033952 243926502 2100655417 -1513051072 -483284146 -1087664561 1536745955 606283330 -1256894046 -1935529100 -448533888
REM
CELL 1.54180   50.00000   50.00000   50.00000   90.00000   90.00000   90.00000
LATT -1
SFAC C  
C      1  0.4292080000000  0.5592360000000  0.5363260000000 1.0
C      1  0.4614610000000  0.4312740000000  0.4296030000000 1.0
C      1  0.4524780000000  0.4397090000000  0.5479630000000 1.0
C      1  0.6020790000000  0.5390220000000  0.5033970000000 1.0
C      1  0.4068470000000  0.5031390000000  0.4393310000000 1.0
C      1  0.5105370000000  0.4338180000000  0.4255610000000 1.0
C      1  0.5618690000000  0.5027690000000  0.4857530000000 1.0
C      1  0.5895850000000  0.4645560000000  0.4724500000000 1.0
C      1  0.4907100000000  0.4851300000000  0.4793200000000 1.0
C      1  0.4072640000000  0.5170950000000  0.4868480000000 1.0
C      1  0.4672130000000  0.4829480000000  0.5942650000000 1.0
C      1  0.4377080000000  0.4083680000000  0.4709220000000 1.0
C      1  0.4883320000000  0.5578960000000  0.4219640000000 1.0
C      1  0.5385100000000  0.6030840000000  0.5113520000000 1.0
C      1  0.5347400000000  0.5383260000000  0.3990970000000 1.0
C      1  0.5248990000000  0.5419580000000  0.5383410000000 1.0
C      1  0.4066510000000  0.5402850000000  0.5056890000000 1.0
C      1  0.4901090000000  0.3941410000000  0.5218630000000 1.0
C      1  0.5540320000000  0.4977740000000  0.5861520000000 1.0
C      1  0.4514070000000  0.4570070000000  0.5247620000000 1.0
C      1  0.5134180000000  0.3939080000000  0.5006610000000 1.0
C      1  0.5169610000000  0.4380860000000  0.5854370000000 1.0
C      1  0.5056890000000  0.5776900000000  0.4309870000000 1.0
C      1  0.4809780000000  0.4360760000000  0.5591740000000 1.0
C      1  0.4812760000000  0.4676230000000  0.5006940000000 1.0
C      1  0.4355760000000  0.5752310000000  0.4749420000000 1.0
C      1  0.4715070000000  0.5168770000000  0.4555010000000 1.0
C      1  0.4071720000000  0.4706910000000  0.4768240000000 1.0
C      1  0.5456140000000  0.5612410000000  0.4161770000000 1.0
C      1  0.5241380000000  0.4774750000000  0.5118940000000 1.0
C      1  0.5333790000000  0.5809440000000  0.4347710000000 1.0
C      1  0.5493500000000  0.4156080000000  0.5464450000000 1.0
C      1  0.4440650000000  0.5622110000000  0.4495450000000 1.0
C      1  0.5375140000000  0.4299840000000  0.4360180000000 1.0
C      1  0.5159580000000  0.5265240000000  0.4694250000000 1.0
C      1  0.4563520000000  0.5405050000000  0.5015960000000 1.0
C      1  0.5310560000000  0.4763160000000  0.4583940000000 1.0
C      1  0.5456590000000  0.4716120000000  0.5784500000000 1.0
C      1  0.5335450000000  0.5196740000000  0.5811050000000 1.0
C      1  0.5389340000000  0.3985250000000  0.5107540000000 1.0
C      1  0.4032200000000  0.4903040000000  0.4975350000000 1.0
C      1  0.5626500000000  0.4094240000000  0.5221630000000 1.0
C      1  0.4078710000000  0.5397030000000  0.5349080000000 1.0
C      1  0.5008800000000  0.4617810000000  0.5226330000000 1.0
C      1  0.4762090000000  0.5055910000000  0.4124940000000 1.0
C      1  0.4675840000000  0.5694450000000  0.4363730000000 1.0
C      1  0.5183460000000  0.4811550000000  0.4821870000000 1.0
C      1  0.4444270000000  0.5292320000000  0.4469080000000 1.0
C      1  0.4497000000000  0.5974470000000  0.4995710000000 1.0
C      1  0.4651740000000  0.5950180000000  0.5225260000000 1.0
C      1  0.4726490000000  0.4454960000000  0.4812630000000 1.0
C      1  0.5878700000000  0.5631390000000  0.5010600000000 1.0
C      1  0.4270770000000  0.4985090000000  0.4172500000000 1.0
C      1  0.5258200000000  0.5511290000000  0.4635300000000 1.0
C      1  0.5543260000000  0.4510890000000  0.4271910000000 1.0
C      1  0.4569340000000  0.4588190000000  0.4215180000000 1.0
C      1  0.4515880000000  0.5650630000000  0.5540000000000 1.0
C      1  0.4921170000000  0.4683260000000  0.5984840000000 1.0
C      1  0.5498710000000  0.4569170000000  0.4680630000000 1.0
C      1  0.5777410000000  0.4976850000000  0.5692630000000 1.0
C      1  0.5922800000000  0.4798400000000  0.5477600000000 1.0
C      1  0.5198330000000  0.5084160000000  0.5150100000000 1.0
C      1  0.5718470000000  0.4627430000000  0.4495600000000 1.0
C      1  0.5482730000000  0.5858890000000  0.4615590000000 1.0
C      1  0.4390620000000  0.4234560000000  0.4478220000000 1.0
C      1  0.4554180000000  0.5315060000000  0.5847880000000 1.0
C      1  0.4963830000000  0.4191750000000  0.5367810000000 1.0
C      1  0.4887340000000  0.4396060000000  0.5897240000000 1.0
C      1  0.4925590000000  0.5967550000000  0.5139820000000 1.0
C      1  0.5153420000000  0.6071780000000  0.5292750000000 1.0
C      1  0.4641730000000  0.4846540000000  0.5191030000000 1.0
C      1  0.4488320000000  0.4466020000000  0.4656630000000 1.0
C      1  0.5661020000000  0.4216690000000  0.4809830000000 1.0
C      1  0.5879500000000  0.4550830000000  0.5356270000000 1.0
C      1  0.5688730000000  0.5200700000000  0.5536500000000 1.0
C      1  0.4709150000000  0.5401820000000  0.5260890000000 1.0
C      1  0.4918710000000  0.4655890000000  0.5547290000000 1.0
C      1  0.4783230000000  0.5136780000000  0.5365650000000 1.0
C      1  0.4197690000000  0.4720030000000  0.5464720000000 1.0
C      1  0.5458130000000  0.4764050000000  0.5318420000000 1.0
C      1  0.4973830000000  0.5090160000000  0.5999930000000 1.0
C      1  0.5887750000000  0.4934530000000  0.5223990000000 1.0
C      1  0.4582260000000  0.5153900000000  0.5607290000000 1.0
C      1  0.4303100000000  0.4706110000000  0.4261430000000 1.0
C      1  0.4312460000000  0.4575800000000  0.4848150000000 1.0
C      1  0.5152820000000  0.4690970000000  0.5788390000000 1.0
C      1  0.5807430000000  0.5561010000000  0.4727770000000 1.0
C      1  0.4068630000000  0.5116820000000  0.5465440000000 1.0
C      1  0.4668710000000  0.4752730000000  0.5663920000000 1.0
C      1  0.4898590000000  0.4273460000000  0.4693360000000 1.0
C      1  0.4312940000000  0.5099460000000  0.5604410000000 1.0
C      1  0.4809160000000  0.4766430000000  0.4207460000000 1.0
C      1  0.4404390000000  0.4614860000000  0.5637520000000 1.0
C      1  0.4666890000000  0.5571210000000  0.5775290000000 1.0
C      1  0.4365080000000  0.4395550000000  0.5094480000000 1.0
C      1  0.5806460000000  0.4361130000000  0.5168010000000 1.0
C      1  0.5515460000000  0.5865010000000  0.5322840000000 1.0
C      1  0.5108230000000  0.5255880000000  0.4051490000000 1.0
C      1  0.5065340000000  0.4610990000000  0.4157670000000 1.0
C      1  0.4501210000000  0.5155430000000  0.4196280000000 1.0
C      1  0.4960920000000  0.5714320000000  0.4994210000000 1.0
C      1  0.4172460000000  0.5208410000000  0.4595910000000 1.0
C      1  0.5567480000000  0.5350340000000  0.4187970000000 1.0
C      1  0.4099930000000  0.4752670000000  0.4481980000000 1.0
C      1  0.5483080000000  0.5178750000000  0.5068060000000 1.0
C      1  0.5319480000000  0.5956810000000  0.4833280000000 1.0
C      1  0.5434080000000  0.5460850000000  0.5129540000000 1.0
C      1  0.4421990000000  0.4105810000000  0.4994260000000 1.0
C      1  0.5095820000000  0.5331430000000  0.5928240000000 1.0
C      1  0.4521550000000  0.5025410000000  0.4987520000000 1.0
C      1  0.5079240000000  0.4335050000000  0.5157950000000 1.0
C      1  0.5518120000000  0.5600350000000  0.4757460000000 1.0
C      1  0.4660860000000  0.3998500000000  0.5100080000000 1.0
C      1  0.5341910000000  0.4924780000000  0.4340080000000 1.0
C      1  0.4755060000000  0.5671570000000  0.5373730000000 1.0
C      1  0.5075340000000  0.5178870000000  0.5378610000000 1.0
C      1  0.5624930000000  0.5029150000000  0.5297170000000 1.0
C      1  0.4926230000000  0.5250070000000  0.4252530000000 1.0
C      1  0.5649720000000  0.5632330000000  0.5204330000000 1.0
C      1  0.5126220000000  0.4208330000000  0.4867060000000 1.0
C      1  0.4873210000000  0.4236450000000  0.4404780000000 1.0
C      1  0.6043650000000  0.5164870000000  0.4873340000000 1.0
C      1  0.4696890000000  0.5114770000000  0.6008530000000 1.0
C      1  0.4742770000000  0.5583280000000  0.4872840000000 1.0
C      1  0.5063310000000  0.5659700000000  0.5531340000000 1.0
C      1  0.5482520000000  0.4569280000000  0.5526610000000 1.0
C      1  0.4701040000000  0.4873810000000  0.4559490000000 1.0
C      1  0.4955250000000  0.5560170000000  0.5787030000000 1.0
C      1  0.5455160000000  0.5349140000000  0.5601440000000 1.0
C      1  0.5872850000000  0.4902740000000  0.4934960000000 1.0
C      1  0.4784660000000  0.5132620000000  0.4841440000000 1.0
C      1  0.5265080000000  0.5878370000000  0.5485390000000 1.0
C      1  0.5342020000000  0.4699990000000  0.4157470000000 1.0
C      1  0.5407110000000  0.4257420000000  0.4672110000000 1.0
C      1  0.4303040000000  0.5579420000000  0.5045780000000 1.0
C      1  0.5876430000000  0.4390970000000  0.4871350000000 1.0
C      1  0.4633730000000  0.5842710000000  0.4781950000000 1.0
C      1  0.5044480000000  0.5200260000000  0.4935730000000 1.0
C      1  0.5686290000000  0.5120180000000  0.4594390000000 1.0
C      1  0.5136810000000  0.5740960000000  0.4787290000000 1.0
C      1  0.4481000000000  0.4856740000000  0.4754710000000 1.0
C      1  0.5917520000000  0.5297120000000  0.4645160000000 1.0
C      1  0.5321830000000  0.4322380000000  0.5605500000000 1.0
C      1  0.4053830000000  0.4872930000000  0.5277020000000 1.0
C      1  0.5532530000000  0.5127460000000  0.4362640000000 1.0
END
