TITL C-2441168-9922-531 0.0424555375961703 125000 -16595.1347914479 0 0 114 (C1) n - 1
REM
REM in /home/bkarasulu/work/CARBON/AIRSS/Generating-Clusters/ReaxFF-fromJPCA2015/Units_Real/with-SteepDescent/Higher-Symm
REM
REM
REM
REM
REM
REM ./C.cell (1df0a924f5614ab8850e4351716899ee)
REM
REM compiler GCC version 9.2.1 20190827 (Red Hat 9.2.1-1)
REM options -cpp -mtune=generic -march=x86-64 -g -O0 -fpre-include=/usr/include/finclude/math-vector-fortran.h
REM seed 251212032 -2042620534 -1317077454 659187213 -41873760 409905083 203147723 -1189485696 -1946996982 -1746164941 -1438122251 1244221530 1690880770 1262024527 -2027429515 -497975998 -1933374849 -558796417 -234558791 -1138115418 982284851 334851954 723507839 -1103267178 -349148587 635144710 -2115973838 920358555 788278297 -1485210692 1166741716 1217039739 -1660483372
REM
CELL 1.54180   50.00000   50.00000   50.00000   90.00000   90.00000   90.00000
LATT -1
SFAC C  
C      1  0.4224980000000  0.4768820000000  0.5387390000000 1.0
C      1  0.4216250000000  0.4776040000000  0.4633090000000 1.0
C      1  0.4797570000000  0.4773500000000  0.4117680000000 1.0
C      1  0.5537870000000  0.4784690000000  0.4319020000000 1.0
C      1  0.5920730000000  0.4763170000000  0.4990030000000 1.0
C      1  0.5543020000000  0.4786270000000  0.5666840000000 1.0
C      1  0.4807610000000  0.4781870000000  0.5862090000000 1.0
C      1  0.5803320000000  0.5009930000000  0.5365920000000 1.0
C      1  0.5199240000000  0.5036040000000  0.5832620000000 1.0
C      1  0.4476670000000  0.5043160000000  0.5684960000000 1.0
C      1  0.4127610000000  0.5024920000000  0.5010590000000 1.0
C      1  0.4412320000000  0.5019480000000  0.4285930000000 1.0
C      1  0.5180520000000  0.5041330000000  0.4156580000000 1.0
C      1  0.5843400000000  0.5022840000000  0.4580880000000 1.0
C      1  0.4786580000000  0.5284780000000  0.5911050000000 1.0
C      1  0.4163520000000  0.5278010000000  0.5407600000000 1.0
C      1  0.4177990000000  0.5281280000000  0.4612740000000 1.0
C      1  0.4776660000000  0.5286990000000  0.4115240000000 1.0
C      1  0.5562350000000  0.5297450000000  0.4300140000000 1.0
C      1  0.5936550000000  0.5275350000000  0.4983900000000 1.0
C      1  0.5582960000000  0.5302150000000  0.5679100000000 1.0
C      1  0.5695980000000  0.5483560000000  0.5322260000000 1.0
C      1  0.5009300000000  0.5412920000000  0.5583000000000 1.0
C      1  0.4519460000000  0.5561560000000  0.5526940000000 1.0
C      1  0.4314700000000  0.5490410000000  0.4992430000000 1.0
C      1  0.4573760000000  0.5464820000000  0.4426670000000 1.0
C      1  0.5119290000000  0.5495820000000  0.4412090000000 1.0
C      1  0.5686300000000  0.5486670000000  0.4741260000000 1.0
C      1  0.5847480000000  0.4777130000000  0.4722460000000 1.0
C      1  0.5605670000000  0.4806210000000  0.5393580000000 1.0
C      1  0.5058180000000  0.4811830000000  0.5719470000000 1.0
C      1  0.4488270000000  0.4805920000000  0.5492420000000 1.0
C      1  0.4279760000000  0.4803690000000  0.4903930000000 1.0
C      1  0.4556570000000  0.4778600000000  0.4251400000000 1.0
C      1  0.5260860000000  0.4804860000000  0.4298630000000 1.0
C      1  0.4105790000000  0.5009990000000  0.5289120000000 1.0
C      1  0.4210000000000  0.5019250000000  0.4481990000000 1.0
C      1  0.4914600000000  0.5033450000000  0.4069120000000 1.0
C      1  0.5684990000000  0.5026350000000  0.4352790000000 1.0
C      1  0.5947370000000  0.5019000000000  0.5122660000000 1.0
C      1  0.5469730000000  0.5045960000000  0.5775480000000 1.0
C      1  0.4664140000000  0.5026020000000  0.5880770000000 1.0
C      1  0.4370430000000  0.5299710000000  0.5610020000000 1.0
C      1  0.4135860000000  0.5281210000000  0.4885860000000 1.0
C      1  0.4522830000000  0.5266390000000  0.4225230000000 1.0
C      1  0.5278880000000  0.5308790000000  0.4233870000000 1.0
C      1  0.5894100000000  0.5273260000000  0.4713150000000 1.0
C      1  0.5785380000000  0.5257570000000  0.5484830000000 1.0
C      1  0.5069240000000  0.5277640000000  0.5844450000000 1.0
C      1  0.5076790000000  0.4764410000000  0.4652880000000 1.0
C      1  0.5227610000000  0.4675090000000  0.4914780000000 1.0
C      1  0.5277700000000  0.4792390000000  0.5182210000000 1.0
C      1  0.5004560000000  0.4843180000000  0.5365360000000 1.0
C      1  0.4738830000000  0.4789480000000  0.5269450000000 1.0
C      1  0.4648320000000  0.4800300000000  0.4982750000000 1.0
C      1  0.4833800000000  0.4657140000000  0.4782630000000 1.0
C      1  0.4267360000000  0.5500840000000  0.5267390000000 1.0
C      1  0.4373480000000  0.5479900000000  0.4621030000000 1.0
C      1  0.4848140000000  0.5494420000000  0.4306090000000 1.0
C      1  0.5518640000000  0.5474990000000  0.4515190000000 1.0
C      1  0.5759140000000  0.5485520000000  0.5038550000000 1.0
C      1  0.5496180000000  0.5541210000000  0.5527340000000 1.0
C      1  0.4746800000000  0.5490360000000  0.5699290000000 1.0
C      1  0.4674030000000  0.4253890000000  0.4894720000000 1.0
C      1  0.4877310000000  0.4242700000000  0.4667790000000 1.0
C      1  0.5180830000000  0.4250980000000  0.4698380000000 1.0
C      1  0.5348510000000  0.4258180000000  0.4953000000000 1.0
C      1  0.5251780000000  0.4268290000000  0.5235150000000 1.0
C      1  0.4973050000000  0.4273530000000  0.5339790000000 1.0
C      1  0.4717690000000  0.4264620000000  0.5191350000000 1.0
C      1  0.5169380000000  0.6008010000000  0.4781760000000 1.0
C      1  0.5306320000000  0.5874480000000  0.4997330000000 1.0
C      1  0.5202500000000  0.5890260000000  0.5278530000000 1.0
C      1  0.4930500000000  0.5939240000000  0.5264350000000 1.0
C      1  0.4692910000000  0.5895150000000  0.5127500000000 1.0
C      1  0.4741350000000  0.5857910000000  0.4823220000000 1.0
C      1  0.4955550000000  0.6009560000000  0.4700150000000 1.0
C      1  0.5424590000000  0.4522510000000  0.5669250000000 1.0
C      1  0.4741260000000  0.4514360000000  0.5759000000000 1.0
C      1  0.4252570000000  0.4507580000000  0.5270430000000 1.0
C      1  0.4330920000000  0.4516590000000  0.4585610000000 1.0
C      1  0.4905980000000  0.4513590000000  0.4205890000000 1.0
C      1  0.5556940000000  0.4524270000000  0.4443950000000 1.0
C      1  0.5796340000000  0.4514790000000  0.5082640000000 1.0
C      1  0.4405660000000  0.4356200000000  0.4819420000000 1.0
C      1  0.4771160000000  0.4359760000000  0.4414370000000 1.0
C      1  0.5315370000000  0.4362560000000  0.4454560000000 1.0
C      1  0.5621760000000  0.4367420000000  0.4903970000000 1.0
C      1  0.5457630000000  0.4365240000000  0.5423090000000 1.0
C      1  0.4954260000000  0.4363030000000  0.5621560000000 1.0
C      1  0.4490260000000  0.4355110000000  0.5356010000000 1.0
C      1  0.5180760000000  0.4532480000000  0.4263480000000 1.0
C      1  0.5704670000000  0.4530770000000  0.4678690000000 1.0
C      1  0.5671070000000  0.4537670000000  0.5330620000000 1.0
C      1  0.5154270000000  0.4530360000000  0.5744260000000 1.0
C      1  0.4513630000000  0.4523090000000  0.5589170000000 1.0
C      1  0.4243400000000  0.4526540000000  0.4986490000000 1.0
C      1  0.4534950000000  0.4524860000000  0.4386750000000 1.0
C      1  0.4648350000000  0.5466030000000  0.5045760000000 1.0
C      1  0.4805790000000  0.5581910000000  0.4797790000000 1.0
C      1  0.5076110000000  0.5524910000000  0.4706000000000 1.0
C      1  0.5270080000000  0.5595260000000  0.4922630000000 1.0
C      1  0.5247590000000  0.5480160000000  0.5184300000000 1.0
C      1  0.5238120000000  0.5623410000000  0.5437090000000 1.0
C      1  0.4661350000000  0.5644050000000  0.5272630000000 1.0
C      1  0.5371120000000  0.5039560000000  0.5067750000000 1.0
C      1  0.5223870000000  0.5209940000000  0.5241660000000 1.0
C      1  0.4951480000000  0.5164130000000  0.5349820000000 1.0
C      1  0.4739230000000  0.5212070000000  0.5150910000000 1.0
C      1  0.4750340000000  0.5072390000000  0.4911750000000 1.0
C      1  0.5069890000000  0.5033840000000  0.4636400000000 1.0
C      1  0.5289010000000  0.5118500000000  0.4795940000000 1.0
C      1  0.5006330000000  0.5158280000000  0.4845020000000 1.0
C      1  0.5004200000000  0.4496940000000  0.4953400000000 1.0
END
