TITL C-2441157-2117-1243 0.095470533829803 125000 -23719.3717279882 0 0 176 (C1) n - 1
REM
REM in /home/bkarasulu/work/CARBON/AIRSS/Generating-Clusters/ReaxFF-fromJPCA2015/Units_Real/with-SteepDescent/Higher-Symm
REM
REM
REM
REM
REM
REM ./C.cell (1df0a924f5614ab8850e4351716899ee)
REM
REM compiler GCC version 9.2.1 20190827 (Red Hat 9.2.1-1)
REM options -cpp -mtune=generic -march=x86-64 -g -O0 -fpre-include=/usr/include/finclude/math-vector-fortran.h
REM seed -75288876 -1947239338 1232872566 431179882 1994890070 -646381432 396413311 -1204143105 -2126691022 -1881480487 -1581452019 -915877122 -1653888083 -1510574393 -232270009 1817881002 -461797099 -1271872128 -2032025359 -1934755531 1550419146 -348606474 -259764187 639011053 992075748 904285228 890973194 389159658 511386578 -744560679 -1364385135 1083626247 276814289
REM
CELL 1.54180   50.00000   50.00000   50.00000   90.00000   90.00000   90.00000
LATT -1
SFAC C  
C      1  0.4746880000000  0.4849830000000  0.4075550000000 1.0
C      1  0.4954810000000  0.4697740000000  0.5959980000000 1.0
C      1  0.5226210000000  0.4742230000000  0.4066550000000 1.0
C      1  0.5261660000000  0.5021120000000  0.5859580000000 1.0
C      1  0.5349380000000  0.5197170000000  0.4028830000000 1.0
C      1  0.5065900000000  0.5237000000000  0.5817630000000 1.0
C      1  0.4849900000000  0.5226120000000  0.4144350000000 1.0
C      1  0.4700550000000  0.5039130000000  0.5821130000000 1.0
C      1  0.5352680000000  0.4545370000000  0.5879340000000 1.0
C      1  0.5677660000000  0.4817310000000  0.4179060000000 1.0
C      1  0.5535770000000  0.5333610000000  0.5888490000000 1.0
C      1  0.5107440000000  0.5594850000000  0.4123240000000 1.0
C      1  0.4669230000000  0.5483090000000  0.5857930000000 1.0
C      1  0.4392270000000  0.5143940000000  0.4119900000000 1.0
C      1  0.4497010000000  0.4681490000000  0.5863510000000 1.0
C      1  0.4885520000000  0.4432670000000  0.4134190000000 1.0
C      1  0.4207880000000  0.5841110000000  0.5132310000000 1.0
C      1  0.3860970000000  0.5021330000000  0.4903560000000 1.0
C      1  0.4158660000000  0.4259340000000  0.5127690000000 1.0
C      1  0.4960160000000  0.3851910000000  0.4865030000000 1.0
C      1  0.5788810000000  0.4194670000000  0.5156490000000 1.0
C      1  0.6094080000000  0.4936980000000  0.4828090000000 1.0
C      1  0.5791000000000  0.5813150000000  0.5122030000000 1.0
C      1  0.5073220000000  0.6117250000000  0.4887680000000 1.0
C      1  0.5393740000000  0.5132460000000  0.6025810000000 1.0
C      1  0.5081100000000  0.5330530000000  0.4016330000000 1.0
C      1  0.4811230000000  0.5234800000000  0.5952540000000 1.0
C      1  0.4653790000000  0.5096200000000  0.4002250000000 1.0
C      1  0.4723270000000  0.4843720000000  0.5994890000000 1.0
C      1  0.4956420000000  0.4687440000000  0.4010020000000 1.0
C      1  0.5208260000000  0.4775210000000  0.6004810000000 1.0
C      1  0.5439870000000  0.4915200000000  0.4035870000000 1.0
C      1  0.4095520000000  0.4562490000000  0.4741400000000 1.0
C      1  0.4608130000000  0.4030120000000  0.5229100000000 1.0
C      1  0.5433200000000  0.4044380000000  0.4795390000000 1.0
C      1  0.5866540000000  0.4677240000000  0.5174470000000 1.0
C      1  0.5931820000000  0.5428970000000  0.4778840000000 1.0
C      1  0.5271460000000  0.5794010000000  0.5203960000000 1.0
C      1  0.4585390000000  0.5948820000000  0.4774970000000 1.0
C      1  0.4160360000000  0.5353050000000  0.5202370000000 1.0
C      1  0.5944900000000  0.4863290000000  0.4581740000000 1.0
C      1  0.5824390000000  0.5685610000000  0.5387730000000 1.0
C      1  0.5125690000000  0.6075400000000  0.4612800000000 1.0
C      1  0.4306250000000  0.5860080000000  0.5411610000000 1.0
C      1  0.3928120000000  0.5112100000000  0.4628410000000 1.0
C      1  0.4120910000000  0.4304960000000  0.5400120000000 1.0
C      1  0.4870770000000  0.3909100000000  0.4586120000000 1.0
C      1  0.5682960000000  0.4165740000000  0.5423150000000 1.0
C      1  0.4096290000000  0.5247330000000  0.5477350000000 1.0
C      1  0.4209350000000  0.4530350000000  0.4502490000000 1.0
C      1  0.4772040000000  0.4113900000000  0.5478410000000 1.0
C      1  0.5473190000000  0.4160880000000  0.4522240000000 1.0
C      1  0.5903180000000  0.4765560000000  0.5443720000000 1.0
C      1  0.5788310000000  0.5473470000000  0.4521100000000 1.0
C      1  0.5212090000000  0.5874950000000  0.5479710000000 1.0
C      1  0.4514540000000  0.5817520000000  0.4507600000000 1.0
C      1  0.5041010000000  0.5494660000000  0.5324950000000 1.0
C      1  0.4745900000000  0.5432920000000  0.4675860000000 1.0
C      1  0.4560440000000  0.4991130000000  0.5335690000000 1.0
C      1  0.4699150000000  0.4770310000000  0.4521050000000 1.0
C      1  0.4933960000000  0.4430600000000  0.5100790000000 1.0
C      1  0.5309480000000  0.4537150000000  0.4860540000000 1.0
C      1  0.5466270000000  0.4942650000000  0.5369090000000 1.0
C      1  0.5392040000000  0.5342300000000  0.4731170000000 1.0
C      1  0.4530690000000  0.5370260000000  0.4863750000000 1.0
C      1  0.4377020000000  0.4856690000000  0.5116190000000 1.0
C      1  0.4804810000000  0.4351120000000  0.4865570000000 1.0
C      1  0.5223730000000  0.4423730000000  0.5119490000000 1.0
C      1  0.5578630000000  0.4663500000000  0.4888620000000 1.0
C      1  0.5588940000000  0.5154840000000  0.5184130000000 1.0
C      1  0.5300740000000  0.5567250000000  0.4888410000000 1.0
C      1  0.4849110000000  0.5651090000000  0.5141830000000 1.0
C      1  0.5371350000000  0.4594350000000  0.5365260000000 1.0
C      1  0.5559900000000  0.5120160000000  0.4608510000000 1.0
C      1  0.5417670000000  0.5372670000000  0.5293660000000 1.0
C      1  0.4997090000000  0.5589630000000  0.4713650000000 1.0
C      1  0.4607430000000  0.5503300000000  0.5239470000000 1.0
C      1  0.4391080000000  0.5078630000000  0.4817940000000 1.0
C      1  0.4443160000000  0.4597220000000  0.5261640000000 1.0
C      1  0.4997180000000  0.4381800000000  0.4654260000000 1.0
C      1  0.6019150000000  0.5190480000000  0.4949370000000 1.0
C      1  0.5569430000000  0.5950280000000  0.4956950000000 1.0
C      1  0.4813730000000  0.6044920000000  0.4975060000000 1.0
C      1  0.4130810000000  0.5580660000000  0.5003940000000 1.0
C      1  0.3907790000000  0.4756720000000  0.5045530000000 1.0
C      1  0.4408770000000  0.4165490000000  0.5033940000000 1.0
C      1  0.5204990000000  0.3975060000000  0.4988640000000 1.0
C      1  0.5945380000000  0.4451910000000  0.5000040000000 1.0
C      1  0.4414120000000  0.5908760000000  0.4963500000000 1.0
C      1  0.3955980000000  0.5212940000000  0.5083550000000 1.0
C      1  0.4027650000000  0.4486340000000  0.4972810000000 1.0
C      1  0.4766210000000  0.3935310000000  0.5041740000000 1.0
C      1  0.5612940000000  0.4120260000000  0.4977820000000 1.0
C      1  0.6084470000000  0.4720250000000  0.5019560000000 1.0
C      1  0.5889990000000  0.5593270000000  0.4992560000000 1.0
C      1  0.5308070000000  0.6040520000000  0.5058290000000 1.0
C      1  0.4625630000000  0.4373970000000  0.4273770000000 1.0
C      1  0.5201750000000  0.4313710000000  0.5742890000000 1.0
C      1  0.5603620000000  0.4563010000000  0.4295530000000 1.0
C      1  0.5733240000000  0.5200220000000  0.5687860000000 1.0
C      1  0.5375740000000  0.5625210000000  0.4270790000000 1.0
C      1  0.4842350000000  0.5675870000000  0.5713200000000 1.0
C      1  0.4413780000000  0.5383710000000  0.4284130000000 1.0
C      1  0.4289180000000  0.4838510000000  0.5722880000000 1.0
C      1  0.5652960000000  0.5457930000000  0.5480110000000 1.0
C      1  0.5074740000000  0.5822740000000  0.4545660000000 1.0
C      1  0.4517380000000  0.5675270000000  0.5469640000000 1.0
C      1  0.4204180000000  0.5103470000000  0.4597700000000 1.0
C      1  0.4275150000000  0.4519290000000  0.5488400000000 1.0
C      1  0.4854110000000  0.4182230000000  0.4482170000000 1.0
C      1  0.5463520000000  0.4335190000000  0.5530000000000 1.0
C      1  0.5691320000000  0.4884990000000  0.4724360000000 1.0
C      1  0.5050430000000  0.5143760000000  0.4784820000000 1.0
C      1  0.4791500000000  0.5120700000000  0.5184540000000 1.0
C      1  0.4815920000000  0.5069650000000  0.4890850000000 1.0
C      1  0.4861320000000  0.4671310000000  0.5184720000000 1.0
C      1  0.5118110000000  0.4738310000000  0.4807800000000 1.0
C      1  0.5064630000000  0.4812540000000  0.5267710000000 1.0
C      1  0.5235640000000  0.4963580000000  0.4790200000000 1.0
C      1  0.5046980000000  0.5054390000000  0.5254460000000 1.0
C      1  0.5624940000000  0.5337310000000  0.4125640000000 1.0
C      1  0.5356980000000  0.5554600000000  0.5809710000000 1.0
C      1  0.4834870000000  0.5639580000000  0.4203550000000 1.0
C      1  0.4429670000000  0.5341880000000  0.5779210000000 1.0
C      1  0.4336270000000  0.4858450000000  0.4179730000000 1.0
C      1  0.4653110000000  0.4454940000000  0.5782560000000 1.0
C      1  0.5152090000000  0.4354150000000  0.4218980000000 1.0
C      1  0.5587340000000  0.4689750000000  0.5792020000000 1.0
C      1  0.5725730000000  0.4329820000000  0.5630000000000 1.0
C      1  0.5873840000000  0.4975910000000  0.4323340000000 1.0
C      1  0.5671550000000  0.5715520000000  0.5612450000000 1.0
C      1  0.4959780000000  0.6024920000000  0.4388190000000 1.0
C      1  0.4281300000000  0.5696040000000  0.5621320000000 1.0
C      1  0.4023420000000  0.4986520000000  0.4401500000000 1.0
C      1  0.4287540000000  0.4251250000000  0.5613360000000 1.0
C      1  0.5017300000000  0.3988560000000  0.4372770000000 1.0
C      1  0.4104420000000  0.4844040000000  0.5241820000000 1.0
C      1  0.4529500000000  0.4282810000000  0.4790050000000 1.0
C      1  0.5192570000000  0.4131860000000  0.5234000000000 1.0
C      1  0.5756350000000  0.4472260000000  0.4765520000000 1.0
C      1  0.5879850000000  0.5175680000000  0.5213040000000 1.0
C      1  0.5478220000000  0.5759780000000  0.4753190000000 1.0
C      1  0.4808570000000  0.5921680000000  0.5242880000000 1.0
C      1  0.4287400000000  0.5503450000000  0.4765340000000 1.0
C      1  0.4715850000000  0.5878320000000  0.4306990000000 1.0
C      1  0.4182090000000  0.5441010000000  0.5682570000000 1.0
C      1  0.4128710000000  0.4748380000000  0.4318660000000 1.0
C      1  0.4570320000000  0.4205310000000  0.5671540000000 1.0
C      1  0.5262670000000  0.4114140000000  0.4326840000000 1.0
C      1  0.5819080000000  0.4585490000000  0.5658500000000 1.0
C      1  0.5806980000000  0.5257780000000  0.4328000000000 1.0
C      1  0.5418470000000  0.5801950000000  0.5682130000000 1.0
C      1  0.5055610000000  0.4156690000000  0.5491390000000 1.0
C      1  0.5676330000000  0.4368680000000  0.4505200000000 1.0
C      1  0.5897160000000  0.5051210000000  0.5478780000000 1.0
C      1  0.5575080000000  0.5662530000000  0.4490340000000 1.0
C      1  0.4918820000000  0.5888140000000  0.5519030000000 1.0
C      1  0.4333470000000  0.5587780000000  0.4481670000000 1.0
C      1  0.4108570000000  0.4955560000000  0.5514590000000 1.0
C      1  0.4454920000000  0.4353170000000  0.4511700000000 1.0
C      1  0.4485790000000  0.5073130000000  0.5660300000000 1.0
C      1  0.4581210000000  0.4715700000000  0.4260850000000 1.0
C      1  0.4954250000000  0.4521680000000  0.5750830000000 1.0
C      1  0.5310470000000  0.4585080000000  0.4281270000000 1.0
C      1  0.5527030000000  0.4959930000000  0.5670200000000 1.0
C      1  0.5397270000000  0.5352290000000  0.4282670000000 1.0
C      1  0.5089560000000  0.5491520000000  0.5672110000000 1.0
C      1  0.4711820000000  0.5396350000000  0.4341860000000 1.0
C      1  0.5249510000000  0.5155250000000  0.5396230000000 1.0
C      1  0.5139750000000  0.5342980000000  0.4575650000000 1.0
C      1  0.4802970000000  0.5330570000000  0.5379970000000 1.0
C      1  0.4635190000000  0.4981330000000  0.4694590000000 1.0
C      1  0.4667060000000  0.4724860000000  0.5365810000000 1.0
C      1  0.4945340000000  0.4657150000000  0.4595350000000 1.0
C      1  0.5135950000000  0.4670470000000  0.5510940000000 1.0
C      1  0.5339950000000  0.4920810000000  0.4504810000000 1.0
END
