TITL C-2441161-5029-484 0.138788629940292 125000 -25909.4612806851 0 0 196 (C1) n - 1
REM
REM in /home/bkarasulu/work/CARBON/AIRSS/Generating-Clusters/ReaxFF-fromJPCA2015/Units_Real/with-SteepDescent/Higher-Symm
REM
REM
REM
REM
REM
REM ./C.cell (1df0a924f5614ab8850e4351716899ee)
REM
REM compiler GCC version 9.2.1 20190827 (Red Hat 9.2.1-1)
REM options -cpp -mtune=generic -march=x86-64 -g -O0 -fpre-include=/usr/include/finclude/math-vector-fortran.h
REM seed 1280460147 -890134782 110429148 1547114996 -1331221873 1572574488 1326061390 -267507969 482112544 1006438656 1302447702 -150941527 949736529 495457 -1812761583 -2067451826 -1770569442 -363430192 -140197734 -1047026683 996913589 -81116606 1761151784 -401248355 -1322732489 -7328520 -179966812 1695438395 -1603483386 -1323911645 1903120955 -1385887017 -440711398
REM
CELL 1.54180   50.00000   50.00000   50.00000   90.00000   90.00000   90.00000
LATT -1
SFAC C  
C      1  0.5536460000000  0.4205400000000  0.5579090000000 1.0
C      1  0.5397640000000  0.5719370000000  0.4218640000000 1.0
C      1  0.4251810000000  0.5526860000000  0.5520240000000 1.0
C      1  0.4401530000000  0.5779650000000  0.5594350000000 1.0
C      1  0.4369720000000  0.4248380000000  0.4526830000000 1.0
C      1  0.5612410000000  0.5698490000000  0.4389870000000 1.0
C      1  0.4384620000000  0.4410490000000  0.4286830000000 1.0
C      1  0.4520000000000  0.5641080000000  0.5806030000000 1.0
C      1  0.5602330000000  0.4411400000000  0.5761310000000 1.0
C      1  0.5792560000000  0.4620110000000  0.5696380000000 1.0
C      1  0.5772240000000  0.5453890000000  0.4344780000000 1.0
C      1  0.4207630000000  0.4629620000000  0.4283330000000 1.0
C      1  0.5566520000000  0.4741870000000  0.5104710000000 1.0
C      1  0.5056640000000  0.5606230000000  0.4747630000000 1.0
C      1  0.4818450000000  0.5093630000000  0.5629010000000 1.0
C      1  0.4404320000000  0.5205470000000  0.5087010000000 1.0
C      1  0.4403710000000  0.4810090000000  0.4966750000000 1.0
C      1  0.5566670000000  0.5228560000000  0.4944230000000 1.0
C      1  0.4854120000000  0.4448890000000  0.4786980000000 1.0
C      1  0.4831070000000  0.5615560000000  0.5176020000000 1.0
C      1  0.5096410000000  0.4400350000000  0.5207130000000 1.0
C      1  0.5186410000000  0.4903470000000  0.5631870000000 1.0
C      1  0.5241390000000  0.5079370000000  0.4379120000000 1.0
C      1  0.4830810000000  0.4883940000000  0.4373470000000 1.0
C      1  0.4952400000000  0.4121100000000  0.4351290000000 1.0
C      1  0.4313120000000  0.4872370000000  0.4137470000000 1.0
C      1  0.4203140000000  0.4346630000000  0.4811540000000 1.0
C      1  0.5135420000000  0.5867210000000  0.4314030000000 1.0
C      1  0.5060990000000  0.4132650000000  0.5653480000000 1.0
C      1  0.4923860000000  0.5856040000000  0.5665670000000 1.0
C      1  0.5687430000000  0.5189360000000  0.4163580000000 1.0
C      1  0.5693140000000  0.4860300000000  0.5853800000000 1.0
C      1  0.4349510000000  0.5060420000000  0.5842750000000 1.0
C      1  0.5848210000000  0.5623020000000  0.4877360000000 1.0
C      1  0.5845980000000  0.4332470000000  0.5054470000000 1.0
C      1  0.4108410000000  0.5668580000000  0.5029730000000 1.0
C      1  0.4289870000000  0.5612320000000  0.4657630000000 1.0
C      1  0.4669050000000  0.4306650000000  0.5629950000000 1.0
C      1  0.5636310000000  0.4698160000000  0.4257600000000 1.0
C      1  0.5631920000000  0.4406130000000  0.4677920000000 1.0
C      1  0.5707220000000  0.5710960000000  0.5358530000000 1.0
C      1  0.4352660000000  0.4396610000000  0.5306380000000 1.0
C      1  0.5310930000000  0.5700450000000  0.5601450000000 1.0
C      1  0.5414840000000  0.4313160000000  0.4260850000000 1.0
C      1  0.4674570000000  0.5732970000000  0.4393370000000 1.0
C      1  0.4395150000000  0.5325950000000  0.4272660000000 1.0
C      1  0.4360290000000  0.4607340000000  0.5806940000000 1.0
C      1  0.5711740000000  0.5371090000000  0.5707510000000 1.0
C      1  0.4411090000000  0.4550660000000  0.4837860000000 1.0
C      1  0.4720860000000  0.4502180000000  0.4557340000000 1.0
C      1  0.4603140000000  0.4759660000000  0.4493190000000 1.0
C      1  0.5598760000000  0.5476730000000  0.4824090000000 1.0
C      1  0.5531400000000  0.4516830000000  0.5279180000000 1.0
C      1  0.4377890000000  0.5423430000000  0.5269290000000 1.0
C      1  0.5236670000000  0.5513380000000  0.4554080000000 1.0
C      1  0.5281130000000  0.4506620000000  0.5413310000000 1.0
C      1  0.4746950000000  0.5480070000000  0.5416910000000 1.0
C      1  0.5428770000000  0.5277220000000  0.4474700000000 1.0
C      1  0.5416280000000  0.4773080000000  0.5553700000000 1.0
C      1  0.4622510000000  0.5256060000000  0.5526820000000 1.0
C      1  0.5621610000000  0.4938200000000  0.5444790000000 1.0
C      1  0.5423780000000  0.5617830000000  0.4981970000000 1.0
C      1  0.4889970000000  0.5569000000000  0.5629940000000 1.0
C      1  0.4384290000000  0.5097460000000  0.5523480000000 1.0
C      1  0.4400070000000  0.4951570000000  0.4578660000000 1.0
C      1  0.5619240000000  0.5080680000000  0.4571710000000 1.0
C      1  0.4637330000000  0.4381040000000  0.4950050000000 1.0
C      1  0.4369570000000  0.5648590000000  0.5127380000000 1.0
C      1  0.5582550000000  0.4318980000000  0.5150310000000 1.0
C      1  0.5156100000000  0.4395560000000  0.5644740000000 1.0
C      1  0.5043580000000  0.5439970000000  0.4363890000000 1.0
C      1  0.4865270000000  0.4390040000000  0.4366980000000 1.0
C      1  0.5088500000000  0.4645300000000  0.5064840000000 1.0
C      1  0.5123500000000  0.5120490000000  0.4714960000000 1.0
C      1  0.4699010000000  0.5121220000000  0.5113420000000 1.0
C      1  0.4822760000000  0.5368970000000  0.4993480000000 1.0
C      1  0.4891930000000  0.4722410000000  0.4880790000000 1.0
C      1  0.5076930000000  0.5360920000000  0.4906340000000 1.0
C      1  0.4998990000000  0.4864780000000  0.4636220000000 1.0
C      1  0.4863030000000  0.5005540000000  0.5336480000000 1.0
C      1  0.5136510000000  0.5006290000000  0.5328210000000 1.0
C      1  0.5276130000000  0.4858420000000  0.5108980000000 1.0
C      1  0.5354430000000  0.5042380000000  0.4883530000000 1.0
C      1  0.4673840000000  0.4891890000000  0.4955830000000 1.0
C      1  0.5533030000000  0.5997650000000  0.5117900000000 1.0
C      1  0.5148510000000  0.5521770000000  0.5991840000000 1.0
C      1  0.6018880000000  0.5158610000000  0.5530990000000 1.0
C      1  0.4452360000000  0.3993570000000  0.5129360000000 1.0
C      1  0.4471780000000  0.5989410000000  0.4889570000000 1.0
C      1  0.5503580000000  0.4021810000000  0.4878460000000 1.0
C      1  0.4852510000000  0.4467550000000  0.5975630000000 1.0
C      1  0.4864900000000  0.5546410000000  0.3993130000000 1.0
C      1  0.5107600000000  0.4473990000000  0.4017430000000 1.0
C      1  0.3985770000000  0.4881020000000  0.5541090000000 1.0
C      1  0.3986870000000  0.5150810000000  0.4448320000000 1.0
C      1  0.5994950000000  0.4858330000000  0.4468840000000 1.0
C      1  0.4721870000000  0.6021320000000  0.4750230000000 1.0
C      1  0.4638190000000  0.4668040000000  0.5922730000000 1.0
C      1  0.5979170000000  0.4722100000000  0.4736420000000 1.0
C      1  0.5247080000000  0.4010870000000  0.4729910000000 1.0
C      1  0.5270440000000  0.5978330000000  0.5248860000000 1.0
C      1  0.4721050000000  0.3999560000000  0.5273060000000 1.0
C      1  0.5293600000000  0.5255210000000  0.5981490000000 1.0
C      1  0.5240690000000  0.4728880000000  0.3996710000000 1.0
C      1  0.4742110000000  0.5277170000000  0.3992310000000 1.0
C      1  0.3979080000000  0.5264560000000  0.4719340000000 1.0
C      1  0.3967330000000  0.4740710000000  0.5283150000000 1.0
C      1  0.5993060000000  0.5282990000000  0.5255270000000 1.0
C      1  0.4665380000000  0.5177900000000  0.4268580000000 1.0
C      1  0.4269290000000  0.4694770000000  0.5242220000000 1.0
C      1  0.5136210000000  0.4287310000000  0.4745290000000 1.0
C      1  0.5340110000000  0.4809120000000  0.4284560000000 1.0
C      1  0.5250230000000  0.5178320000000  0.5704540000000 1.0
C      1  0.4765000000000  0.4810280000000  0.5699930000000 1.0
C      1  0.5701990000000  0.5282170000000  0.5182580000000 1.0
C      1  0.5685350000000  0.4681630000000  0.4826820000000 1.0
C      1  0.4267180000000  0.5341740000000  0.4829920000000 1.0
C      1  0.4806120000000  0.5748860000000  0.4658290000000 1.0
C      1  0.4818070000000  0.4283740000000  0.5339400000000 1.0
C      1  0.5157070000000  0.5716150000000  0.5337880000000 1.0
C      1  0.5541280000000  0.5189350000000  0.5382600000000 1.0
C      1  0.5247070000000  0.5486670000000  0.5171030000000 1.0
C      1  0.5275880000000  0.5251620000000  0.5390930000000 1.0
C      1  0.4453800000000  0.4839050000000  0.5407840000000 1.0
C      1  0.4460710000000  0.5199030000000  0.4682370000000 1.0
C      1  0.5496960000000  0.4862090000000  0.4689860000000 1.0
C      1  0.4638650000000  0.4453700000000  0.5227470000000 1.0
C      1  0.4701470000000  0.5332710000000  0.4715930000000 1.0
C      1  0.5336510000000  0.4459140000000  0.4701010000000 1.0
C      1  0.4719720000000  0.4741920000000  0.5394710000000 1.0
C      1  0.4810970000000  0.5333900000000  0.4465780000000 1.0
C      1  0.5254950000000  0.4710700000000  0.4585660000000 1.0
C      1  0.4588650000000  0.4561490000000  0.4086060000000 1.0
C      1  0.4018800000000  0.4650610000000  0.4518670000000 1.0
C      1  0.4551710000000  0.4038370000000  0.4605800000000 1.0
C      1  0.5390350000000  0.5471560000000  0.4036000000000 1.0
C      1  0.5396100000000  0.4578080000000  0.5943550000000 1.0
C      1  0.4631560000000  0.5440000000000  0.5969750000000 1.0
C      1  0.5976720000000  0.5391430000000  0.4549260000000 1.0
C      1  0.5967410000000  0.4622200000000  0.5443990000000 1.0
C      1  0.4005370000000  0.5407940000000  0.5405560000000 1.0
C      1  0.5450130000000  0.5911320000000  0.4590330000000 1.0
C      1  0.5410750000000  0.4035430000000  0.5387490000000 1.0
C      1  0.4570220000000  0.5948410000000  0.5405120000000 1.0
C      1  0.4579840000000  0.4834380000000  0.4017000000000 1.0
C      1  0.4005410000000  0.4597200000000  0.4805380000000 1.0
C      1  0.4853310000000  0.3976280000000  0.4588950000000 1.0
C      1  0.5428850000000  0.5179750000000  0.4032470000000 1.0
C      1  0.5432810000000  0.4854600000000  0.5989780000000 1.0
C      1  0.4578990000000  0.5144630000000  0.6001280000000 1.0
C      1  0.6030190000000  0.5396340000000  0.4850380000000 1.0
C      1  0.5982800000000  0.4588440000000  0.5146180000000 1.0
C      1  0.3971990000000  0.5407540000000  0.5112160000000 1.0
C      1  0.5176340000000  0.5989410000000  0.4575250000000 1.0
C      1  0.5120650000000  0.3976540000000  0.5402490000000 1.0
C      1  0.4847060000000  0.5997580000000  0.5411330000000 1.0
C      1  0.5895730000000  0.5109030000000  0.4584760000000 1.0
C      1  0.4589070000000  0.5828430000000  0.5121160000000 1.0
C      1  0.5106950000000  0.4581810000000  0.5864380000000 1.0
C      1  0.4119000000000  0.4919590000000  0.4566270000000 1.0
C      1  0.4071180000000  0.5126250000000  0.5419530000000 1.0
C      1  0.5915550000000  0.4904400000000  0.5433180000000 1.0
C      1  0.5370750000000  0.4154310000000  0.5109420000000 1.0
C      1  0.5415490000000  0.5878320000000  0.4881390000000 1.0
C      1  0.4587380000000  0.4085260000000  0.4890300000000 1.0
C      1  0.4912730000000  0.5404030000000  0.5864220000000 1.0
C      1  0.4877150000000  0.4605350000000  0.4171590000000 1.0
C      1  0.5108230000000  0.5432880000000  0.4094690000000 1.0
C      1  0.4878600000000  0.5765240000000  0.4193070000000 1.0
C      1  0.4180240000000  0.4836720000000  0.5773900000000 1.0
C      1  0.5744870000000  0.4174640000000  0.4830440000000 1.0
C      1  0.5176250000000  0.4222280000000  0.4161340000000 1.0
C      1  0.5163710000000  0.5770080000000  0.5836920000000 1.0
C      1  0.4840040000000  0.4208060000000  0.5839690000000 1.0
C      1  0.5827720000000  0.5135110000000  0.5762600000000 1.0
C      1  0.5816250000000  0.4918090000000  0.4234390000000 1.0
C      1  0.4189990000000  0.5135240000000  0.4232610000000 1.0
C      1  0.4229030000000  0.5846530000000  0.4813520000000 1.0
C      1  0.4255230000000  0.4202570000000  0.5095140000000 1.0
C      1  0.5769830000000  0.5810910000000  0.5115910000000 1.0
C      1  0.3934280000000  0.5129360000000  0.4966400000000 1.0
C      1  0.4964710000000  0.3921650000000  0.5149750000000 1.0
C      1  0.5142650000000  0.4991460000000  0.3953070000000 1.0
C      1  0.6055050000000  0.4836960000000  0.4988160000000 1.0
C      1  0.6072150000000  0.5145480000000  0.5015280000000 1.0
C      1  0.3942820000000  0.4824880000000  0.5003820000000 1.0
C      1  0.5017440000000  0.6057800000000  0.5140640000000 1.0
C      1  0.5000640000000  0.3900140000000  0.4839820000000 1.0
C      1  0.4992190000000  0.6068340000000  0.4846760000000 1.0
C      1  0.4853090000000  0.5017950000000  0.3941220000000 1.0
C      1  0.4844130000000  0.5001170000000  0.6063300000000 1.0
C      1  0.5140640000000  0.5018090000000  0.6075800000000 1.0
C      1  0.5645420000000  0.4423020000000  0.4360250000000 1.0
C      1  0.4409160000000  0.5593030000000  0.4394920000000 1.0
C      1  0.4396210000000  0.4389810000000  0.5620350000000 1.0
C      1  0.5610240000000  0.5622000000000  0.5607610000000 1.0
END
