TITL C-2441167-4473-1023 0.113757401651579 125000 -12766.5173486802 0 0 111 (C1) n - 1
REM
REM in /home/bkarasulu/work/CARBON/AIRSS/Generating-Clusters/ReaxFF-fromJPCA2015/Units_Real/with-SteepDescent/Higher-Symm
REM
REM
REM
REM
REM
REM ./C.cell (1df0a924f5614ab8850e4351716899ee)
REM
REM compiler GCC version 9.2.1 20190827 (Red Hat 9.2.1-1)
REM options -cpp -mtune=generic -march=x86-64 -g -O0 -fpre-include=/usr/include/finclude/math-vector-fortran.h
REM seed 1362082601 1762093644 -966430917 2018409523 -1917860434 1290554297 387426236 1540021638 -62569220 -316749601 1563475012 -1794004379 -108712935 1273544219 -1755090372 950312380 -233117900 -185965518 535233329 350141469 2054043107 1151922954 -688347329 -1003946767 -890213384 1722790777 -1558754839 -146057491 1974105196 -1153392683 1677840387 -406450414 -1479589482
REM
CELL 1.54180   50.00000   50.00000   50.00000   90.00000   90.00000   90.00000
LATT -1
SFAC C  
C      1  0.4298140000000  0.4894870000000  0.4535460000000 1.0
C      1  0.4268950000000  0.5431860000000  0.5229310000000 1.0
C      1  0.4293590000000  0.4624270000000  0.5305570000000 1.0
C      1  0.5200620000000  0.4834180000000  0.4216710000000 1.0
C      1  0.5185890000000  0.5743220000000  0.5093990000000 1.0
C      1  0.5198410000000  0.4455610000000  0.5583220000000 1.0
C      1  0.4931060000000  0.4203640000000  0.4831980000000 1.0
C      1  0.4938250000000  0.5525180000000  0.4424380000000 1.0
C      1  0.4936990000000  0.5222060000000  0.5767700000000 1.0
C      1  0.5484100000000  0.4712380000000  0.4993140000000 1.0
C      1  0.5439150000000  0.5166290000000  0.4691460000000 1.0
C      1  0.5470680000000  0.5139100000000  0.5281420000000 1.0
C      1  0.4752780000000  0.5514760000000  0.4919170000000 1.0
C      1  0.4725950000000  0.4828700000000  0.5498800000000 1.0
C      1  0.4733400000000  0.4677020000000  0.4623130000000 1.0
C      1  0.4542350000000  0.5397110000000  0.5608710000000 1.0
C      1  0.4531270000000  0.4257930000000  0.5037860000000 1.0
C      1  0.4533660000000  0.5331530000000  0.4343960000000 1.0
C      1  0.4662640000000  0.4647490000000  0.5716870000000 1.0
C      1  0.4673870000000  0.4558710000000  0.4352490000000 1.0
C      1  0.4667730000000  0.5790450000000  0.4974040000000 1.0
C      1  0.4077050000000  0.5368460000000  0.5033450000000 1.0
C      1  0.4129980000000  0.4810420000000  0.5247770000000 1.0
C      1  0.4116130000000  0.4829850000000  0.4743680000000 1.0
C      1  0.5418370000000  0.4429320000000  0.5412580000000 1.0
C      1  0.5447330000000  0.4810580000000  0.4369850000000 1.0
C      1  0.5406840000000  0.5633650000000  0.5249710000000 1.0
C      1  0.5686920000000  0.4550990000000  0.5333610000000 1.0
C      1  0.5707040000000  0.4928220000000  0.4463430000000 1.0
C      1  0.5709210000000  0.5481470000000  0.5186870000000 1.0
C      1  0.5163610000000  0.4790880000000  0.4721250000000 1.0
C      1  0.5186240000000  0.5292280000000  0.4998610000000 1.0
C      1  0.5181590000000  0.4847560000000  0.5310100000000 1.0
C      1  0.4436340000000  0.4559250000000  0.5049180000000 1.0
C      1  0.4474940000000  0.5119010000000  0.4568790000000 1.0
C      1  0.4449320000000  0.5231370000000  0.5349010000000 1.0
C      1  0.5488150000000  0.4853250000000  0.5643080000000 1.0
C      1  0.5510660000000  0.4542690000000  0.4538440000000 1.0
C      1  0.5466650000000  0.5622630000000  0.4846490000000 1.0
C      1  0.5395280000000  0.4330220000000  0.4671250000000 1.0
C      1  0.5419740000000  0.5602620000000  0.4578060000000 1.0
C      1  0.5400260000000  0.5073870000000  0.5757380000000 1.0
C      1  0.5122630000000  0.4993720000000  0.5776400000000 1.0
C      1  0.5111200000000  0.4310760000000  0.4629450000000 1.0
C      1  0.5131480000000  0.5642570000000  0.4604790000000 1.0
C      1  0.4649140000000  0.4237980000000  0.4777200000000 1.0
C      1  0.4654850000000  0.5561160000000  0.4473320000000 1.0
C      1  0.4653710000000  0.5182090000000  0.5762820000000 1.0
C      1  0.5080880000000  0.4141240000000  0.5071940000000 1.0
C      1  0.5093510000000  0.5343560000000  0.4256820000000 1.0
C      1  0.5091130000000  0.5464070000000  0.5697260000000 1.0
C      1  0.5572190000000  0.5236070000000  0.5520650000000 1.0
C      1  0.5555780000000  0.4446700000000  0.4936610000000 1.0
C      1  0.5576380000000  0.5343780000000  0.4519020000000 1.0
C      1  0.4988660000000  0.4739770000000  0.4939230000000 1.0
C      1  0.4961570000000  0.5194670000000  0.4812800000000 1.0
C      1  0.4963500000000  0.5046800000000  0.5273310000000 1.0
C      1  0.5049230000000  0.5302810000000  0.5273180000000 1.0
C      1  0.5056770000000  0.4589060000000  0.5156550000000 1.0
C      1  0.5036060000000  0.5029690000000  0.4560440000000 1.0
C      1  0.5304250000000  0.5595510000000  0.5522060000000 1.0
C      1  0.5277530000000  0.4204620000000  0.5273980000000 1.0
C      1  0.5235690000000  0.5115050000000  0.4175460000000 1.0
C      1  0.5823650000000  0.5188680000000  0.4569380000000 1.0
C      1  0.5834700000000  0.5295720000000  0.5384390000000 1.0
C      1  0.5820840000000  0.4487250000000  0.5078190000000 1.0
C      1  0.4359170000000  0.5385160000000  0.4947360000000 1.0
C      1  0.4320020000000  0.4921550000000  0.5430420000000 1.0
C      1  0.4331900000000  0.4643340000000  0.4718230000000 1.0
C      1  0.4851270000000  0.5547150000000  0.5312570000000 1.0
C      1  0.4822430000000  0.4448970000000  0.5336040000000 1.0
C      1  0.4833630000000  0.4977110000000  0.4345620000000 1.0
C      1  0.5687150000000  0.5471360000000  0.4932340000000 1.0
C      1  0.5697190000000  0.4812260000000  0.5448220000000 1.0
C      1  0.5736140000000  0.4700010000000  0.4643470000000 1.0
C      1  0.4536720000000  0.5634160000000  0.4741110000000 1.0
C      1  0.4513150000000  0.4906620000000  0.5696790000000 1.0
C      1  0.4515460000000  0.4420370000000  0.4570040000000 1.0
C      1  0.4692120000000  0.5158470000000  0.4192770000000 1.0
C      1  0.4678480000000  0.5608970000000  0.5484390000000 1.0
C      1  0.4686050000000  0.4219190000000  0.5268770000000 1.0
C      1  0.4589680000000  0.5250950000000  0.5076840000000 1.0
C      1  0.4632380000000  0.4744380000000  0.5178540000000 1.0
C      1  0.4652360000000  0.4944640000000  0.4713290000000 1.0
C      1  0.5045420000000  0.5580270000000  0.4881450000000 1.0
C      1  0.5004230000000  0.4817360000000  0.5579450000000 1.0
C      1  0.5022910000000  0.4583890000000  0.4564250000000 1.0
C      1  0.5883170000000  0.4699480000000  0.4890630000000 1.0
C      1  0.5850200000000  0.5257740000000  0.4859330000000 1.0
C      1  0.5877920000000  0.5016050000000  0.5313850000000 1.0
C      1  0.5206430000000  0.5355710000000  0.5486430000000 1.0
C      1  0.5239210000000  0.4374620000000  0.5065120000000 1.0
C      1  0.5204420000000  0.5223570000000  0.4508010000000 1.0
C      1  0.4902470000000  0.4706880000000  0.4237350000000 1.0
C      1  0.4872010000000  0.5788000000000  0.5181070000000 1.0
C      1  0.4910620000000  0.4486050000000  0.5650460000000 1.0
C      1  0.6656190000000  0.4985420000000  0.4997930000000 1.0
C      1  0.4634840000000  0.4983660000000  0.4984370000000 1.0
C      1  0.3938500000000  0.5121200000000  0.5025330000000 1.0
C      1  0.3676900000000  0.5027590000000  0.5009930000000 1.0
C      1  0.3183700000000  0.4977940000000  0.5001440000000 1.0
C      1  0.5249580000000  0.5002650000000  0.5012980000000 1.0
C      1  0.5913870000000  0.4979020000000  0.5017990000000 1.0
C      1  0.4880330000000  0.4973630000000  0.5022320000000 1.0
C      1  0.6898210000000  0.4986430000000  0.5000900000000 1.0
C      1  0.4113400000000  0.4926010000000  0.5006170000000 1.0
C      1  0.5496720000000  0.4999270000000  0.4992450000000 1.0
C      1  0.3449060000000  0.4977290000000  0.5001150000000 1.0
C      1  0.6170870000000  0.5037010000000  0.5021040000000 1.0
C      1  0.6403570000000  0.5008370000000  0.5010120000000 1.0
C      1  0.2945130000000  0.4991190000000  0.5004160000000 1.0
END
