TITL C-2441165-58-695 0.0546744249993875 125000 -23598.7963211673 0 0 165 (C1) n - 1
REM
REM in /home/bkarasulu/work/CARBON/AIRSS/Generating-Clusters/ReaxFF-fromJPCA2015/Units_Real/with-SteepDescent/Higher-Symm
REM
REM
REM
REM
REM
REM ./C.cell (1df0a924f5614ab8850e4351716899ee)
REM
REM compiler GCC version 9.2.1 20190827 (Red Hat 9.2.1-1)
REM options -cpp -mtune=generic -march=x86-64 -g -O0 -fpre-include=/usr/include/finclude/math-vector-fortran.h
REM seed 901388943 -945734096 1968285007 -408553917 664758263 -329844278 -1751243871 22807140 1479287542 -1910442395 -1065021160 -439892311 1983682457 -2128968483 -1781651955 -1269108229 1679378751 1374562047 -1656726766 -129118845 1438177097 943497562 -1944109016 -1167468600 -282848344 492301493 1817534162 -359728425 1529852440 -95850459 66922458 1701029460 -2129081616
REM
CELL 1.54180   50.00000   50.00000   50.00000   90.00000   90.00000   90.00000
LATT -1
SFAC C  
C      1  0.4869930000000  0.4969670000000  0.5306270000000 1.0
C      1  0.5340630000000  0.4951090000000  0.4938740000000 1.0
C      1  0.4700940000000  0.4996370000000  0.4678600000000 1.0
C      1  0.5107150000000  0.5052590000000  0.5405250000000 1.0
C      1  0.4535730000000  0.4990150000000  0.4877900000000 1.0
C      1  0.5276160000000  0.5031170000000  0.4678370000000 1.0
C      1  0.5143650000000  0.5922790000000  0.5266250000000 1.0
C      1  0.5136100000000  0.5929970000000  0.4705420000000 1.0
C      1  0.4707400000000  0.5887380000000  0.5004680000000 1.0
C      1  0.4853970000000  0.5922980000000  0.5269850000000 1.0
C      1  0.4862220000000  0.5938740000000  0.4709380000000 1.0
C      1  0.5288110000000  0.5887050000000  0.4998920000000 1.0
C      1  0.4471600000000  0.4443290000000  0.4245070000000 1.0
C      1  0.4618830000000  0.4438050000000  0.5801670000000 1.0
C      1  0.5907170000000  0.4448150000000  0.4866030000000 1.0
C      1  0.5582400000000  0.4434330000000  0.4283860000000 1.0
C      1  0.5353590000000  0.4443890000000  0.5822460000000 1.0
C      1  0.4100440000000  0.4440730000000  0.4920530000000 1.0
C      1  0.5685130000000  0.5087860000000  0.4215060000000 1.0
C      1  0.4041710000000  0.5051180000000  0.4588460000000 1.0
C      1  0.5318120000000  0.5110950000000  0.6044410000000 1.0
C      1  0.4152740000000  0.5047400000000  0.4330990000000 1.0
C      1  0.6030980000000  0.5099320000000  0.4766850000000 1.0
C      1  0.4729820000000  0.5116440000000  0.6011300000000 1.0
C      1  0.4860130000000  0.4113040000000  0.4737400000000 1.0
C      1  0.4855430000000  0.4098310000000  0.5235650000000 1.0
C      1  0.5299220000000  0.4109420000000  0.4987230000000 1.0
C      1  0.5154170000000  0.4113350000000  0.4734170000000 1.0
C      1  0.5140280000000  0.4095690000000  0.5225400000000 1.0
C      1  0.4711900000000  0.4107130000000  0.4983830000000 1.0
C      1  0.4512390000000  0.5211860000000  0.4060110000000 1.0
C      1  0.4475100000000  0.5171950000000  0.5876640000000 1.0
C      1  0.6032680000000  0.5168320000000  0.5065700000000 1.0
C      1  0.5432000000000  0.5156290000000  0.4057060000000 1.0
C      1  0.5557810000000  0.5178860000000  0.5867410000000 1.0
C      1  0.3938420000000  0.5206720000000  0.5040840000000 1.0
C      1  0.4696810000000  0.4744950000000  0.4555500000000 1.0
C      1  0.4752350000000  0.4858300000000  0.5531410000000 1.0
C      1  0.5601720000000  0.4849080000000  0.4924240000000 1.0
C      1  0.5381290000000  0.4816490000000  0.4537150000000 1.0
C      1  0.5226560000000  0.4851930000000  0.5572400000000 1.0
C      1  0.4450610000000  0.4732940000000  0.4973270000000 1.0
C      1  0.4899300000000  0.4786250000000  0.4357740000000 1.0
C      1  0.4479430000000  0.4810050000000  0.5483550000000 1.0
C      1  0.5639440000000  0.4763220000000  0.5204750000000 1.0
C      1  0.5147370000000  0.4658260000000  0.4453460000000 1.0
C      1  0.5442390000000  0.4793460000000  0.5394210000000 1.0
C      1  0.4347770000000  0.4804790000000  0.5234440000000 1.0
C      1  0.4856000000000  0.5522730000000  0.6140760000000 1.0
C      1  0.6026910000000  0.5506900000000  0.4568250000000 1.0
C      1  0.4177540000000  0.5476830000000  0.4354360000000 1.0
C      1  0.5156540000000  0.5536050000000  0.6143280000000 1.0
C      1  0.4006770000000  0.5477390000000  0.4597810000000 1.0
C      1  0.5838040000000  0.5492920000000  0.4334030000000 1.0
C      1  0.5250990000000  0.5822840000000  0.4460100000000 1.0
C      1  0.4397750000000  0.5841600000000  0.5065870000000 1.0
C      1  0.5318980000000  0.5828230000000  0.5482230000000 1.0
C      1  0.4747910000000  0.5852200000000  0.4458120000000 1.0
C      1  0.5596010000000  0.5824800000000  0.5047940000000 1.0
C      1  0.4680380000000  0.5821840000000  0.5485570000000 1.0
C      1  0.4469800000000  0.5820230000000  0.4535190000000 1.0
C      1  0.4852290000000  0.5789900000000  0.5715950000000 1.0
C      1  0.5688070000000  0.5794230000000  0.4782810000000 1.0
C      1  0.5523800000000  0.5761780000000  0.4533590000000 1.0
C      1  0.5150610000000  0.5797000000000  0.5716130000000 1.0
C      1  0.4314760000000  0.5837990000000  0.4790940000000 1.0
C      1  0.5954370000000  0.4824010000000  0.4680160000000 1.0
C      1  0.4259880000000  0.4782610000000  0.4321150000000 1.0
C      1  0.4887000000000  0.4826580000000  0.5980680000000 1.0
C      1  0.4138750000000  0.4816560000000  0.4709150000000 1.0
C      1  0.5740360000000  0.4821780000000  0.4327180000000 1.0
C      1  0.5184830000000  0.4842150000000  0.6048610000000 1.0
C      1  0.5625960000000  0.4892690000000  0.5831630000000 1.0
C      1  0.5375350000000  0.4872140000000  0.4004910000000 1.0
C      1  0.3919230000000  0.4914060000000  0.5099980000000 1.0
C      1  0.4394300000000  0.4882370000000  0.5915440000000 1.0
C      1  0.4573370000000  0.4929560000000  0.4014920000000 1.0
C      1  0.6064800000000  0.4887410000000  0.5143330000000 1.0
C      1  0.5141890000000  0.5243560000000  0.4326980000000 1.0
C      1  0.4307200000000  0.5240580000000  0.5231840000000 1.0
C      1  0.5532000000000  0.5245090000000  0.5470320000000 1.0
C      1  0.4861210000000  0.5219930000000  0.4306740000000 1.0
C      1  0.5668180000000  0.5218060000000  0.5228580000000 1.0
C      1  0.4471850000000  0.5243910000000  0.5461470000000 1.0
C      1  0.4877010000000  0.4651100000000  0.5204120000000 1.0
C      1  0.5238170000000  0.4624820000000  0.4998180000000 1.0
C      1  0.4826130000000  0.4578930000000  0.4755080000000 1.0
C      1  0.5130920000000  0.4524880000000  0.5242120000000 1.0
C      1  0.4692270000000  0.4571240000000  0.4999730000000 1.0
C      1  0.5100670000000  0.4606340000000  0.4748180000000 1.0
C      1  0.5254620000000  0.5396910000000  0.4111140000000 1.0
C      1  0.4080810000000  0.5415390000000  0.5199400000000 1.0
C      1  0.5606410000000  0.5420040000000  0.5680060000000 1.0
C      1  0.4729120000000  0.5407530000000  0.4131180000000 1.0
C      1  0.5891230000000  0.5399010000000  0.5195230000000 1.0
C      1  0.4406090000000  0.5399710000000  0.5687640000000 1.0
C      1  0.5132560000000  0.4745310000000  0.3922550000000 1.0
C      1  0.4064490000000  0.4763000000000  0.5300940000000 1.0
C      1  0.5809040000000  0.4739800000000  0.5678260000000 1.0
C      1  0.4843680000000  0.4800300000000  0.4073670000000 1.0
C      1  0.5921230000000  0.4745270000000  0.5364310000000 1.0
C      1  0.4281530000000  0.4736140000000  0.5690490000000 1.0
C      1  0.5152180000000  0.4361870000000  0.4286830000000 1.0
C      1  0.4299690000000  0.4271210000000  0.5233660000000 1.0
C      1  0.5528230000000  0.4297640000000  0.5485440000000 1.0
C      1  0.4866050000000  0.4291280000000  0.4265570000000 1.0
C      1  0.5698530000000  0.4281310000000  0.5264570000000 1.0
C      1  0.4448130000000  0.4267290000000  0.5474450000000 1.0
C      1  0.5122780000000  0.5487080000000  0.5224180000000 1.0
C      1  0.5098780000000  0.5472200000000  0.4751510000000 1.0
C      1  0.4748180000000  0.5594080000000  0.4976230000000 1.0
C      1  0.4852690000000  0.5460880000000  0.5204080000000 1.0
C      1  0.4822560000000  0.5477450000000  0.4725330000000 1.0
C      1  0.5207910000000  0.5600360000000  0.4980720000000 1.0
C      1  0.4850750000000  0.5658600000000  0.4243420000000 1.0
C      1  0.4434240000000  0.5647000000000  0.5499500000000 1.0
C      1  0.5720240000000  0.5648680000000  0.5244500000000 1.0
C      1  0.5137050000000  0.5645960000000  0.4239490000000 1.0
C      1  0.5563710000000  0.5653430000000  0.5492950000000 1.0
C      1  0.4271730000000  0.5657030000000  0.5253080000000 1.0
C      1  0.5143820000000  0.4284960000000  0.5730660000000 1.0
C      1  0.5582910000000  0.4243200000000  0.4486360000000 1.0
C      1  0.4278580000000  0.4292110000000  0.4761160000000 1.0
C      1  0.4840480000000  0.4272030000000  0.5736590000000 1.0
C      1  0.4432880000000  0.4283410000000  0.4474430000000 1.0
C      1  0.5741180000000  0.4252530000000  0.4764610000000 1.0
C      1  0.5282530000000  0.5299040000000  0.6277980000000 1.0
C      1  0.5920090000000  0.5278470000000  0.4150290000000 1.0
C      1  0.3906650000000  0.5247620000000  0.4749970000000 1.0
C      1  0.4748590000000  0.5267960000000  0.6268090000000 1.0
C      1  0.4239340000000  0.5263330000000  0.4164260000000 1.0
C      1  0.6211710000000  0.5274700000000  0.4595260000000 1.0
C      1  0.5585090000000  0.5467950000000  0.4527690000000 1.0
C      1  0.4241760000000  0.5549770000000  0.4763000000000 1.0
C      1  0.5157570000000  0.5529540000000  0.5845070000000 1.0
C      1  0.4415980000000  0.5528800000000  0.4522910000000 1.0
C      1  0.5789710000000  0.5517450000000  0.4747970000000 1.0
C      1  0.4859750000000  0.5520170000000  0.5843250000000 1.0
C      1  0.5243000000000  0.4269850000000  0.5440740000000 1.0
C      1  0.5300040000000  0.4185970000000  0.4485480000000 1.0
C      1  0.4425620000000  0.4189770000000  0.4983970000000 1.0
C      1  0.4721750000000  0.4186430000000  0.5487070000000 1.0
C      1  0.4708360000000  0.4190310000000  0.4489110000000 1.0
C      1  0.5587360000000  0.4199060000000  0.5005980000000 1.0
C      1  0.4251820000000  0.4451860000000  0.5599300000000 1.0
C      1  0.5902190000000  0.4441570000000  0.5403500000000 1.0
C      1  0.4834560000000  0.4470650000000  0.4037560000000 1.0
C      1  0.5724460000000  0.4462150000000  0.5641010000000 1.0
C      1  0.4104360000000  0.4468030000000  0.5337410000000 1.0
C      1  0.5117900000000  0.4463560000000  0.3983060000000 1.0
C      1  0.3951890000000  0.4688980000000  0.4900130000000 1.0
C      1  0.5409430000000  0.4689830000000  0.5944650000000 1.0
C      1  0.5594810000000  0.4671090000000  0.4130660000000 1.0
C      1  0.6061490000000  0.4683010000000  0.4915030000000 1.0
C      1  0.4598420000000  0.4668980000000  0.5961630000000 1.0
C      1  0.4418640000000  0.4687850000000  0.4092140000000 1.0
C      1  0.5269210000000  0.5252000000000  0.5307200000000 1.0
C      1  0.5276260000000  0.5302720000000  0.4586370000000 1.0
C      1  0.4515790000000  0.5208720000000  0.5043490000000 1.0
C      1  0.4707390000000  0.5220080000000  0.5263190000000 1.0
C      1  0.4769700000000  0.5234180000000  0.4577830000000 1.0
C      1  0.5430630000000  0.5181350000000  0.5074030000000 1.0
C      1  0.4964130000000  0.4763610000000  0.5700040000000 1.0
C      1  0.5654120000000  0.4735260000000  0.4648400000000 1.0
C      1  0.4365890000000  0.4702120000000  0.4577820000000 1.0
END
