TITL C-2441160-1326-907 0.213209830619522 125000 -22332.9078666799 0 0 189 (C1) n - 1
REM
REM in /home/bkarasulu/work/CARBON/AIRSS/Generating-Clusters/ReaxFF-fromJPCA2015/Units_Real/with-SteepDescent/Higher-Symm
REM
REM
REM
REM
REM
REM ./C.cell (1df0a924f5614ab8850e4351716899ee)
REM
REM compiler GCC version 9.2.1 20190827 (Red Hat 9.2.1-1)
REM options -cpp -mtune=generic -march=x86-64 -g -O0 -fpre-include=/usr/include/finclude/math-vector-fortran.h
REM seed -1137507276 -47412026 -628363823 -1706964608 1113304970 648814744 1203710033 1594930912 -1884525392 1707692025 506266788 1283955591 1499146276 1792024925 -1016078808 1959465021 1760149938 1759764487 -1330456447 -226037384 1254961826 -954822366 -52693410 322794888 -1253424594 -1049883713 -2044655593 -594050523 -1516336657 -1184850596 -3522139 134982573 -723312790
REM
CELL 1.54180   50.00000   50.00000   50.00000   90.00000   90.00000   90.00000
LATT -1
SFAC C  
C      1  0.4674710000000  0.5825110000000  0.5659250000000 1.0
C      1  0.5320620000000  0.4090590000000  0.4447770000000 1.0
C      1  0.4187490000000  0.4265690000000  0.4877760000000 1.0
C      1  0.5841150000000  0.5734440000000  0.5117100000000 1.0
C      1  0.4900920000000  0.6104240000000  0.4928510000000 1.0
C      1  0.5117820000000  0.3966500000000  0.5104260000000 1.0
C      1  0.4076310000000  0.5207780000000  0.4790220000000 1.0
C      1  0.5904330000000  0.4818160000000  0.5226820000000 1.0
C      1  0.4285830000000  0.5260820000000  0.5531310000000 1.0
C      1  0.5465410000000  0.4657470000000  0.4526080000000 1.0
C      1  0.4394020000000  0.4398530000000  0.5585860000000 1.0
C      1  0.5632190000000  0.5636420000000  0.4419470000000 1.0
C      1  0.4991430000000  0.5287890000000  0.5299150000000 1.0
C      1  0.5018290000000  0.4780950000000  0.4683790000000 1.0
C      1  0.5680520000000  0.4511400000000  0.5595160000000 1.0
C      1  0.4338520000000  0.5472590000000  0.4407030000000 1.0
C      1  0.4301750000000  0.4633280000000  0.4245890000000 1.0
C      1  0.5690250000000  0.5353450000000  0.5760190000000 1.0
C      1  0.4449560000000  0.4738110000000  0.4969870000000 1.0
C      1  0.5512990000000  0.5291070000000  0.5065160000000 1.0
C      1  0.4754350000000  0.5291070000000  0.4198700000000 1.0
C      1  0.5209960000000  0.4752710000000  0.5696900000000 1.0
C      1  0.5679340000000  0.4772230000000  0.5753750000000 1.0
C      1  0.4317360000000  0.5214760000000  0.4249780000000 1.0
C      1  0.5496900000000  0.4625260000000  0.5362200000000 1.0
C      1  0.4511430000000  0.5364120000000  0.4635830000000 1.0
C      1  0.4960490000000  0.5391090000000  0.4029870000000 1.0
C      1  0.5074360000000  0.4442980000000  0.5943070000000 1.0
C      1  0.4635080000000  0.4738070000000  0.5922800000000 1.0
C      1  0.5404750000000  0.5275440000000  0.4091610000000 1.0
C      1  0.4848430000000  0.4037720000000  0.4732110000000 1.0
C      1  0.5048440000000  0.5938720000000  0.5286310000000 1.0
C      1  0.4320710000000  0.4959620000000  0.4375790000000 1.0
C      1  0.5641510000000  0.5036880000000  0.5628310000000 1.0
C      1  0.4373010000000  0.5204940000000  0.4840020000000 1.0
C      1  0.5608390000000  0.4816280000000  0.5181280000000 1.0
C      1  0.5416130000000  0.5941540000000  0.4837670000000 1.0
C      1  0.4594430000000  0.4040990000000  0.5180060000000 1.0
C      1  0.4621540000000  0.4869120000000  0.5431340000000 1.0
C      1  0.5428890000000  0.5071490000000  0.4467680000000 1.0
C      1  0.5739790000000  0.4217730000000  0.4757870000000 1.0
C      1  0.4298710000000  0.5847190000000  0.5233530000000 1.0
C      1  0.4403480000000  0.4652990000000  0.5768800000000 1.0
C      1  0.5632000000000  0.5369030000000  0.4227530000000 1.0
C      1  0.5258550000000  0.5837060000000  0.5633950000000 1.0
C      1  0.4738860000000  0.4156990000000  0.4321480000000 1.0
C      1  0.4535530000000  0.5143950000000  0.4063270000000 1.0
C      1  0.5435880000000  0.4798230000000  0.5924280000000 1.0
C      1  0.4217740000000  0.4808830000000  0.4971410000000 1.0
C      1  0.5766270000000  0.5212640000000  0.5086530000000 1.0
C      1  0.4378320000000  0.4131570000000  0.5025810000000 1.0
C      1  0.5639570000000  0.5865550000000  0.4985160000000 1.0
C      1  0.4971140000000  0.5826120000000  0.4283820000000 1.0
C      1  0.5050100000000  0.4206920000000  0.5784450000000 1.0
C      1  0.5425820000000  0.4448470000000  0.4141370000000 1.0
C      1  0.4542940000000  0.5612360000000  0.5807140000000 1.0
C      1  0.5328470000000  0.5654530000000  0.5194490000000 1.0
C      1  0.4778040000000  0.4428980000000  0.4808440000000 1.0
C      1  0.4491790000000  0.5451130000000  0.5130210000000 1.0
C      1  0.5493800000000  0.4543480000000  0.4916260000000 1.0
C      1  0.3867900000000  0.5012900000000  0.4954580000000 1.0
C      1  0.6097770000000  0.4998430000000  0.5033360000000 1.0
C      1  0.5081460000000  0.4822680000000  0.3926700000000 1.0
C      1  0.4870460000000  0.5247840000000  0.6083220000000 1.0
C      1  0.5721230000000  0.4843260000000  0.4209300000000 1.0
C      1  0.4351560000000  0.5076460000000  0.5747010000000 1.0
C      1  0.4747490000000  0.5701940000000  0.4419040000000 1.0
C      1  0.5255280000000  0.4235740000000  0.5579250000000 1.0
C      1  0.5659940000000  0.4546580000000  0.4322020000000 1.0
C      1  0.4334030000000  0.5536890000000  0.5624150000000 1.0
C      1  0.5450230000000  0.5416830000000  0.4778090000000 1.0
C      1  0.4475800000000  0.4546140000000  0.5155830000000 1.0
C      1  0.4332460000000  0.4486200000000  0.4502100000000 1.0
C      1  0.5729470000000  0.5484250000000  0.5488310000000 1.0
C      1  0.5314250000000  0.5139000000000  0.5667380000000 1.0
C      1  0.4620960000000  0.4854540000000  0.4390800000000 1.0
C      1  0.5244660000000  0.5740730000000  0.4309130000000 1.0
C      1  0.4762910000000  0.4231780000000  0.5743620000000 1.0
C      1  0.5006010000000  0.4528890000000  0.4281270000000 1.0
C      1  0.5003650000000  0.5498180000000  0.5691520000000 1.0
C      1  0.5349140000000  0.4440150000000  0.4689090000000 1.0
C      1  0.4653220000000  0.5591740000000  0.5324350000000 1.0
C      1  0.5256310000000  0.4764290000000  0.5431780000000 1.0
C      1  0.4780580000000  0.5236970000000  0.4588220000000 1.0
C      1  0.5227620000000  0.4744490000000  0.4894120000000 1.0
C      1  0.4736130000000  0.5297300000000  0.5097170000000 1.0
C      1  0.4291080000000  0.5729000000000  0.4697280000000 1.0
C      1  0.5716190000000  0.4261060000000  0.5310360000000 1.0
C      1  0.5877460000000  0.4990620000000  0.5468100000000 1.0
C      1  0.4107340000000  0.5015630000000  0.4544630000000 1.0
C      1  0.5783340000000  0.4613290000000  0.4885330000000 1.0
C      1  0.4191490000000  0.5426530000000  0.5178870000000 1.0
C      1  0.4688510000000  0.4381560000000  0.5086350000000 1.0
C      1  0.5310590000000  0.5651030000000  0.4897120000000 1.0
C      1  0.5940830000000  0.4655610000000  0.4642950000000 1.0
C      1  0.4054730000000  0.5268620000000  0.5366230000000 1.0
C      1  0.5433870000000  0.5816350000000  0.4510550000000 1.0
C      1  0.4618680000000  0.4236410000000  0.5488000000000 1.0
C      1  0.5489080000000  0.4347970000000  0.5738540000000 1.0
C      1  0.4529550000000  0.5636040000000  0.4255140000000 1.0
C      1  0.5480340000000  0.4121680000000  0.5220660000000 1.0
C      1  0.4521520000000  0.5886210000000  0.4764920000000 1.0
C      1  0.6055200000000  0.4911480000000  0.4754340000000 1.0
C      1  0.3909230000000  0.5054070000000  0.5235180000000 1.0
C      1  0.5165030000000  0.6056190000000  0.5052490000000 1.0
C      1  0.4835970000000  0.3971980000000  0.5013220000000 1.0
C      1  0.5092570000000  0.5706960000000  0.4751510000000 1.0
C      1  0.4847300000000  0.4423080000000  0.5332890000000 1.0
C      1  0.5007250000000  0.5972950000000  0.4677640000000 1.0
C      1  0.5108170000000  0.3993640000000  0.5406360000000 1.0
C      1  0.5333240000000  0.5000480000000  0.4886220000000 1.0
C      1  0.4673410000000  0.5061100000000  0.5111890000000 1.0
C      1  0.4642280000000  0.5378010000000  0.5968800000000 1.0
C      1  0.5325960000000  0.4707720000000  0.4039780000000 1.0
C      1  0.5081140000000  0.4392500000000  0.5184370000000 1.0
C      1  0.4890740000000  0.5609020000000  0.4875980000000 1.0
C      1  0.4654500000000  0.5963850000000  0.5016860000000 1.0
C      1  0.5364920000000  0.4028890000000  0.4970230000000 1.0
C      1  0.4438360000000  0.5014270000000  0.5331130000000 1.0
C      1  0.5587990000000  0.4950700000000  0.4676580000000 1.0
C      1  0.5287060000000  0.5412700000000  0.5582280000000 1.0
C      1  0.4705800000000  0.4576400000000  0.4390510000000 1.0
C      1  0.5909090000000  0.5243680000000  0.5327560000000 1.0
C      1  0.4092070000000  0.4778660000000  0.4712060000000 1.0
C      1  0.4859510000000  0.4731670000000  0.5045800000000 1.0
C      1  0.5141350000000  0.5214560000000  0.4920570000000 1.0
C      1  0.6158440000000  0.5266400000000  0.5137890000000 1.0
C      1  0.3854280000000  0.4726400000000  0.4870690000000 1.0
C      1  0.5149020000000  0.4744160000000  0.4437710000000 1.0
C      1  0.4806080000000  0.5346340000000  0.5517600000000 1.0
C      1  0.5842980000000  0.4396640000000  0.4558530000000 1.0
C      1  0.4189220000000  0.5650920000000  0.5406690000000 1.0
C      1  0.5116260000000  0.5084170000000  0.4070240000000 1.0
C      1  0.4815730000000  0.4967140000000  0.5914940000000 1.0
C      1  0.4561870000000  0.4974160000000  0.4880600000000 1.0
C      1  0.5432680000000  0.5030390000000  0.5125690000000 1.0
C      1  0.5050910000000  0.4217210000000  0.4385770000000 1.0
C      1  0.4967270000000  0.5784840000000  0.5634180000000 1.0
C      1  0.5394030000000  0.5614840000000  0.5782310000000 1.0
C      1  0.4593470000000  0.4366600000000  0.4180240000000 1.0
C      1  0.5216190000000  0.5262240000000  0.4503810000000 1.0
C      1  0.4824890000000  0.4717580000000  0.5520030000000 1.0
C      1  0.3972600000000  0.4477450000000  0.4984190000000 1.0
C      1  0.6021840000000  0.5487270000000  0.4997910000000 1.0
C      1  0.5118580000000  0.4633810000000  0.5103650000000 1.0
C      1  0.4890590000000  0.5332920000000  0.4857030000000 1.0
C      1  0.5067200000000  0.5439370000000  0.6003330000000 1.0
C      1  0.4931440000000  0.4585900000000  0.3993860000000 1.0
C      1  0.5838410000000  0.4257130000000  0.5057750000000 1.0
C      1  0.4176750000000  0.5743280000000  0.4945630000000 1.0
C      1  0.4265030000000  0.4432720000000  0.5333920000000 1.0
C      1  0.5697380000000  0.5551100000000  0.4689460000000 1.0
C      1  0.4013830000000  0.4556930000000  0.5253350000000 1.0
C      1  0.5923690000000  0.5376470000000  0.4745570000000 1.0
C      1  0.4062690000000  0.5488030000000  0.4916860000000 1.0
C      1  0.5946870000000  0.4519470000000  0.5115600000000 1.0
C      1  0.5329950000000  0.5108760000000  0.5949840000000 1.0
C      1  0.4641420000000  0.4879220000000  0.4104070000000 1.0
C      1  0.5024350000000  0.4293820000000  0.4693650000000 1.0
C      1  0.4849610000000  0.5749690000000  0.5152240000000 1.0
C      1  0.5000230000000  0.4921490000000  0.5693620000000 1.0
C      1  0.5044730000000  0.5067140000000  0.4352370000000 1.0
C      1  0.4634010000000  0.4600850000000  0.3995890000000 1.0
C      1  0.5359330000000  0.5406440000000  0.5997570000000 1.0
C      1  0.5489430000000  0.4055710000000  0.4687090000000 1.0
C      1  0.4543780000000  0.5866970000000  0.5396360000000 1.0
C      1  0.4642330000000  0.5153820000000  0.5765020000000 1.0
C      1  0.5439700000000  0.4909690000000  0.4227590000000 1.0
C      1  0.5719090000000  0.5763630000000  0.5379180000000 1.0
C      1  0.4333440000000  0.4215950000000  0.4625240000000 1.0
C      1  0.5427710000000  0.5852720000000  0.5385510000000 1.0
C      1  0.4606760000000  0.4084150000000  0.4563730000000 1.0
C      1  0.5358840000000  0.4490270000000  0.5956940000000 1.0
C      1  0.4688870000000  0.5521600000000  0.4035710000000 1.0
C      1  0.5159450000000  0.5021680000000  0.5291900000000 1.0
C      1  0.4763620000000  0.4947030000000  0.4645200000000 1.0
C      1  0.5765790000000  0.5120860000000  0.4227090000000 1.0
C      1  0.4207730000000  0.4849410000000  0.5746060000000 1.0
C      1  0.5311980000000  0.4352740000000  0.5311580000000 1.0
C      1  0.4681170000000  0.5650230000000  0.4697240000000 1.0
C      1  0.5856500000000  0.5101900000000  0.4673980000000 1.0
C      1  0.4123650000000  0.4844060000000  0.5250230000000 1.0
C      1  0.4807950000000  0.4531670000000  0.5829300000000 1.0
C      1  0.5206770000000  0.5449980000000  0.4228900000000 1.0
C      1  0.4591740000000  0.4530280000000  0.4635770000000 1.0
C      1  0.5441660000000  0.5439050000000  0.5315250000000 1.0
C      1  0.4891900000000  0.3918400000000  0.5553200000000 1.0
C      1  0.5026320000000  0.6095430000000  0.4394970000000 1.0
C      1  0.4903860000000  0.4949410000000  0.5147500000000 1.0
END
