TITL C-2441163-1170-332 0.0595653282092625 125000 -19845.9644870526 0 0 141 (C1) n - 1
REM
REM in /home/bkarasulu/work/CARBON/AIRSS/Generating-Clusters/ReaxFF-fromJPCA2015/Units_Real/with-SteepDescent/Higher-Symm
REM
REM
REM
REM
REM
REM ./C.cell (1df0a924f5614ab8850e4351716899ee)
REM
REM compiler GCC version 9.2.1 20190827 (Red Hat 9.2.1-1)
REM options -cpp -mtune=generic -march=x86-64 -g -O0 -fpre-include=/usr/include/finclude/math-vector-fortran.h
REM seed 1923017717 -1203245303 580671451 1035905550 -1315949391 1681737276 -365177883 -1944107707 -2041587439 2139584428 -587987933 2142645268 -185933868 1906345427 1234573417 1793010454 -1511224049 -1328369789 -186710975 812945600 -1350701133 1584907365 1136166305 -1756164625 80269540 -1848505029 -1766520055 -516386773 -2103334439 -1006247798 -1028882270 1818530888 638825346
REM
CELL 1.54180   50.00000   50.00000   50.00000   90.00000   90.00000   90.00000
LATT -1
SFAC C  
C      1  0.4927220000000  0.5949780000000  0.4628830000000 1.0
C      1  0.5872730000000  0.4570450000000  0.4619740000000 1.0
C      1  0.4186120000000  0.4456170000000  0.4600120000000 1.0
C      1  0.4929820000000  0.5948370000000  0.5385780000000 1.0
C      1  0.5870050000000  0.4589390000000  0.5409330000000 1.0
C      1  0.4210320000000  0.4445560000000  0.5410950000000 1.0
C      1  0.5190400000000  0.5647380000000  0.5692020000000 1.0
C      1  0.5451050000000  0.4535550000000  0.5673370000000 1.0
C      1  0.4376050000000  0.4840570000000  0.5673920000000 1.0
C      1  0.5177510000000  0.5616330000000  0.4350260000000 1.0
C      1  0.5442640000000  0.4538310000000  0.4351830000000 1.0
C      1  0.4395500000000  0.4847220000000  0.4339440000000 1.0
C      1  0.5235670000000  0.5606520000000  0.5132490000000 1.0
C      1  0.5412940000000  0.4567550000000  0.5161810000000 1.0
C      1  0.4398050000000  0.4838500000000  0.5157620000000 1.0
C      1  0.5163480000000  0.5569870000000  0.4847240000000 1.0
C      1  0.5414080000000  0.4564110000000  0.4850840000000 1.0
C      1  0.4409660000000  0.4845920000000  0.4843130000000 1.0
C      1  0.5052280000000  0.4801010000000  0.5577270000000 1.0
C      1  0.4864890000000  0.5014320000000  0.5533420000000 1.0
C      1  0.5140220000000  0.5066880000000  0.5528460000000 1.0
C      1  0.4961690000000  0.4856290000000  0.4460020000000 1.0
C      1  0.4853100000000  0.5124500000000  0.4461210000000 1.0
C      1  0.5125290000000  0.5084330000000  0.4470490000000 1.0
C      1  0.4679680000000  0.5588460000000  0.4863360000000 1.0
C      1  0.5718280000000  0.4941180000000  0.4883240000000 1.0
C      1  0.4567060000000  0.4397820000000  0.4876320000000 1.0
C      1  0.4717440000000  0.5620920000000  0.5131750000000 1.0
C      1  0.5710560000000  0.4944840000000  0.5135820000000 1.0
C      1  0.4611790000000  0.4404810000000  0.5131010000000 1.0
C      1  0.4715560000000  0.5007470000000  0.6003310000000 1.0
C      1  0.5151040000000  0.5248200000000  0.5999000000000 1.0
C      1  0.5146300000000  0.4743500000000  0.6013440000000 1.0
C      1  0.4716280000000  0.5003870000000  0.3999190000000 1.0
C      1  0.5151720000000  0.5245340000000  0.4004160000000 1.0
C      1  0.5144690000000  0.4746630000000  0.4006430000000 1.0
C      1  0.4977200000000  0.4399860000000  0.5724390000000 1.0
C      1  0.4514050000000  0.5306710000000  0.5680870000000 1.0
C      1  0.5529950000000  0.5288520000000  0.5720910000000 1.0
C      1  0.4980470000000  0.4383790000000  0.4256050000000 1.0
C      1  0.4469280000000  0.5336070000000  0.4245030000000 1.0
C      1  0.5537170000000  0.5287210000000  0.4265760000000 1.0
C      1  0.5164120000000  0.4034410000000  0.4859540000000 1.0
C      1  0.4069530000000  0.5314350000000  0.4867120000000 1.0
C      1  0.5761990000000  0.5610290000000  0.4891590000000 1.0
C      1  0.5099660000000  0.4063910000000  0.5141610000000 1.0
C      1  0.4118120000000  0.5392610000000  0.5143000000000 1.0
C      1  0.5755450000000  0.5691070000000  0.5158070000000 1.0
C      1  0.5233180000000  0.4521340000000  0.5851030000000 1.0
C      1  0.4484500000000  0.5042640000000  0.5835380000000 1.0
C      1  0.5305350000000  0.5428800000000  0.5838670000000 1.0
C      1  0.5220040000000  0.4519600000000  0.4175620000000 1.0
C      1  0.4478290000000  0.5055030000000  0.4163060000000 1.0
C      1  0.5304180000000  0.5428170000000  0.4177250000000 1.0
C      1  0.5844640000000  0.4858140000000  0.5545130000000 1.0
C      1  0.4450890000000  0.4332070000000  0.5550340000000 1.0
C      1  0.4708930000000  0.5813170000000  0.5536790000000 1.0
C      1  0.5849830000000  0.4847360000000  0.4469650000000 1.0
C      1  0.4443180000000  0.4338570000000  0.4462140000000 1.0
C      1  0.4711080000000  0.5812410000000  0.4468710000000 1.0
C      1  0.4183370000000  0.5265970000000  0.4603430000000 1.0
C      1  0.5650180000000  0.5633190000000  0.4623210000000 1.0
C      1  0.5229570000000  0.4122230000000  0.4596510000000 1.0
C      1  0.4164430000000  0.5287500000000  0.5408640000000 1.0
C      1  0.5667670000000  0.5638200000000  0.5421480000000 1.0
C      1  0.5188460000000  0.4136480000000  0.5404980000000 1.0
C      1  0.4768810000000  0.4548770000000  0.4174470000000 1.0
C      1  0.4746730000000  0.5407020000000  0.4201420000000 1.0
C      1  0.5499980000000  0.5019050000000  0.4193940000000 1.0
C      1  0.4760200000000  0.4557690000000  0.5840540000000 1.0
C      1  0.4753530000000  0.5424260000000  0.5806480000000 1.0
C      1  0.5490540000000  0.5020330000000  0.5805360000000 1.0
C      1  0.4676350000000  0.4128630000000  0.5145910000000 1.0
C      1  0.4473260000000  0.5773980000000  0.5140160000000 1.0
C      1  0.5950060000000  0.5101880000000  0.5157880000000 1.0
C      1  0.4585200000000  0.4107430000000  0.4854340000000 1.0
C      1  0.4395460000000  0.5788440000000  0.4860260000000 1.0
C      1  0.5958930000000  0.5109150000000  0.4857810000000 1.0
C      1  0.4704730000000  0.4895600000000  0.4847160000000 1.0
C      1  0.5039280000000  0.5274980000000  0.4871370000000 1.0
C      1  0.5222750000000  0.4800140000000  0.4843540000000 1.0
C      1  0.4699490000000  0.4878330000000  0.5135430000000 1.0
C      1  0.5000340000000  0.5227880000000  0.5152130000000 1.0
C      1  0.5213770000000  0.4807130000000  0.5142490000000 1.0
C      1  0.5759180000000  0.4306530000000  0.4586880000000 1.0
C      1  0.4029680000000  0.4701310000000  0.4570090000000 1.0
C      1  0.5217370000000  0.5989150000000  0.4592670000000 1.0
C      1  0.5742580000000  0.4320190000000  0.5440720000000 1.0
C      1  0.4043820000000  0.4698050000000  0.5444860000000 1.0
C      1  0.5210950000000  0.5966650000000  0.5431470000000 1.0
C      1  0.5235500000000  0.5141700000000  0.5274510000000 1.0
C      1  0.4943280000000  0.4695000000000  0.5194410000000 1.0
C      1  0.4760460000000  0.5133620000000  0.5283050000000 1.0
C      1  0.5264290000000  0.5094540000000  0.4717090000000 1.0
C      1  0.4951730000000  0.4709200000000  0.4719170000000 1.0
C      1  0.4756610000000  0.5162150000000  0.4735320000000 1.0
C      1  0.4439030000000  0.5735000000000  0.5436150000000 1.0
C      1  0.5885580000000  0.5134670000000  0.5441200000000 1.0
C      1  0.4662670000000  0.4151880000000  0.5436920000000 1.0
C      1  0.4446710000000  0.5725860000000  0.4578980000000 1.0
C      1  0.5902800000000  0.5108940000000  0.4574630000000 1.0
C      1  0.4637580000000  0.4158980000000  0.4575150000000 1.0
C      1  0.4325420000000  0.5468220000000  0.4454360000000 1.0
C      1  0.5694960000000  0.5351740000000  0.4502260000000 1.0
C      1  0.4953210000000  0.4224780000000  0.4497920000000 1.0
C      1  0.4283110000000  0.5510770000000  0.5551580000000 1.0
C      1  0.5729250000000  0.5367510000000  0.5533690000000 1.0
C      1  0.4940080000000  0.4148970000000  0.5549870000000 1.0
C      1  0.4523140000000  0.4581650000000  0.4325380000000 1.0
C      1  0.4886630000000  0.5628030000000  0.4337360000000 1.0
C      1  0.5597570000000  0.4786290000000  0.4339130000000 1.0
C      1  0.4518940000000  0.4578620000000  0.5688600000000 1.0
C      1  0.4886380000000  0.5639700000000  0.5680230000000 1.0
C      1  0.5599310000000  0.4793660000000  0.5671550000000 1.0
C      1  0.5405190000000  0.5385050000000  0.5211400000000 1.0
C      1  0.5008400000000  0.4557150000000  0.5431550000000 1.0
C      1  0.4556520000000  0.5249460000000  0.5409410000000 1.0
C      1  0.5507140000000  0.5261760000000  0.4729280000000 1.0
C      1  0.4973680000000  0.4413990000000  0.4726800000000 1.0
C      1  0.4533110000000  0.5334330000000  0.4807920000000 1.0
C      1  0.4859880000000  0.4756620000000  0.4007440000000 1.0
C      1  0.4869240000000  0.5243180000000  0.4009360000000 1.0
C      1  0.5284430000000  0.4993200000000  0.4017010000000 1.0
C      1  0.4857960000000  0.4758740000000  0.6004870000000 1.0
C      1  0.4871450000000  0.5248310000000  0.5986610000000 1.0
C      1  0.5281900000000  0.4997310000000  0.5992050000000 1.0
C      1  0.4923890000000  0.5716560000000  0.4801660000000 1.0
C      1  0.5667570000000  0.4685360000000  0.4794910000000 1.0
C      1  0.4374850000000  0.4569560000000  0.4787600000000 1.0
C      1  0.4974390000000  0.5697850000000  0.5235630000000 1.0
C      1  0.5668970000000  0.4685630000000  0.5221890000000 1.0
C      1  0.4396080000000  0.4558000000000  0.5218630000000 1.0
C      1  0.4225190000000  0.4943230000000  0.4570620000000 1.0
C      1  0.5355120000000  0.5710640000000  0.4589010000000 1.0
C      1  0.5444700000000  0.4338560000000  0.4583360000000 1.0
C      1  0.4215960000000  0.4945820000000  0.5429650000000 1.0
C      1  0.5395010000000  0.5779040000000  0.5525510000000 1.0
C      1  0.5436650000000  0.4342920000000  0.5428060000000 1.0
C      1  0.5585850000000  0.5366970000000  0.4978090000000 1.0
C      1  0.4317320000000  0.5283170000000  0.4987750000000 1.0
C      1  0.5056450000000  0.4285920000000  0.4959240000000 1.0
END
