TITL C-2441154-10-231 0.00175204234074293 125000 -10903.7429776547 0 0 74 (C1) n - 1
REM
REM in /home/bkarasulu/work/CARBON/AIRSS/Generating-Clusters/ReaxFF-fromJPCA2015/Units_Real/with-SteepDescent/Higher-Symm
REM
REM
REM
REM
REM
REM ./C.cell (1df0a924f5614ab8850e4351716899ee)
REM
REM compiler GCC version 9.2.1 20190827 (Red Hat 9.2.1-1)
REM options -cpp -mtune=generic -march=x86-64 -g -O0 -fpre-include=/usr/include/finclude/math-vector-fortran.h
REM seed 877486390 -645126579 174322879 370520198 -886627796 -1662375494 -2146118777 -241941471 1459135571 -110283966 725907049 637617359 1470736782 1318855267 -1607250590 1703962340 855772689 -1849657901 -1021114638 282909412 211524376 -1290059757 -1501316068 -1636425997 1467276927 -970600573 -1408004836 1715389460 -1901628837 158938742 2008872441 563506074 -551210820
REM
CELL 1.54180   50.00000   50.00000   50.00000   90.00000   90.00000   90.00000
LATT -1
SFAC C  
C      1  0.4905940000000  0.4662610000000  0.4345060000000 1.0
C      1  0.4934340000000  0.5603040000000  0.4480890000000 1.0
C      1  0.5711520000000  0.4680300000000  0.4991250000000 1.0
C      1  0.4217310000000  0.4592380000000  0.4507150000000 1.0
C      1  0.4946880000000  0.4988310000000  0.5380720000000 1.0
C      1  0.4600350000000  0.5499630000000  0.5511790000000 1.0
C      1  0.4742280000000  0.4817670000000  0.5560270000000 1.0
C      1  0.4392130000000  0.5486540000000  0.4971840000000 1.0
C      1  0.5673730000000  0.4437000000000  0.4855930000000 1.0
C      1  0.4856220000000  0.4926110000000  0.4398990000000 1.0
C      1  0.4294130000000  0.5200890000000  0.5079720000000 1.0
C      1  0.5300920000000  0.4617170000000  0.4630710000000 1.0
C      1  0.5632080000000  0.5439930000000  0.4985210000000 1.0
C      1  0.4931820000000  0.5566710000000  0.4791230000000 1.0
C      1  0.5614170000000  0.4993460000000  0.4907860000000 1.0
C      1  0.4384170000000  0.5530930000000  0.4695860000000 1.0
C      1  0.4327470000000  0.5062050000000  0.5340150000000 1.0
C      1  0.5302310000000  0.4371600000000  0.5128570000000 1.0
C      1  0.5403200000000  0.5370950000000  0.4285400000000 1.0
C      1  0.4729110000000  0.4494420000000  0.4515750000000 1.0
C      1  0.5164560000000  0.5092620000000  0.4802340000000 1.0
C      1  0.5220210000000  0.4639000000000  0.4345310000000 1.0
C      1  0.4803030000000  0.4209770000000  0.5201250000000 1.0
C      1  0.4725670000000  0.5442700000000  0.4359210000000 1.0
C      1  0.4855390000000  0.5186160000000  0.5195400000000 1.0
C      1  0.4553230000000  0.4572560000000  0.4969940000000 1.0
C      1  0.4874560000000  0.4387330000000  0.5395720000000 1.0
C      1  0.5366790000000  0.4869670000000  0.4313880000000 1.0
C      1  0.5133060000000  0.4804480000000  0.4772620000000 1.0
C      1  0.4830300000000  0.5189100000000  0.4486450000000 1.0
C      1  0.5174040000000  0.4900960000000  0.5212750000000 1.0
C      1  0.4796750000000  0.5341550000000  0.5677250000000 1.0
C      1  0.5484020000000  0.5556870000000  0.4484120000000 1.0
C      1  0.4660400000000  0.5603700000000  0.4997930000000 1.0
C      1  0.4813070000000  0.4317220000000  0.4732490000000 1.0
C      1  0.4463660000000  0.4646670000000  0.4510840000000 1.0
C      1  0.5427380000000  0.5635260000000  0.5038970000000 1.0
C      1  0.5633940000000  0.5405400000000  0.4696080000000 1.0
C      1  0.5713590000000  0.5191570000000  0.5117830000000 1.0
C      1  0.5000330000000  0.5468820000000  0.5304360000000 1.0
C      1  0.5198530000000  0.5645070000000  0.5180900000000 1.0
C      1  0.4472360000000  0.4585720000000  0.5227410000000 1.0
C      1  0.5352920000000  0.4376980000000  0.4814340000000 1.0
C      1  0.5292990000000  0.5259990000000  0.5709830000000 1.0
C      1  0.4425520000000  0.5037830000000  0.4883400000000 1.0
C      1  0.5206650000000  0.5573670000000  0.4372620000000 1.0
C      1  0.5086360000000  0.4177050000000  0.5094210000000 1.0
C      1  0.4732960000000  0.5617590000000  0.5271280000000 1.0
C      1  0.5239380000000  0.4625050000000  0.5575860000000 1.0
C      1  0.5491450000000  0.5070830000000  0.5582530000000 1.0
C      1  0.5065920000000  0.5405610000000  0.5601910000000 1.0
C      1  0.4639140000000  0.4311140000000  0.4973860000000 1.0
C      1  0.4361330000000  0.4959630000000  0.4597980000000 1.0
C      1  0.4392040000000  0.5194520000000  0.4452370000000 1.0
C      1  0.5646620000000  0.5128820000000  0.4637910000000 1.0
C      1  0.4944730000000  0.4570720000000  0.5580750000000 1.0
C      1  0.4943100000000  0.4987980000000  0.5990920000000 1.0
C      1  0.4709090000000  0.5055200000000  0.4979330000000 1.0
C      1  0.4429750000000  0.5286300000000  0.5460430000000 1.0
C      1  0.5512560000000  0.5099420000000  0.4375560000000 1.0
C      1  0.4431430000000  0.5475140000000  0.4417190000000 1.0
C      1  0.4765530000000  0.4775880000000  0.4966710000000 1.0
C      1  0.5621000000000  0.4727320000000  0.5265000000000 1.0
C      1  0.5081650000000  0.4219120000000  0.4805110000000 1.0
C      1  0.5334180000000  0.5060330000000  0.5030950000000 1.0
C      1  0.4965480000000  0.5275230000000  0.4730620000000 1.0
C      1  0.5363390000000  0.4844160000000  0.5727540000000 1.0
C      1  0.4461690000000  0.4783540000000  0.5416230000000 1.0
C      1  0.5229780000000  0.5041270000000  0.5908480000000 1.0
C      1  0.5037380000000  0.4723930000000  0.5030730000000 1.0
C      1  0.5398750000000  0.4546090000000  0.5342340000000 1.0
C      1  0.4761860000000  0.5049900000000  0.5764400000000 1.0
C      1  0.5636430000000  0.5012560000000  0.5339240000000 1.0
C      1  0.5173970000000  0.5693290000000  0.4912950000000 1.0
END
