TITL C-2441162-9305-372 0.0157669580302839 125000 -12639.5133833071 0 0 88 (C1) n - 1
REM
REM in /home/bkarasulu/work/CARBON/AIRSS/Generating-Clusters/ReaxFF-fromJPCA2015/Units_Real/with-SteepDescent/Higher-Symm
REM
REM
REM
REM
REM
REM ./C.cell (1df0a924f5614ab8850e4351716899ee)
REM
REM compiler GCC version 9.2.1 20190827 (Red Hat 9.2.1-1)
REM options -cpp -mtune=generic -march=x86-64 -g -O0 -fpre-include=/usr/include/finclude/math-vector-fortran.h
REM seed -1565498502 -1085968974 -275806411 -942103244 1898696551 -1431107948 -870755645 334949092 -137279388 -405838500 -1985686762 -518585403 1652831198 -1339244650 1250174731 687466724 971254278 -1284431322 577612801 1768846689 2047441439 -1958228851 -1704861645 1832474712 -227597401 -636150500 -1063608374 -2048971092 -2009647014 1692586448 -1215039865 998182852 -2007129522
REM
CELL 1.54180   50.00000   50.00000   50.00000   90.00000   90.00000   90.00000
LATT -1
SFAC C  
C      1  0.4888810000000  0.4880210000000  0.4520240000000 1.0
C      1  0.4838900000000  0.5434380000000  0.5086910000000 1.0
C      1  0.4830280000000  0.4693120000000  0.5346840000000 1.0
C      1  0.5159950000000  0.4478590000000  0.5632860000000 1.0
C      1  0.5131670000000  0.4754290000000  0.4301850000000 1.0
C      1  0.5170870000000  0.5799930000000  0.5132830000000 1.0
C      1  0.5008820000000  0.4329930000000  0.4650070000000 1.0
C      1  0.5004280000000  0.5639290000000  0.4608910000000 1.0
C      1  0.5003840000000  0.5028810000000  0.5738770000000 1.0
C      1  0.5106700000000  0.5398330000000  0.5160930000000 1.0
C      1  0.5100990000000  0.4665030000000  0.5279160000000 1.0
C      1  0.5073050000000  0.5102350000000  0.4587520000000 1.0
C      1  0.5344080000000  0.4563980000000  0.4365290000000 1.0
C      1  0.5358140000000  0.5785500000000  0.4928010000000 1.0
C      1  0.5369450000000  0.4663590000000  0.5728690000000 1.0
C      1  0.4708300000000  0.5089990000000  0.5735860000000 1.0
C      1  0.4711440000000  0.4313570000000  0.4700890000000 1.0
C      1  0.4712020000000  0.5601410000000  0.4556250000000 1.0
C      1  0.5702440000000  0.4644990000000  0.5137580000000 1.0
C      1  0.5560350000000  0.5045060000000  0.4567100000000 1.0
C      1  0.5639950000000  0.5271460000000  0.5218320000000 1.0
C      1  0.4567550000000  0.5113860000000  0.4907350000000 1.0
C      1  0.4564090000000  0.5085150000000  0.5203380000000 1.0
C      1  0.4608670000000  0.4823680000000  0.4894130000000 1.0
C      1  0.4619020000000  0.5393080000000  0.4336950000000 1.0
C      1  0.4605650000000  0.5378560000000  0.5658700000000 1.0
C      1  0.4610330000000  0.4237630000000  0.4988620000000 1.0
C      1  0.4888770000000  0.4767210000000  0.4814580000000 1.0
C      1  0.4837460000000  0.5234770000000  0.4877460000000 1.0
C      1  0.4810730000000  0.4957550000000  0.5247300000000 1.0
C      1  0.5184960000000  0.5513350000000  0.4424040000000 1.0
C      1  0.5184180000000  0.5251360000000  0.5705690000000 1.0
C      1  0.5194710000000  0.4259810000000  0.4858540000000 1.0
C      1  0.5471330000000  0.4332910000000  0.4794220000000 1.0
C      1  0.5459630000000  0.5528330000000  0.4521890000000 1.0
C      1  0.5466590000000  0.5172760000000  0.5684700000000 1.0
C      1  0.5107930000000  0.5289640000000  0.4230430000000 1.0
C      1  0.5090020000000  0.5524990000000  0.5609160000000 1.0
C      1  0.5095770000000  0.4204820000000  0.5140170000000 1.0
C      1  0.4825790000000  0.5254550000000  0.4220420000000 1.0
C      1  0.4809640000000  0.5551390000000  0.5593740000000 1.0
C      1  0.4816320000000  0.4210980000000  0.5168690000000 1.0
C      1  0.5727600000000  0.5387400000000  0.4811100000000 1.0
C      1  0.5775690000000  0.4968900000000  0.5478380000000 1.0
C      1  0.5739960000000  0.4642790000000  0.4719270000000 1.0
C      1  0.5522110000000  0.5593220000000  0.4802390000000 1.0
C      1  0.5544620000000  0.4892680000000  0.5657510000000 1.0
C      1  0.5532530000000  0.4499910000000  0.4564580000000 1.0
C      1  0.4439190000000  0.5472140000000  0.5433440000000 1.0
C      1  0.4442650000000  0.4381830000000  0.5184400000000 1.0
C      1  0.4454570000000  0.5152670000000  0.4369170000000 1.0
C      1  0.4573290000000  0.4500720000000  0.4565750000000 1.0
C      1  0.4568200000000  0.5621580000000  0.4780450000000 1.0
C      1  0.4568210000000  0.4882320000000  0.5643780000000 1.0
C      1  0.4229420000000  0.5109580000000  0.4572260000000 1.0
C      1  0.4217690000000  0.5324470000000  0.5299770000000 1.0
C      1  0.4240620000000  0.4588780000000  0.5114450000000 1.0
C      1  0.5200260000000  0.5607870000000  0.5345950000000 1.0
C      1  0.5188470000000  0.4394010000000  0.5354540000000 1.0
C      1  0.5238500000000  0.5045200000000  0.4351900000000 1.0
C      1  0.4428940000000  0.5639420000000  0.5013140000000 1.0
C      1  0.4427150000000  0.4667500000000  0.5542700000000 1.0
C      1  0.4438450000000  0.4703870000000  0.4434710000000 1.0
C      1  0.4282930000000  0.5234260000000  0.4825300000000 1.0
C      1  0.4296420000000  0.5042350000000  0.5313160000000 1.0
C      1  0.4337600000000  0.4718170000000  0.4867650000000 1.0
C      1  0.5816830000000  0.5141180000000  0.4993980000000 1.0
C      1  0.5828600000000  0.4898160000000  0.5197940000000 1.0
C      1  0.5741900000000  0.4933150000000  0.4761370000000 1.0
C      1  0.4631860000000  0.4921440000000  0.4360910000000 1.0
C      1  0.4627650000000  0.5585550000000  0.5231640000000 1.0
C      1  0.4619880000000  0.4490460000000  0.5395950000000 1.0
C      1  0.4228270000000  0.4821370000000  0.4615800000000 1.0
C      1  0.4208830000000  0.5425760000000  0.5026250000000 1.0
C      1  0.4219280000000  0.4761310000000  0.5345280000000 1.0
C      1  0.5671340000000  0.5315360000000  0.4533420000000 1.0
C      1  0.5694890000000  0.5252910000000  0.5504110000000 1.0
C      1  0.5712310000000  0.4444550000000  0.4931390000000 1.0
C      1  0.5394510000000  0.5119590000000  0.5230880000000 1.0
C      1  0.5431600000000  0.4718410000000  0.5052630000000 1.0
C      1  0.5289210000000  0.5064260000000  0.4768850000000 1.0
C      1  0.5238400000000  0.4781770000000  0.4849990000000 1.0
C      1  0.5296450000000  0.5254230000000  0.5003630000000 1.0
C      1  0.5322050000000  0.4847190000000  0.5282580000000 1.0
C      1  0.5096460000000  0.4471220000000  0.4412600000000 1.0
C      1  0.5093390000000  0.5787080000000  0.4847630000000 1.0
C      1  0.5095130000000  0.4745270000000  0.5760190000000 1.0
C      1  0.4951810000000  0.4999240000000  0.5001440000000 1.0
END
