TITL C-2441164-471-1149 0.000978240389331874 125000 -7625.67283346208 0 0 49 (C1) n - 1
REM
REM in /home/bkarasulu/work/CARBON/AIRSS/Generating-Clusters/ReaxFF-fromJPCA2015/Units_Real/with-SteepDescent/Higher-Symm
REM
REM
REM
REM
REM
REM ./C.cell (1df0a924f5614ab8850e4351716899ee)
REM
REM compiler GCC version 9.2.1 20190827 (Red Hat 9.2.1-1)
REM options -cpp -mtune=generic -march=x86-64 -g -O0 -fpre-include=/usr/include/finclude/math-vector-fortran.h
REM seed 575853318 26885119 -1727372996 -1601522067 1837332896 759045170 1313596803 1576141857 2076561704 -1074434154 -662838439 -1592820397 -328491006 -945517983 -391081075 -34602017 1697570578 -267206746 -1621693502 56533172 -606755857 396404228 -1710169211 -573467010 -903903118 506455680 2035858057 -1202714188 -90440356 246293883 632444382 545307569 1772796493
REM
CELL 1.54180   50.00000   50.00000   50.00000   90.00000   90.00000   90.00000
LATT -1
SFAC C  
C      1  0.4292140000000  0.5084520000000  0.5293860000000 1.0
C      1  0.4327790000000  0.5082120000000  0.4636440000000 1.0
C      1  0.4846590000000  0.5068670000000  0.4249350000000 1.0
C      1  0.5513040000000  0.5084330000000  0.4466280000000 1.0
C      1  0.5769910000000  0.5038200000000  0.5088590000000 1.0
C      1  0.5472560000000  0.5090240000000  0.5519050000000 1.0
C      1  0.4769540000000  0.5088180000000  0.5741260000000 1.0
C      1  0.4675890000000  0.4515750000000  0.4978210000000 1.0
C      1  0.4813040000000  0.4512670000000  0.4731910000000 1.0
C      1  0.5091630000000  0.4515770000000  0.4685150000000 1.0
C      1  0.5301600000000  0.4505650000000  0.4873300000000 1.0
C      1  0.5284530000000  0.4499550000000  0.5153880000000 1.0
C      1  0.5056450000000  0.4528930000000  0.5315050000000 1.0
C      1  0.4784860000000  0.4523390000000  0.5238650000000 1.0
C      1  0.5421560000000  0.4811150000000  0.4542300000000 1.0
C      1  0.5637230000000  0.4784980000000  0.5034980000000 1.0
C      1  0.5372390000000  0.4823790000000  0.5480210000000 1.0
C      1  0.4834040000000  0.4840180000000  0.5580910000000 1.0
C      1  0.4428050000000  0.4824950000000  0.5228280000000 1.0
C      1  0.4460970000000  0.4819240000000  0.4693080000000 1.0
C      1  0.4899400000000  0.4811150000000  0.4383470000000 1.0
C      1  0.4269300000000  0.5191550000000  0.4889380000000 1.0
C      1  0.4624210000000  0.5193430000000  0.4361800000000 1.0
C      1  0.5292240000000  0.5217210000000  0.4356490000000 1.0
C      1  0.5707340000000  0.5275540000000  0.4920690000000 1.0
C      1  0.5666230000000  0.5188100000000  0.5324800000000 1.0
C      1  0.5034060000000  0.5178470000000  0.5732430000000 1.0
C      1  0.4445780000000  0.5196710000000  0.5501330000000 1.0
C      1  0.4517630000000  0.5322070000000  0.4583640000000 1.0
C      1  0.5027420000000  0.5297780000000  0.4353800000000 1.0
C      1  0.5517690000000  0.5276920000000  0.4698870000000 1.0
C      1  0.5575640000000  0.5392950000000  0.5144460000000 1.0
C      1  0.5245460000000  0.5275300000000  0.5574780000000 1.0
C      1  0.4683430000000  0.5326350000000  0.5563480000000 1.0
C      1  0.4372450000000  0.5322050000000  0.5110950000000 1.0
C      1  0.5508090000000  0.4688990000000  0.4789980000000 1.0
C      1  0.5485090000000  0.4674580000000  0.5256130000000 1.0
C      1  0.5095910000000  0.4730670000000  0.5515020000000 1.0
C      1  0.4641290000000  0.4718890000000  0.5394600000000 1.0
C      1  0.4459570000000  0.4707840000000  0.4962380000000 1.0
C      1  0.4688170000000  0.4702110000000  0.4553220000000 1.0
C      1  0.5155590000000  0.4707870000000  0.4479640000000 1.0
C      1  0.4747480000000  0.5365850000000  0.4782030000000 1.0
C      1  0.5009050000000  0.5339620000000  0.4659580000000 1.0
C      1  0.5255840000000  0.5342140000000  0.4811320000000 1.0
C      1  0.5298140000000  0.5398140000000  0.5092680000000 1.0
C      1  0.5117950000000  0.5368080000000  0.5313960000000 1.0
C      1  0.4833970000000  0.5372680000000  0.5297870000000 1.0
C      1  0.4671770000000  0.5374700000000  0.5060460000000 1.0
END
