TITL C-2441165-58-1432 0.093520102636563 125000 -26359.2630375354 0 0 192 (C1) n - 1
REM
REM in /home/bkarasulu/work/CARBON/AIRSS/Generating-Clusters/ReaxFF-fromJPCA2015/Units_Real/with-SteepDescent/Higher-Symm
REM
REM
REM
REM
REM
REM ./C.cell (1df0a924f5614ab8850e4351716899ee)
REM
REM compiler GCC version 9.2.1 20190827 (Red Hat 9.2.1-1)
REM options -cpp -mtune=generic -march=x86-64 -g -O0 -fpre-include=/usr/include/finclude/math-vector-fortran.h
REM seed -39961606 575923660 -91654208 741310987 -112260229 39048423 -185419676 -1684390151 1478206299 -880376536 1759505328 2053674587 -325168380 -1850930348 1827040105 1115351166 199553584 1315698973 -817653693 -1195607897 -143739196 -1524863625 1990497314 -131278636 -689442072 1270629488 699688305 -1675044468 -1544286746 1328703520 758905703 886918557 -1069353497
REM
CELL 1.54180   50.00000   50.00000   50.00000   90.00000   90.00000   90.00000
LATT -1
SFAC C  
C      1  0.5412660000000  0.5843910000000  0.5657500000000 1.0
C      1  0.5360160000000  0.5126580000000  0.3953260000000 1.0
C      1  0.5353830000000  0.4000280000000  0.5405400000000 1.0
C      1  0.5618150000000  0.5349250000000  0.4228880000000 1.0
C      1  0.5591850000000  0.4130950000000  0.5091700000000 1.0
C      1  0.5629210000000  0.5465860000000  0.5721560000000 1.0
C      1  0.4523860000000  0.5482520000000  0.4343900000000 1.0
C      1  0.4452540000000  0.4156180000000  0.4887790000000 1.0
C      1  0.4456290000000  0.5314970000000  0.5805260000000 1.0
C      1  0.5063490000000  0.5109100000000  0.6101040000000 1.0
C      1  0.5070980000000  0.5914030000000  0.4341960000000 1.0
C      1  0.5029170000000  0.3985760000000  0.4519920000000 1.0
C      1  0.5837480000000  0.5075430000000  0.5828880000000 1.0
C      1  0.5800230000000  0.5686170000000  0.4507920000000 1.0
C      1  0.5816260000000  0.4214870000000  0.4607570000000 1.0
C      1  0.3927200000000  0.5018630000000  0.5427690000000 1.0
C      1  0.3935890000000  0.5363990000000  0.4784080000000 1.0
C      1  0.3918510000000  0.4631720000000  0.4804550000000 1.0
C      1  0.5258870000000  0.6119720000000  0.5270210000000 1.0
C      1  0.5299920000000  0.4646610000000  0.3883200000000 1.0
C      1  0.5334900000000  0.4199340000000  0.5891270000000 1.0
C      1  0.5407720000000  0.5727750000000  0.5382120000000 1.0
C      1  0.5482670000000  0.4975210000000  0.4174220000000 1.0
C      1  0.5442420000000  0.4280230000000  0.5430910000000 1.0
C      1  0.5190050000000  0.5103250000000  0.5375280000000 1.0
C      1  0.5178770000000  0.5318120000000  0.4726070000000 1.0
C      1  0.5171100000000  0.4761740000000  0.4908210000000 1.0
C      1  0.4925140000000  0.4359000000000  0.4229290000000 1.0
C      1  0.4934270000000  0.4641650000000  0.5932990000000 1.0
C      1  0.4891710000000  0.5985280000000  0.4856120000000 1.0
C      1  0.4306630000000  0.5071270000000  0.4903580000000 1.0
C      1  0.4347880000000  0.4659740000000  0.4954490000000 1.0
C      1  0.4312660000000  0.5170550000000  0.5175040000000 1.0
C      1  0.4296790000000  0.5745040000000  0.5557540000000 1.0
C      1  0.4404150000000  0.5143010000000  0.4068000000000 1.0
C      1  0.4393800000000  0.4133970000000  0.5347580000000 1.0
C      1  0.5304470000000  0.4052150000000  0.5132620000000 1.0
C      1  0.5443350000000  0.5631370000000  0.5841970000000 1.0
C      1  0.5366040000000  0.5383550000000  0.4065850000000 1.0
C      1  0.5209090000000  0.4638410000000  0.6039560000000 1.0
C      1  0.5148760000000  0.6087570000000  0.4751790000000 1.0
C      1  0.5189830000000  0.4224460000000  0.4160010000000 1.0
C      1  0.4857040000000  0.4557880000000  0.4011900000000 1.0
C      1  0.4833900000000  0.4375640000000  0.5885670000000 1.0
C      1  0.4834260000000  0.6022590000000  0.5139150000000 1.0
C      1  0.4422890000000  0.4468240000000  0.4172210000000 1.0
C      1  0.4434390000000  0.4566630000000  0.5872900000000 1.0
C      1  0.4423860000000  0.5988010000000  0.4928190000000 1.0
C      1  0.5654750000000  0.5286030000000  0.5931840000000 1.0
C      1  0.5610610000000  0.5586900000000  0.4328070000000 1.0
C      1  0.5732810000000  0.4104230000000  0.4851530000000 1.0
C      1  0.4089570000000  0.5510150000000  0.4571810000000 1.0
C      1  0.4046220000000  0.4375690000000  0.4755210000000 1.0
C      1  0.4069160000000  0.5079750000000  0.5679430000000 1.0
C      1  0.5033600000000  0.5950150000000  0.5325600000000 1.0
C      1  0.5061290000000  0.4740680000000  0.3974720000000 1.0
C      1  0.5048390000000  0.4191540000000  0.5818670000000 1.0
C      1  0.4547970000000  0.5117260000000  0.6002310000000 1.0
C      1  0.4540650000000  0.5807460000000  0.4442840000000 1.0
C      1  0.4480010000000  0.4105450000000  0.4606120000000 1.0
C      1  0.5275600000000  0.5907170000000  0.4554080000000 1.0
C      1  0.5265810000000  0.4113590000000  0.4409730000000 1.0
C      1  0.5227250000000  0.4913690000000  0.5988670000000 1.0
C      1  0.5538000000000  0.4498930000000  0.4688780000000 1.0
C      1  0.5389930000000  0.4930900000000  0.5749710000000 1.0
C      1  0.5245160000000  0.5651910000000  0.4749820000000 1.0
C      1  0.5772590000000  0.5454050000000  0.5475510000000 1.0
C      1  0.5818700000000  0.5131700000000  0.4345600000000 1.0
C      1  0.5784550000000  0.4353760000000  0.5210700000000 1.0
C      1  0.5913620000000  0.5008230000000  0.5556900000000 1.0
C      1  0.5979380000000  0.5492110000000  0.4665070000000 1.0
C      1  0.5965270000000  0.4451040000000  0.4721210000000 1.0
C      1  0.4586730000000  0.5337660000000  0.5253170000000 1.0
C      1  0.4572770000000  0.5133870000000  0.4770800000000 1.0
C      1  0.4633360000000  0.4704040000000  0.4981420000000 1.0
C      1  0.5114050000000  0.5649980000000  0.5349990000000 1.0
C      1  0.5030120000000  0.4942040000000  0.4173700000000 1.0
C      1  0.5017960000000  0.4239500000000  0.5532750000000 1.0
C      1  0.4081540000000  0.4741740000000  0.5024000000000 1.0
C      1  0.4038400000000  0.5231350000000  0.5259660000000 1.0
C      1  0.4040410000000  0.5093160000000  0.4771080000000 1.0
C      1  0.5438460000000  0.5001760000000  0.5256050000000 1.0
C      1  0.5397630000000  0.5197030000000  0.4869580000000 1.0
C      1  0.5390450000000  0.4926510000000  0.4968670000000 1.0
C      1  0.4751750000000  0.4811410000000  0.5222430000000 1.0
C      1  0.4698930000000  0.5235420000000  0.4998240000000 1.0
C      1  0.4708430000000  0.4869130000000  0.4735640000000 1.0
C      1  0.4230890000000  0.4357980000000  0.5293050000000 1.0
C      1  0.4160340000000  0.5661060000000  0.5327010000000 1.0
C      1  0.4240170000000  0.5074080000000  0.4302370000000 1.0
C      1  0.4089200000000  0.5679290000000  0.5080920000000 1.0
C      1  0.4125360000000  0.4817450000000  0.4394500000000 1.0
C      1  0.4160210000000  0.4576190000000  0.5456510000000 1.0
C      1  0.4539770000000  0.4022140000000  0.5119650000000 1.0
C      1  0.4468310000000  0.5602290000000  0.5760630000000 1.0
C      1  0.4562940000000  0.5389380000000  0.4066690000000 1.0
C      1  0.4808180000000  0.3945220000000  0.5194920000000 1.0
C      1  0.4950250000000  0.5735850000000  0.5805980000000 1.0
C      1  0.4840120000000  0.5361610000000  0.3976960000000 1.0
C      1  0.4832160000000  0.5074680000000  0.4008620000000 1.0
C      1  0.4811900000000  0.4049530000000  0.5462470000000 1.0
C      1  0.4698480000000  0.5787380000000  0.5696690000000 1.0
C      1  0.4954810000000  0.4521920000000  0.5487190000000 1.0
C      1  0.4952540000000  0.5551150000000  0.5114790000000 1.0
C      1  0.4956140000000  0.4785420000000  0.4438500000000 1.0
C      1  0.6000820000000  0.4702420000000  0.5490290000000 1.0
C      1  0.6034760000000  0.5540930000000  0.4946420000000 1.0
C      1  0.6020430000000  0.4699620000000  0.4565320000000 1.0
C      1  0.4566250000000  0.4152340000000  0.5570410000000 1.0
C      1  0.4523180000000  0.5919880000000  0.5496710000000 1.0
C      1  0.4580750000000  0.4937420000000  0.3983910000000 1.0
C      1  0.5044100000000  0.5231030000000  0.4461520000000 1.0
C      1  0.5140970000000  0.4533920000000  0.5077670000000 1.0
C      1  0.5074100000000  0.5362700000000  0.5468760000000 1.0
C      1  0.4223840000000  0.5770030000000  0.4574910000000 1.0
C      1  0.4213260000000  0.4312970000000  0.4540270000000 1.0
C      1  0.4175610000000  0.4883210000000  0.5856470000000 1.0
C      1  0.4997230000000  0.4871990000000  0.4716180000000 1.0
C      1  0.4977710000000  0.4995610000000  0.5196800000000 1.0
C      1  0.4984950000000  0.5229970000000  0.5011510000000 1.0
C      1  0.5860780000000  0.4827530000000  0.4331720000000 1.0
C      1  0.5800570000000  0.4496270000000  0.5488450000000 1.0
C      1  0.5830130000000  0.5708060000000  0.5055280000000 1.0
C      1  0.5400730000000  0.4870160000000  0.4433780000000 1.0
C      1  0.5327900000000  0.4519870000000  0.5313620000000 1.0
C      1  0.5645690000000  0.5563240000000  0.5235450000000 1.0
C      1  0.4704670000000  0.4568780000000  0.5361240000000 1.0
C      1  0.4677950000000  0.5604760000000  0.5189410000000 1.0
C      1  0.4654350000000  0.4756100000000  0.4468510000000 1.0
C      1  0.4796390000000  0.4986730000000  0.5594140000000 1.0
C      1  0.4755850000000  0.5515430000000  0.4715790000000 1.0
C      1  0.4874420000000  0.4423330000000  0.4707920000000 1.0
C      1  0.5090470000000  0.5489770000000  0.4056360000000 1.0
C      1  0.5050480000000  0.3954810000000  0.5042020000000 1.0
C      1  0.5144830000000  0.5596290000000  0.5936840000000 1.0
C      1  0.5317500000000  0.6072890000000  0.4982030000000 1.0
C      1  0.5372300000000  0.4429370000000  0.4063540000000 1.0
C      1  0.5422990000000  0.4473550000000  0.5927300000000 1.0
C      1  0.3948080000000  0.4855810000000  0.4615800000000 1.0
C      1  0.4000330000000  0.4762780000000  0.5306830000000 1.0
C      1  0.3925580000000  0.5435300000000  0.5069790000000 1.0
C      1  0.5671470000000  0.5864930000000  0.4874490000000 1.0
C      1  0.5671090000000  0.4629040000000  0.4248650000000 1.0
C      1  0.5575600000000  0.4565320000000  0.5687440000000 1.0
C      1  0.5033710000000  0.4502360000000  0.4471920000000 1.0
C      1  0.4981880000000  0.4762500000000  0.5660910000000 1.0
C      1  0.4978370000000  0.5682640000000  0.4853780000000 1.0
C      1  0.5998450000000  0.5223590000000  0.4544120000000 1.0
C      1  0.5977650000000  0.4446440000000  0.5023830000000 1.0
C      1  0.5982230000000  0.5276980000000  0.5411780000000 1.0
C      1  0.4784280000000  0.5881970000000  0.4299230000000 1.0
C      1  0.4744920000000  0.3979910000000  0.4591070000000 1.0
C      1  0.4793410000000  0.5208710000000  0.6120580000000 1.0
C      1  0.5613160000000  0.4990670000000  0.5919660000000 1.0
C      1  0.5612560000000  0.5888800000000  0.4590160000000 1.0
C      1  0.5502820000000  0.4258590000000  0.4545070000000 1.0
C      1  0.4603730000000  0.5934890000000  0.4709340000000 1.0
C      1  0.4596080000000  0.4292510000000  0.4330240000000 1.0
C      1  0.4570510000000  0.4830770000000  0.5910300000000 1.0
C      1  0.5394330000000  0.4589530000000  0.4316000000000 1.0
C      1  0.5350780000000  0.4701750000000  0.5551290000000 1.0
C      1  0.5402030000000  0.5795870000000  0.4945960000000 1.0
C      1  0.4274230000000  0.4372080000000  0.4982770000000 1.0
C      1  0.4344340000000  0.5157970000000  0.5581140000000 1.0
C      1  0.4267970000000  0.5340270000000  0.4419360000000 1.0
C      1  0.4586700000000  0.5890970000000  0.5204250000000 1.0
C      1  0.4601250000000  0.4670570000000  0.4076870000000 1.0
C      1  0.4613950000000  0.4413110000000  0.5687660000000 1.0
C      1  0.4495420000000  0.5587520000000  0.4808640000000 1.0
C      1  0.4630890000000  0.4484310000000  0.4550340000000 1.0
C      1  0.4516160000000  0.4922230000000  0.5626690000000 1.0
C      1  0.6067280000000  0.4957890000000  0.4680430000000 1.0
C      1  0.6081370000000  0.4664980000000  0.5210370000000 1.0
C      1  0.6043150000000  0.5304530000000  0.5131680000000 1.0
C      1  0.4865010000000  0.4479830000000  0.4992710000000 1.0
C      1  0.4813510000000  0.5256160000000  0.5489260000000 1.0
C      1  0.4749000000000  0.5297710000000  0.4510530000000 1.0
C      1  0.5466500000000  0.6006340000000  0.5435660000000 1.0
C      1  0.5480410000000  0.4870510000000  0.3907160000000 1.0
C      1  0.5474340000000  0.4097420000000  0.5656470000000 1.0
C      1  0.4177170000000  0.5878120000000  0.4838390000000 1.0
C      1  0.4202320000000  0.4527590000000  0.4346160000000 1.0
C      1  0.4174180000000  0.4615760000000  0.5758330000000 1.0
C      1  0.5821300000000  0.4935200000000  0.4858080000000 1.0
C      1  0.5851700000000  0.4828510000000  0.5128540000000 1.0
C      1  0.5811200000000  0.5203710000000  0.4980260000000 1.0
C      1  0.5586750000000  0.5342490000000  0.5021030000000 1.0
C      1  0.5547650000000  0.4787020000000  0.4689670000000 1.0
C      1  0.5695800000000  0.4943120000000  0.5335540000000 1.0
C      1  0.5002750000000  0.5341350000000  0.5980880000000 1.0
C      1  0.4988420000000  0.5690880000000  0.4225060000000 1.0
C      1  0.4951520000000  0.3991430000000  0.4781910000000 1.0
END
