TITL C-2441162-9305-390 0.101763392073667 125000 -24572.5450991408 0 0 178 (C1) n - 1
REM
REM in /home/bkarasulu/work/CARBON/AIRSS/Generating-Clusters/ReaxFF-fromJPCA2015/Units_Real/with-SteepDescent/Higher-Symm
REM
REM
REM
REM
REM
REM ./C.cell (1df0a924f5614ab8850e4351716899ee)
REM
REM compiler GCC version 9.2.1 20190827 (Red Hat 9.2.1-1)
REM options -cpp -mtune=generic -march=x86-64 -g -O0 -fpre-include=/usr/include/finclude/math-vector-fortran.h
REM seed -1884364645 -848373955 -1607243355 1374690598 -242476143 -1361131390 252540707 1553595096 -637733944 -1332843341 -443018235 783564916 544869359 -234795527 -729352624 -1276272912 1631378301 591982063 -1140687020 -1295338045 -437628914 -327915235 1106808814 1398876519 1306735431 -60141751 1180852591 1132912539 -614884351 -489996289 -2131884550 1843490014 -1833396655
REM
CELL 1.54180   50.00000   50.00000   50.00000   90.00000   90.00000   90.00000
LATT -1
SFAC C  
C      1  0.5154800000000  0.5918870000000  0.5590140000000 1.0
C      1  0.5160420000000  0.4100600000000  0.4374860000000 1.0
C      1  0.4876630000000  0.5883020000000  0.5606110000000 1.0
C      1  0.4874300000000  0.4119790000000  0.4387940000000 1.0
C      1  0.5155910000000  0.4098570000000  0.5603500000000 1.0
C      1  0.5162450000000  0.5920280000000  0.4366830000000 1.0
C      1  0.4872870000000  0.4121220000000  0.5599960000000 1.0
C      1  0.4867870000000  0.5870070000000  0.4380180000000 1.0
C      1  0.4476530000000  0.5700940000000  0.4363740000000 1.0
C      1  0.4453790000000  0.4274230000000  0.5626270000000 1.0
C      1  0.5558630000000  0.5749750000000  0.4322910000000 1.0
C      1  0.5544650000000  0.4271440000000  0.5632820000000 1.0
C      1  0.4466140000000  0.4270860000000  0.4370050000000 1.0
C      1  0.4465450000000  0.5721420000000  0.5631470000000 1.0
C      1  0.5554610000000  0.4266310000000  0.4342980000000 1.0
C      1  0.5530760000000  0.5735100000000  0.5641400000000 1.0
C      1  0.5432650000000  0.4835040000000  0.4868300000000 1.0
C      1  0.5451810000000  0.5096900000000  0.5185710000000 1.0
C      1  0.4613110000000  0.4876740000000  0.4878360000000 1.0
C      1  0.4476420000000  0.5151880000000  0.5146300000000 1.0
C      1  0.5444300000000  0.5123250000000  0.4894660000000 1.0
C      1  0.5430230000000  0.4728950000000  0.5142900000000 1.0
C      1  0.4492450000000  0.5138750000000  0.4840690000000 1.0
C      1  0.4513300000000  0.4871930000000  0.5148580000000 1.0
C      1  0.4262760000000  0.5505360000000  0.4400780000000 1.0
C      1  0.4247870000000  0.4474040000000  0.5583870000000 1.0
C      1  0.5754500000000  0.5535430000000  0.4384330000000 1.0
C      1  0.5744690000000  0.4468170000000  0.5593360000000 1.0
C      1  0.4263670000000  0.4470210000000  0.4414740000000 1.0
C      1  0.4253450000000  0.5526620000000  0.5585640000000 1.0
C      1  0.5769420000000  0.4461780000000  0.4392170000000 1.0
C      1  0.5738150000000  0.5540100000000  0.5590500000000 1.0
C      1  0.5135060000000  0.4699430000000  0.6114740000000 1.0
C      1  0.5129040000000  0.5315850000000  0.3827800000000 1.0
C      1  0.4860180000000  0.4755910000000  0.6084270000000 1.0
C      1  0.4880240000000  0.5336940000000  0.3819240000000 1.0
C      1  0.5165610000000  0.5326920000000  0.6192470000000 1.0
C      1  0.5131100000000  0.4706350000000  0.3847120000000 1.0
C      1  0.4884930000000  0.5301190000000  0.6128650000000 1.0
C      1  0.4909630000000  0.4667110000000  0.3915350000000 1.0
C      1  0.4123870000000  0.5561080000000  0.5320080000000 1.0
C      1  0.4129920000000  0.4425670000000  0.4669150000000 1.0
C      1  0.5851830000000  0.5564820000000  0.5318940000000 1.0
C      1  0.5865510000000  0.4440470000000  0.4677370000000 1.0
C      1  0.4119520000000  0.4446750000000  0.5320360000000 1.0
C      1  0.4137420000000  0.5549760000000  0.4659520000000 1.0
C      1  0.5872560000000  0.4433530000000  0.5328560000000 1.0
C      1  0.5872060000000  0.5565080000000  0.4657380000000 1.0
C      1  0.4863480000000  0.3858780000000  0.4844920000000 1.0
C      1  0.4850580000000  0.6141610000000  0.5145730000000 1.0
C      1  0.5164310000000  0.3881250000000  0.4846130000000 1.0
C      1  0.5135170000000  0.6173300000000  0.5147190000000 1.0
C      1  0.4845130000000  0.6124580000000  0.4847410000000 1.0
C      1  0.4859170000000  0.3856630000000  0.5145120000000 1.0
C      1  0.5152160000000  0.6098540000000  0.4840560000000 1.0
C      1  0.5144880000000  0.3828820000000  0.5154920000000 1.0
C      1  0.4316580000000  0.5750860000000  0.5191610000000 1.0
C      1  0.4310600000000  0.4235230000000  0.4800900000000 1.0
C      1  0.5674090000000  0.5759840000000  0.5192430000000 1.0
C      1  0.5690200000000  0.4222950000000  0.4775560000000 1.0
C      1  0.4292660000000  0.4234120000000  0.5193300000000 1.0
C      1  0.4329140000000  0.5730570000000  0.4791750000000 1.0
C      1  0.5687140000000  0.4261060000000  0.5185460000000 1.0
C      1  0.5689820000000  0.5767990000000  0.4772670000000 1.0
C      1  0.5912570000000  0.5340680000000  0.4839110000000 1.0
C      1  0.5948210000000  0.4662270000000  0.5165790000000 1.0
C      1  0.4041350000000  0.5349060000000  0.4845810000000 1.0
C      1  0.4054830000000  0.4659490000000  0.5130460000000 1.0
C      1  0.5926080000000  0.4658870000000  0.4863190000000 1.0
C      1  0.5899720000000  0.5342190000000  0.5134690000000 1.0
C      1  0.4047740000000  0.4647960000000  0.4832690000000 1.0
C      1  0.4034870000000  0.5345190000000  0.5144770000000 1.0
C      1  0.4719440000000  0.6013420000000  0.4610400000000 1.0
C      1  0.4722190000000  0.3985860000000  0.5377780000000 1.0
C      1  0.5310330000000  0.6067560000000  0.4572400000000 1.0
C      1  0.5284050000000  0.3948500000000  0.5390170000000 1.0
C      1  0.4731900000000  0.3980050000000  0.4611110000000 1.0
C      1  0.4724170000000  0.6017630000000  0.5388860000000 1.0
C      1  0.5304200000000  0.3946460000000  0.4576490000000 1.0
C      1  0.5285450000000  0.6068130000000  0.5381030000000 1.0
C      1  0.5128230000000  0.4808780000000  0.5600720000000 1.0
C      1  0.5190260000000  0.5251150000000  0.4518570000000 1.0
C      1  0.4922930000000  0.4901570000000  0.5439980000000 1.0
C      1  0.4899700000000  0.5183740000000  0.4466900000000 1.0
C      1  0.5117010000000  0.5227490000000  0.5570150000000 1.0
C      1  0.5103930000000  0.4781960000000  0.4450920000000 1.0
C      1  0.4814400000000  0.5160300000000  0.5523600000000 1.0
C      1  0.4825730000000  0.4904870000000  0.4437890000000 1.0
C      1  0.4723720000000  0.4591830000000  0.4112720000000 1.0
C      1  0.4742140000000  0.5395960000000  0.5876770000000 1.0
C      1  0.5283500000000  0.4641800000000  0.4071930000000 1.0
C      1  0.5278740000000  0.5355710000000  0.5935640000000 1.0
C      1  0.4734370000000  0.5361980000000  0.4076880000000 1.0
C      1  0.4734680000000  0.4612030000000  0.5832210000000 1.0
C      1  0.5215930000000  0.5338190000000  0.4106490000000 1.0
C      1  0.5333920000000  0.4607790000000  0.5951890000000 1.0
C      1  0.4206860000000  0.5147050000000  0.5272360000000 1.0
C      1  0.4076230000000  0.4882220000000  0.4666770000000 1.0
C      1  0.5737340000000  0.5127940000000  0.5255190000000 1.0
C      1  0.5727200000000  0.4838310000000  0.4755970000000 1.0
C      1  0.4235830000000  0.4846830000000  0.5262670000000 1.0
C      1  0.4207630000000  0.5127120000000  0.4755490000000 1.0
C      1  0.5899790000000  0.4894920000000  0.5327690000000 1.0
C      1  0.5793310000000  0.5114460000000  0.4691140000000 1.0
C      1  0.5692780000000  0.5295410000000  0.5754720000000 1.0
C      1  0.5667700000000  0.4711970000000  0.4266170000000 1.0
C      1  0.4307690000000  0.5276730000000  0.5720090000000 1.0
C      1  0.4315480000000  0.4726500000000  0.4306230000000 1.0
C      1  0.5693530000000  0.4723180000000  0.5711340000000 1.0
C      1  0.5697340000000  0.5274250000000  0.4270740000000 1.0
C      1  0.4282860000000  0.4719360000000  0.5745200000000 1.0
C      1  0.4296310000000  0.5286620000000  0.4214340000000 1.0
C      1  0.5438730000000  0.4383190000000  0.4807920000000 1.0
C      1  0.5460830000000  0.5585100000000  0.5073840000000 1.0
C      1  0.4502060000000  0.4454360000000  0.4849180000000 1.0
C      1  0.4517390000000  0.5543420000000  0.5121750000000 1.0
C      1  0.5478720000000  0.5562240000000  0.4785750000000 1.0
C      1  0.5555640000000  0.4488290000000  0.5045990000000 1.0
C      1  0.4524320000000  0.5529440000000  0.4852030000000 1.0
C      1  0.4490640000000  0.4446410000000  0.5121640000000 1.0
C      1  0.5411240000000  0.5152060000000  0.5771220000000 1.0
C      1  0.5378430000000  0.4857010000000  0.4249320000000 1.0
C      1  0.4603700000000  0.5154320000000  0.5749150000000 1.0
C      1  0.4593060000000  0.4853720000000  0.4251480000000 1.0
C      1  0.5413250000000  0.4843130000000  0.5777820000000 1.0
C      1  0.5417910000000  0.5161270000000  0.4256310000000 1.0
C      1  0.4552410000000  0.4827170000000  0.5802740000000 1.0
C      1  0.4525350000000  0.5150600000000  0.4150660000000 1.0
C      1  0.4760650000000  0.5456090000000  0.5277220000000 1.0
C      1  0.4765400000000  0.4520110000000  0.4752260000000 1.0
C      1  0.5192300000000  0.5489320000000  0.5492660000000 1.0
C      1  0.5205400000000  0.4522500000000  0.4560560000000 1.0
C      1  0.4736780000000  0.4491280000000  0.5257140000000 1.0
C      1  0.4780280000000  0.5460270000000  0.4733970000000 1.0
C      1  0.5194630000000  0.4551830000000  0.5536940000000 1.0
C      1  0.5257950000000  0.5540880000000  0.4592160000000 1.0
C      1  0.5567780000000  0.4062810000000  0.4553710000000 1.0
C      1  0.5537950000000  0.5913830000000  0.5407010000000 1.0
C      1  0.4464700000000  0.4086550000000  0.4593410000000 1.0
C      1  0.4460620000000  0.5904940000000  0.5401720000000 1.0
C      1  0.5566590000000  0.5939540000000  0.4549500000000 1.0
C      1  0.5531780000000  0.4106170000000  0.5397330000000 1.0
C      1  0.4460990000000  0.5895210000000  0.4585700000000 1.0
C      1  0.4454340000000  0.4088490000000  0.5397000000000 1.0
C      1  0.4885120000000  0.4287570000000  0.5127380000000 1.0
C      1  0.4885250000000  0.5699610000000  0.4875430000000 1.0
C      1  0.5159750000000  0.4300350000000  0.5165240000000 1.0
C      1  0.5144900000000  0.5781200000000  0.4838130000000 1.0
C      1  0.4918490000000  0.5675700000000  0.5156360000000 1.0
C      1  0.4914270000000  0.4292580000000  0.4842680000000 1.0
C      1  0.5198950000000  0.5716110000000  0.5121340000000 1.0
C      1  0.5200110000000  0.4221700000000  0.4889500000000 1.0
C      1  0.5904480000000  0.5122600000000  0.5747650000000 1.0
C      1  0.5875530000000  0.4847260000000  0.4325900000000 1.0
C      1  0.4088090000000  0.5116300000000  0.5745520000000 1.0
C      1  0.4102890000000  0.4883220000000  0.4378880000000 1.0
C      1  0.5934350000000  0.4872400000000  0.5630020000000 1.0
C      1  0.5904880000000  0.5111870000000  0.4397970000000 1.0
C      1  0.4051270000000  0.4887950000000  0.5758170000000 1.0
C      1  0.4138050000000  0.5128890000000  0.4293510000000 1.0
C      1  0.5195200000000  0.5180960000000  0.4781990000000 1.0
C      1  0.5191870000000  0.4577700000000  0.5252210000000 1.0
C      1  0.4948110000000  0.5261470000000  0.4880900000000 1.0
C      1  0.4917600000000  0.4713100000000  0.5203230000000 1.0
C      1  0.5167540000000  0.4758030000000  0.4726230000000 1.0
C      1  0.5196140000000  0.5263130000000  0.5297680000000 1.0
C      1  0.4885460000000  0.4760440000000  0.4889380000000 1.0
C      1  0.4944810000000  0.5260440000000  0.5153440000000 1.0
C      1  0.4717330000000  0.4327820000000  0.4240440000000 1.0
C      1  0.4719480000000  0.5662300000000  0.5760090000000 1.0
C      1  0.5279390000000  0.4383630000000  0.4303930000000 1.0
C      1  0.5272750000000  0.5608580000000  0.5735930000000 1.0
C      1  0.4728150000000  0.5660420000000  0.4249000000000 1.0
C      1  0.4711790000000  0.4330860000000  0.5744860000000 1.0
C      1  0.5279740000000  0.5648720000000  0.4302230000000 1.0
C      1  0.5295010000000  0.4365610000000  0.5731410000000 1.0
C      1  0.4958580000000  0.5235930000000  0.4193730000000 1.0
C      1  0.4929060000000  0.5031960000000  0.6041790000000 1.0
END
