TITL C-2441163-1170-1165 6.06060860656344e-07 125000 -2450.21686980973 0 0 21 (C2) n - 1
REM
REM in /home/bkarasulu/work/CARBON/AIRSS/Generating-Clusters/ReaxFF-fromJPCA2015/Units_Real/with-SteepDescent/Higher-Symm
REM
REM
REM
REM
REM
REM ./C.cell (1df0a924f5614ab8850e4351716899ee)
REM
REM compiler GCC version 9.2.1 20190827 (Red Hat 9.2.1-1)
REM options -cpp -mtune=generic -march=x86-64 -g -O0 -fpre-include=/usr/include/finclude/math-vector-fortran.h
REM seed 1828467722 1035745393 582680915 -788445380 -1299579957 -730111521 -1194783972 -1576217109 1949498104 1488665003 -1191151951 226425322 906481514 1309256570 392863085 1273513458 -1069427596 -1278754770 -358714528 -60649554 -1920000574 -646706606 1427533300 -1501277119 958484654 -1896111737 -1186056125 -820251195 -294278373 -588707664 1000104623 2076493434 1813802488
REM
CELL 1.54180   50.00000   50.00000   50.00000   90.00000   90.00000   90.00000
LATT -1
SFAC C  
C      1  0.4765010000000  0.4736730000000  0.4672130000000 1.0
C      1  0.4782550000000  0.4876470000000  0.5367740000000 1.0
C      1  0.4784720000000  0.5348450000000  0.4926770000000 1.0
C      1  0.5251580000000  0.4763490000000  0.4710980000000 1.0
C      1  0.5269070000000  0.4853510000000  0.5413530000000 1.0
C      1  0.5260710000000  0.5350470000000  0.4916690000000 1.0
C      1  0.4784030000000  0.5236500000000  0.4710980000000 1.0
C      1  0.4766550000000  0.5146510000000  0.5413530000000 1.0
C      1  0.4774910000000  0.4649530000000  0.4916710000000 1.0
C      1  0.5270600000000  0.5263250000000  0.4672120000000 1.0
C      1  0.5253060000000  0.5123540000000  0.5367730000000 1.0
C      1  0.5250900000000  0.4651540000000  0.4926780000000 1.0
C      1  0.4588930000000  0.5030470000000  0.5218070000000 1.0
C      1  0.5446690000000  0.4969540000000  0.5218060000000 1.0
C      1  0.4568600000000  0.5132840000000  0.4910430000000 1.0
C      1  0.5457070000000  0.5157190000000  0.4854310000000 1.0
C      1  0.4578550000000  0.4842800000000  0.4854330000000 1.0
C      1  0.5467010000000  0.4867150000000  0.4910420000000 1.0
C      1  0.5026060000000  0.4566510000000  0.4741180000000 1.0
C      1  0.5009560000000  0.5433480000000  0.4741170000000 1.0
C      1  0.5017810000000  0.5000010000000  0.5536350000000 1.0
END
