TITL C-2441161-5029-801 0.161733011142872 125000 -25019.5492229522 0 0 198 (C1) n - 1
REM
REM in /home/bkarasulu/work/CARBON/AIRSS/Generating-Clusters/ReaxFF-fromJPCA2015/Units_Real/with-SteepDescent/Higher-Symm
REM
REM
REM
REM
REM
REM ./C.cell (1df0a924f5614ab8850e4351716899ee)
REM
REM compiler GCC version 9.2.1 20190827 (Red Hat 9.2.1-1)
REM options -cpp -mtune=generic -march=x86-64 -g -O0 -fpre-include=/usr/include/finclude/math-vector-fortran.h
REM seed 1116258299 1163464617 -1010416023 1449026907 -1811924422 -1320518592 238635807 749296722 1815452805 -440794157 852727498 1413548081 -1275186637 1090967614 -1680285899 -466410915 -370243404 463813063 878998486 1260208681 -195607158 -183289754 1700919950 -1224927608 -1802043582 1287308260 -2067061515 -1996011537 -1488107497 -1615580112 -18397685 1512870421 974123564
REM
CELL 1.54180   50.00000   50.00000   50.00000   90.00000   90.00000   90.00000
LATT -1
SFAC C  
C      1  0.4623630000000  0.5883970000000  0.5507780000000 1.0
C      1  0.5784920000000  0.5834670000000  0.4864060000000 1.0
C      1  0.4514490000000  0.5805860000000  0.4388230000000 1.0
C      1  0.5798800000000  0.5430720000000  0.5147400000000 1.0
C      1  0.4753470000000  0.5424240000000  0.4304670000000 1.0
C      1  0.4560600000000  0.5385970000000  0.5629120000000 1.0
C      1  0.5371630000000  0.5222470000000  0.3884320000000 1.0
C      1  0.3863260000000  0.5148750000000  0.5255830000000 1.0
C      1  0.5680930000000  0.5152290000000  0.5814560000000 1.0
C      1  0.4685120000000  0.5571630000000  0.5450880000000 1.0
C      1  0.5622690000000  0.5601960000000  0.4955800000000 1.0
C      1  0.4750460000000  0.5647030000000  0.4497660000000 1.0
C      1  0.5597510000000  0.4131380000000  0.4660110000000 1.0
C      1  0.4425650000000  0.4171100000000  0.4647130000000 1.0
C      1  0.5000830000000  0.4128820000000  0.5689640000000 1.0
C      1  0.5873760000000  0.4943040000000  0.5709620000000 1.0
C      1  0.5184670000000  0.5023710000000  0.3801100000000 1.0
C      1  0.3898320000000  0.4944140000000  0.5402940000000 1.0
C      1  0.4503830000000  0.5980850000000  0.4597780000000 1.0
C      1  0.4888810000000  0.5900070000000  0.5619150000000 1.0
C      1  0.5561610000000  0.5969390000000  0.4779090000000 1.0
C      1  0.5220570000000  0.4856750000000  0.4453690000000 1.0
C      1  0.4480470000000  0.4742480000000  0.5124740000000 1.0
C      1  0.5303130000000  0.4825700000000  0.5361990000000 1.0
C      1  0.4624120000000  0.5518100000000  0.4724040000000 1.0
C      1  0.4931830000000  0.5602960000000  0.5593240000000 1.0
C      1  0.5441270000000  0.5457830000000  0.4796490000000 1.0
C      1  0.4316860000000  0.4870880000000  0.5940530000000 1.0
C      1  0.6116660000000  0.4970950000000  0.5060490000000 1.0
C      1  0.4519180000000  0.4884530000000  0.3971090000000 1.0
C      1  0.4137360000000  0.5502420000000  0.4561880000000 1.0
C      1  0.5132170000000  0.5579630000000  0.5975400000000 1.0
C      1  0.5853070000000  0.5611720000000  0.4444700000000 1.0
C      1  0.4687470000000  0.5559440000000  0.5153140000000 1.0
C      1  0.5259800000000  0.5444820000000  0.5255540000000 1.0
C      1  0.5023820000000  0.5432920000000  0.4735530000000 1.0
C      1  0.5234480000000  0.5485750000000  0.3896210000000 1.0
C      1  0.4023300000000  0.5526550000000  0.5306140000000 1.0
C      1  0.5735210000000  0.5445310000000  0.5742830000000 1.0
C      1  0.5316310000000  0.4266750000000  0.4238300000000 1.0
C      1  0.4233830000000  0.4333580000000  0.5117080000000 1.0
C      1  0.5533630000000  0.4269670000000  0.5666130000000 1.0
C      1  0.5276260000000  0.5934940000000  0.5281390000000 1.0
C      1  0.5063680000000  0.5897270000000  0.4588350000000 1.0
C      1  0.4641920000000  0.6018210000000  0.5109100000000 1.0
C      1  0.5014610000000  0.4385720000000  0.5821600000000 1.0
C      1  0.5736530000000  0.4341390000000  0.4505400000000 1.0
C      1  0.4242220000000  0.4391350000000  0.4597830000000 1.0
C      1  0.5333600000000  0.5490760000000  0.5768870000000 1.0
C      1  0.5527310000000  0.5400600000000  0.4328280000000 1.0
C      1  0.4056580000000  0.5466140000000  0.5025820000000 1.0
C      1  0.5956330000000  0.5133880000000  0.5511210000000 1.0
C      1  0.4836890000000  0.5161240000000  0.3978080000000 1.0
C      1  0.4203920000000  0.5165950000000  0.5643700000000 1.0
C      1  0.5974320000000  0.4519520000000  0.4924670000000 1.0
C      1  0.4575220000000  0.4469200000000  0.4209250000000 1.0
C      1  0.4504380000000  0.4474410000000  0.5820970000000 1.0
C      1  0.5265970000000  0.5105840000000  0.4547100000000 1.0
C      1  0.4398410000000  0.5143070000000  0.4870120000000 1.0
C      1  0.5135810000000  0.5107150000000  0.5696710000000 1.0
C      1  0.5968010000000  0.5656190000000  0.4690020000000 1.0
C      1  0.4312720000000  0.5577160000000  0.4339640000000 1.0
C      1  0.4857510000000  0.5580290000000  0.5880880000000 1.0
C      1  0.6063940000000  0.5249060000000  0.5018890000000 1.0
C      1  0.4495270000000  0.5164000000000  0.4033500000000 1.0
C      1  0.4372330000000  0.5145260000000  0.5888480000000 1.0
C      1  0.4979790000000  0.3854750000000  0.5296280000000 1.0
C      1  0.5240990000000  0.3860660000000  0.4895610000000 1.0
C      1  0.4775770000000  0.3847910000000  0.4816010000000 1.0
C      1  0.5577550000000  0.4414110000000  0.4254330000000 1.0
C      1  0.3995910000000  0.4481590000000  0.4724800000000 1.0
C      1  0.5233330000000  0.4488650000000  0.5979090000000 1.0
C      1  0.5544420000000  0.5328310000000  0.5248170000000 1.0
C      1  0.5132540000000  0.5330300000000  0.4459450000000 1.0
C      1  0.4469290000000  0.5219280000000  0.5152310000000 1.0
C      1  0.3997700000000  0.5012330000000  0.4594960000000 1.0
C      1  0.5138240000000  0.4987160000000  0.6086400000000 1.0
C      1  0.5863090000000  0.5001340000000  0.4408010000000 1.0
C      1  0.3930340000000  0.4661990000000  0.4943790000000 1.0
C      1  0.5430980000000  0.4638610000000  0.5830990000000 1.0
C      1  0.5581670000000  0.4671770000000  0.4097860000000 1.0
C      1  0.5042350000000  0.4793040000000  0.3875080000000 1.0
C      1  0.4000800000000  0.4733940000000  0.5526410000000 1.0
C      1  0.5894570000000  0.4680740000000  0.5564920000000 1.0
C      1  0.4956210000000  0.5157150000000  0.5916360000000 1.0
C      1  0.5831050000000  0.5151340000000  0.4691440000000 1.0
C      1  0.4211790000000  0.5216850000000  0.4558010000000 1.0
C      1  0.5462610000000  0.3918060000000  0.5071040000000 1.0
C      1  0.4828970000000  0.3935870000000  0.4547640000000 1.0
C      1  0.4701520000000  0.3884440000000  0.5372360000000 1.0
C      1  0.4709080000000  0.5126280000000  0.4396430000000 1.0
C      1  0.4635010000000  0.5056640000000  0.5587990000000 1.0
C      1  0.5739220000000  0.5028530000000  0.4939800000000 1.0
C      1  0.4766900000000  0.4706610000000  0.5196620000000 1.0
C      1  0.5131170000000  0.4712710000000  0.4950510000000 1.0
C      1  0.4857940000000  0.4667000000000  0.4924660000000 1.0
C      1  0.4102010000000  0.5652210000000  0.4816440000000 1.0
C      1  0.5341600000000  0.5761410000000  0.5893800000000 1.0
C      1  0.5628410000000  0.5672130000000  0.4287240000000 1.0
C      1  0.4501150000000  0.4814730000000  0.5544290000000 1.0
C      1  0.5719150000000  0.4818240000000  0.5148800000000 1.0
C      1  0.4760110000000  0.4861760000000  0.4307970000000 1.0
C      1  0.4697250000000  0.4607370000000  0.4446500000000 1.0
C      1  0.4637620000000  0.4563780000000  0.5589820000000 1.0
C      1  0.5499790000000  0.4559600000000  0.5115420000000 1.0
C      1  0.4293930000000  0.5120110000000  0.5356710000000 1.0
C      1  0.5667860000000  0.5153150000000  0.5417390000000 1.0
C      1  0.5051880000000  0.5150120000000  0.4179600000000 1.0
C      1  0.4953480000000  0.4481900000000  0.5333870000000 1.0
C      1  0.5176830000000  0.4421420000000  0.4926330000000 1.0
C      1  0.4881210000000  0.4372660000000  0.4941100000000 1.0
C      1  0.4251310000000  0.4441000000000  0.5682760000000 1.0
C      1  0.5946620000000  0.4449520000000  0.5210030000000 1.0
C      1  0.4811210000000  0.4470640000000  0.4029550000000 1.0
C      1  0.5534210000000  0.4703780000000  0.4726300000000 1.0
C      1  0.4494100000000  0.4890060000000  0.4747320000000 1.0
C      1  0.5069070000000  0.4898070000000  0.5514550000000 1.0
C      1  0.4783500000000  0.5183780000000  0.5239070000000 1.0
C      1  0.5342200000000  0.5156930000000  0.4806090000000 1.0
C      1  0.4689410000000  0.5250070000000  0.4795250000000 1.0
C      1  0.5196050000000  0.3969210000000  0.5156500000000 1.0
C      1  0.5026370000000  0.3948200000000  0.4742380000000 1.0
C      1  0.4784950000000  0.3867870000000  0.5098480000000 1.0
C      1  0.5120390000000  0.5644180000000  0.4117650000000 1.0
C      1  0.4246720000000  0.5718720000000  0.5370190000000 1.0
C      1  0.5662810000000  0.5633950000000  0.5516550000000 1.0
C      1  0.4578420000000  0.4293950000000  0.5387170000000 1.0
C      1  0.5668860000000  0.4328220000000  0.5168660000000 1.0
C      1  0.4898210000000  0.4365490000000  0.4449700000000 1.0
C      1  0.5094780000000  0.5700110000000  0.4803030000000 1.0
C      1  0.4841300000000  0.5802790000000  0.5123120000000 1.0
C      1  0.5135680000000  0.5752650000000  0.5114370000000 1.0
C      1  0.4005710000000  0.5190010000000  0.5025090000000 1.0
C      1  0.5413200000000  0.5075140000000  0.5757270000000 1.0
C      1  0.5451320000000  0.5163320000000  0.4166250000000 1.0
C      1  0.6112650000000  0.4769890000000  0.4853880000000 1.0
C      1  0.4370190000000  0.4678810000000  0.4134910000000 1.0
C      1  0.4546950000000  0.4684300000000  0.6021530000000 1.0
C      1  0.4924100000000  0.4590980000000  0.5606130000000 1.0
C      1  0.5741300000000  0.4510180000000  0.4748930000000 1.0
C      1  0.4437190000000  0.4599930000000  0.4694490000000 1.0
C      1  0.4964080000000  0.5387980000000  0.3828260000000 1.0
C      1  0.4055280000000  0.5415200000000  0.5584170000000 1.0
C      1  0.5996900000000  0.5408770000000  0.5608100000000 1.0
C      1  0.4416940000000  0.4167330000000  0.4943910000000 1.0
C      1  0.5279240000000  0.4162850000000  0.5574100000000 1.0
C      1  0.5353810000000  0.4157450000000  0.4504460000000 1.0
C      1  0.4741190000000  0.4094410000000  0.5561440000000 1.0
C      1  0.5634400000000  0.4115100000000  0.4953610000000 1.0
C      1  0.4662900000000  0.4161090000000  0.4471490000000 1.0
C      1  0.5223120000000  0.4399320000000  0.5405600000000 1.0
C      1  0.5186130000000  0.4374870000000  0.4623050000000 1.0
C      1  0.4649030000000  0.4263400000000  0.5080980000000 1.0
C      1  0.5355910000000  0.5517160000000  0.4532890000000 1.0
C      1  0.4490440000000  0.5609020000000  0.4948170000000 1.0
C      1  0.5186020000000  0.5485880000000  0.5528800000000 1.0
C      1  0.5658150000000  0.4954490000000  0.4154080000000 1.0
C      1  0.3907300000000  0.4959840000000  0.4872460000000 1.0
C      1  0.5400530000000  0.4906060000000  0.5977310000000 1.0
C      1  0.4136480000000  0.4696650000000  0.5776020000000 1.0
C      1  0.5989100000000  0.4738330000000  0.5281560000000 1.0
C      1  0.4762490000000  0.4725800000000  0.3888050000000 1.0
C      1  0.6069480000000  0.4803200000000  0.4560160000000 1.0
C      1  0.4177080000000  0.4752720000000  0.4317990000000 1.0
C      1  0.4806750000000  0.4750300000000  0.6094690000000 1.0
C      1  0.5042440000000  0.5276420000000  0.5183030000000 1.0
C      1  0.5106400000000  0.4976360000000  0.4892520000000 1.0
C      1  0.4900030000000  0.5154250000000  0.4969730000000 1.0
C      1  0.5071250000000  0.4702020000000  0.6128270000000 1.0
C      1  0.5860720000000  0.4706500000000  0.4403320000000 1.0
C      1  0.4004190000000  0.4725090000000  0.4515150000000 1.0
C      1  0.4297060000000  0.5830200000000  0.4938590000000 1.0
C      1  0.5356170000000  0.5964740000000  0.5683430000000 1.0
C      1  0.5424170000000  0.5874090000000  0.4380650000000 1.0
C      1  0.5561280000000  0.4922910000000  0.5348750000000 1.0
C      1  0.5037150000000  0.4855890000000  0.4212190000000 1.0
C      1  0.4294910000000  0.4828570000000  0.5339170000000 1.0
C      1  0.5504360000000  0.5871100000000  0.5447000000000 1.0
C      1  0.5147450000000  0.5852020000000  0.4309250000000 1.0
C      1  0.4428570000000  0.5959690000000  0.5307970000000 1.0
C      1  0.4714120000000  0.5043640000000  0.4646660000000 1.0
C      1  0.4828540000000  0.4955990000000  0.5371960000000 1.0
C      1  0.5519840000000  0.4952700000000  0.4842800000000 1.0
C      1  0.4703250000000  0.5330940000000  0.5904620000000 1.0
C      1  0.6023750000000  0.5365240000000  0.4749710000000 1.0
C      1  0.4343220000000  0.5300930000000  0.4247090000000 1.0
C      1  0.4845770000000  0.5564280000000  0.4057110000000 1.0
C      1  0.4306690000000  0.5563130000000  0.5605310000000 1.0
C      1  0.5907010000000  0.5573080000000  0.5385160000000 1.0
C      1  0.5363160000000  0.4615500000000  0.5534970000000 1.0
C      1  0.5323330000000  0.4629470000000  0.4559810000000 1.0
C      1  0.4342810000000  0.4563810000000  0.4971390000000 1.0
C      1  0.4473450000000  0.6063910000000  0.4859420000000 1.0
C      1  0.5125960000000  0.6029770000000  0.5507340000000 1.0
C      1  0.5339940000000  0.6032970000000  0.4628260000000 1.0
C      1  0.5041070000000  0.4363640000000  0.4190550000000 1.0
C      1  0.4284300000000  0.4325190000000  0.5403960000000 1.0
C      1  0.5739770000000  0.4439070000000  0.5577740000000 1.0
END
