TITL C-2441159-1093-860 0.0367545341570397 125000 -14104.6750185484 0 0 101 (C1) n - 1
REM
REM in /home/bkarasulu/work/CARBON/AIRSS/Generating-Clusters/ReaxFF-fromJPCA2015/Units_Real/with-SteepDescent/Higher-Symm
REM
REM
REM
REM
REM
REM ./C.cell (1df0a924f5614ab8850e4351716899ee)
REM
REM compiler GCC version 9.2.1 20190827 (Red Hat 9.2.1-1)
REM options -cpp -mtune=generic -march=x86-64 -g -O0 -fpre-include=/usr/include/finclude/math-vector-fortran.h
REM seed 791894782 1048099682 1386287931 -1956234718 -578305653 301569076 -1524019643 1628020151 -1805849229 -812954014 -1344667538 -885855713 1122669675 -1420970621 1181541541 -523315356 -193609564 -1026917405 826581567 539862285 -1264063547 1018983046 -1502738679 1779812476 1464709254 280322893 -1400332003 1730820806 -1385847324 2071933864 809560695 112759407 -1135338305
REM
CELL 1.54180   50.00000   50.00000   50.00000   90.00000   90.00000   90.00000
LATT -1
SFAC C  
C      1  0.4668720000000  0.5639850000000  0.5505680000000 1.0
C      1  0.5701910000000  0.5514460000000  0.4660850000000 1.0
C      1  0.5538670000000  0.4640290000000  0.5608130000000 1.0
C      1  0.5353240000000  0.5644670000000  0.4475380000000 1.0
C      1  0.5314910000000  0.4314520000000  0.5481930000000 1.0
C      1  0.4666680000000  0.4365090000000  0.4484360000000 1.0
C      1  0.4301100000000  0.5495140000000  0.5335310000000 1.0
C      1  0.4311940000000  0.4485520000000  0.4667180000000 1.0
C      1  0.5656600000000  0.4526420000000  0.5360660000000 1.0
C      1  0.4459540000000  0.4562260000000  0.4423670000000 1.0
C      1  0.4465190000000  0.5438210000000  0.5570000000000 1.0
C      1  0.5557140000000  0.5436550000000  0.4417930000000 1.0
C      1  0.5148720000000  0.4487310000000  0.4365860000000 1.0
C      1  0.4497980000000  0.4371290000000  0.5135140000000 1.0
C      1  0.4381850000000  0.5117550000000  0.4511930000000 1.0
C      1  0.4880120000000  0.4515270000000  0.5652860000000 1.0
C      1  0.4867930000000  0.5530250000000  0.4356440000000 1.0
C      1  0.5153600000000  0.5498110000000  0.5578740000000 1.0
C      1  0.5507470000000  0.4433870000000  0.4872240000000 1.0
C      1  0.5495450000000  0.5651140000000  0.5121310000000 1.0
C      1  0.4512760000000  0.5586310000000  0.4862670000000 1.0
C      1  0.5626830000000  0.5146080000000  0.5511650000000 1.0
C      1  0.5625300000000  0.4883180000000  0.4525290000000 1.0
C      1  0.4462300000000  0.4876530000000  0.5486950000000 1.0
C      1  0.4792070000000  0.4767360000000  0.4293280000000 1.0
C      1  0.4740170000000  0.4297750000000  0.4774700000000 1.0
C      1  0.4279970000000  0.4779290000000  0.4732550000000 1.0
C      1  0.5257950000000  0.4746390000000  0.5679870000000 1.0
C      1  0.5212460000000  0.5244510000000  0.4294000000000 1.0
C      1  0.4808600000000  0.5243570000000  0.5692390000000 1.0
C      1  0.5327840000000  0.4184650000000  0.5230810000000 1.0
C      1  0.5270230000000  0.5718950000000  0.4757370000000 1.0
C      1  0.4677230000000  0.5776340000000  0.5246870000000 1.0
C      1  0.5805250000000  0.4780730000000  0.5321440000000 1.0
C      1  0.5717550000000  0.5223980000000  0.4736750000000 1.0
C      1  0.4210670000000  0.5218350000000  0.5325790000000 1.0
C      1  0.4880010000000  0.5523270000000  0.5652050000000 1.0
C      1  0.5540040000000  0.5671900000000  0.4841720000000 1.0
C      1  0.5696200000000  0.4879830000000  0.5567150000000 1.0
C      1  0.5138740000000  0.5528450000000  0.4325570000000 1.0
C      1  0.5163420000000  0.4460610000000  0.5662350000000 1.0
C      1  0.4868490000000  0.4483010000000  0.4323790000000 1.0
C      1  0.4445130000000  0.5650490000000  0.5133770000000 1.0
C      1  0.4471290000000  0.4344930000000  0.4862570000000 1.0
C      1  0.5564020000000  0.4346170000000  0.5147990000000 1.0
C      1  0.4363510000000  0.4840900000000  0.4459130000000 1.0
C      1  0.4374150000000  0.5149860000000  0.5553780000000 1.0
C      1  0.5646570000000  0.5156230000000  0.4459740000000 1.0
C      1  0.5057810000000  0.5476260000000  0.4830110000000 1.0
C      1  0.5425390000000  0.4875350000000  0.4997310000000 1.0
C      1  0.4878170000000  0.5043140000000  0.5474410000000 1.0
C      1  0.5021450000000  0.5443250000000  0.5113780000000 1.0
C      1  0.4965140000000  0.4543630000000  0.4844940000000 1.0
C      1  0.5001760000000  0.4589990000000  0.5123790000000 1.0
C      1  0.4538670000000  0.4851280000000  0.4941940000000 1.0
C      1  0.4572160000000  0.5134330000000  0.4975430000000 1.0
C      1  0.5459630000000  0.5154030000000  0.4949680000000 1.0
C      1  0.5141400000000  0.5054860000000  0.4517250000000 1.0
C      1  0.5150950000000  0.4936270000000  0.5439500000000 1.0
C      1  0.4866150000000  0.4948220000000  0.4519240000000 1.0
C      1  0.5513010000000  0.5340110000000  0.5688890000000 1.0
C      1  0.5435880000000  0.5589120000000  0.5542100000000 1.0
C      1  0.5626430000000  0.5517840000000  0.5328760000000 1.0
C      1  0.4498480000000  0.5340100000000  0.4379960000000 1.0
C      1  0.4468890000000  0.4588550000000  0.5566530000000 1.0
C      1  0.5524540000000  0.4661350000000  0.4383190000000 1.0
C      1  0.4687220000000  0.5682890000000  0.4504930000000 1.0
C      1  0.4674110000000  0.4385180000000  0.5505370000000 1.0
C      1  0.5329400000000  0.4323710000000  0.4512550000000 1.0
C      1  0.4432030000000  0.5551920000000  0.4579830000000 1.0
C      1  0.4329730000000  0.4519650000000  0.5318640000000 1.0
C      1  0.5583920000000  0.4448020000000  0.4581400000000 1.0
C      1  0.4803410000000  0.4795000000000  0.5692290000000 1.0
C      1  0.4779250000000  0.5677170000000  0.4792380000000 1.0
C      1  0.5661130000000  0.4787430000000  0.4810450000000 1.0
C      1  0.5246760000000  0.4754310000000  0.4317220000000 1.0
C      1  0.5233330000000  0.5245840000000  0.5688490000000 1.0
C      1  0.4775400000000  0.5279700000000  0.4296950000000 1.0
C      1  0.5207900000000  0.5665710000000  0.5205140000000 1.0
C      1  0.5239540000000  0.4335030000000  0.4797980000000 1.0
C      1  0.4782040000000  0.4349880000000  0.5220760000000 1.0
C      1  0.4344780000000  0.4804460000000  0.5224070000000 1.0
C      1  0.4344680000000  0.5211310000000  0.4793330000000 1.0
C      1  0.5659980000000  0.5232290000000  0.5235780000000 1.0
C      1  0.5023530000000  0.4860510000000  0.4138750000000 1.0
C      1  0.4867280000000  0.4158640000000  0.5007300000000 1.0
C      1  0.4143190000000  0.5013330000000  0.4867570000000 1.0
C      1  0.5030120000000  0.4856980000000  0.5859660000000 1.0
C      1  0.4987710000000  0.5146260000000  0.4133790000000 1.0
C      1  0.5020480000000  0.5142590000000  0.5868950000000 1.0
C      1  0.5145280000000  0.4140720000000  0.4998090000000 1.0
C      1  0.5132200000000  0.5862620000000  0.5004320000000 1.0
C      1  0.4850260000000  0.5864200000000  0.5023270000000 1.0
C      1  0.5858490000000  0.5012520000000  0.5155500000000 1.0
C      1  0.5858470000000  0.4995900000000  0.4874800000000 1.0
C      1  0.4134470000000  0.4999500000000  0.5149730000000 1.0
C      1  0.4835430000000  0.5207260000000  0.5164770000000 1.0
C      1  0.5169770000000  0.5178640000000  0.4803080000000 1.0
C      1  0.5209650000000  0.4777760000000  0.5198380000000 1.0
C      1  0.4835450000000  0.4835820000000  0.4806310000000 1.0
C      1  0.4973100000000  0.5039270000000  0.4969750000000 1.0
END
