TITL C-2441167-4473-97 0.138417304962869 125000 -23504.807359761 0 0 179 (C1) n - 1
REM
REM in /home/bkarasulu/work/CARBON/AIRSS/Generating-Clusters/ReaxFF-fromJPCA2015/Units_Real/with-SteepDescent/Higher-Symm
REM
REM
REM
REM
REM
REM ./C.cell (1df0a924f5614ab8850e4351716899ee)
REM
REM compiler GCC version 9.2.1 20190827 (Red Hat 9.2.1-1)
REM options -cpp -mtune=generic -march=x86-64 -g -O0 -fpre-include=/usr/include/finclude/math-vector-fortran.h
REM seed 1504686112 797494381 -2016658186 1186049481 -947586016 1136856051 925019306 928963419 -2082348186 -1583710378 581647127 672076918 -1379185542 1220048733 -1844559971 -906582649 -547680482 1803115572 -430834173 -1217612317 380542545 -1306925749 -1596620986 1639416759 -1280372078 -1763657583 671411561 -661974639 -2095056844 1848899242 -918250726 671367246 470078015
REM
CELL 1.54180   50.00000   50.00000   50.00000   90.00000   90.00000   90.00000
LATT -1
SFAC C  
C      1  0.5414820000000  0.4729340000000  0.5379810000000 1.0
C      1  0.4315100000000  0.5419680000000  0.4537520000000 1.0
C      1  0.5606370000000  0.4111150000000  0.4928230000000 1.0
C      1  0.4307460000000  0.5882370000000  0.5027230000000 1.0
C      1  0.4722210000000  0.6111970000000  0.4895740000000 1.0
C      1  0.5217010000000  0.3867080000000  0.5009650000000 1.0
C      1  0.4254750000000  0.4234560000000  0.5072390000000 1.0
C      1  0.5679540000000  0.5768730000000  0.4922580000000 1.0
C      1  0.4514990000000  0.5608910000000  0.5732980000000 1.0
C      1  0.5392860000000  0.4228430000000  0.4336570000000 1.0
C      1  0.4772980000000  0.4399390000000  0.5924330000000 1.0
C      1  0.5252250000000  0.5585530000000  0.4061310000000 1.0
C      1  0.5892160000000  0.5007070000000  0.4869230000000 1.0
C      1  0.4030040000000  0.4967410000000  0.5129490000000 1.0
C      1  0.5437250000000  0.4156460000000  0.5215240000000 1.0
C      1  0.4435970000000  0.5742840000000  0.4812830000000 1.0
C      1  0.4896170000000  0.5431490000000  0.5228320000000 1.0
C      1  0.5098730000000  0.4554540000000  0.4662430000000 1.0
C      1  0.4532590000000  0.4092660000000  0.5042460000000 1.0
C      1  0.5392180000000  0.5922910000000  0.4925320000000 1.0
C      1  0.4950050000000  0.5692580000000  0.5622870000000 1.0
C      1  0.5015770000000  0.4139540000000  0.4536580000000 1.0
C      1  0.4453600000000  0.5069000000000  0.4678540000000 1.0
C      1  0.5616620000000  0.4921200000000  0.5435600000000 1.0
C      1  0.5150320000000  0.5288670000000  0.4925100000000 1.0
C      1  0.4796850000000  0.4547900000000  0.5086560000000 1.0
C      1  0.5287910000000  0.5090880000000  0.5913510000000 1.0
C      1  0.4706410000000  0.4922930000000  0.4068830000000 1.0
C      1  0.5483390000000  0.5405110000000  0.5531400000000 1.0
C      1  0.4535420000000  0.4613150000000  0.4466290000000 1.0
C      1  0.4914000000000  0.5741770000000  0.4368020000000 1.0
C      1  0.5163880000000  0.4250700000000  0.5608270000000 1.0
C      1  0.4485720000000  0.4543380000000  0.4190530000000 1.0
C      1  0.5524420000000  0.5470690000000  0.5803870000000 1.0
C      1  0.5229640000000  0.5463830000000  0.4667600000000 1.0
C      1  0.4620760000000  0.4800520000000  0.5398740000000 1.0
C      1  0.4908660000000  0.5581880000000  0.4613090000000 1.0
C      1  0.5057590000000  0.4426380000000  0.5378570000000 1.0
C      1  0.4498310000000  0.5856030000000  0.4548060000000 1.0
C      1  0.5465230000000  0.4230920000000  0.5505670000000 1.0
C      1  0.5908430000000  0.5199590000000  0.5576780000000 1.0
C      1  0.4132220000000  0.4858340000000  0.4430070000000 1.0
C      1  0.5682290000000  0.5193600000000  0.4438640000000 1.0
C      1  0.4230990000000  0.4788340000000  0.5669270000000 1.0
C      1  0.5327030000000  0.4742510000000  0.5098900000000 1.0
C      1  0.4669000000000  0.5216540000000  0.4818750000000 1.0
C      1  0.5400820000000  0.3959680000000  0.4798350000000 1.0
C      1  0.4529040000000  0.6038770000000  0.5110860000000 1.0
C      1  0.5911680000000  0.4517610000000  0.4716890000000 1.0
C      1  0.4192320000000  0.5461960000000  0.5280050000000 1.0
C      1  0.5575660000000  0.5068400000000  0.5881540000000 1.0
C      1  0.4419270000000  0.4948030000000  0.4109540000000 1.0
C      1  0.4717880000000  0.5319360000000  0.4287010000000 1.0
C      1  0.5336670000000  0.4647460000000  0.5644420000000 1.0
C      1  0.5226900000000  0.4973800000000  0.4613380000000 1.0
C      1  0.5015310000000  0.5033210000000  0.5236120000000 1.0
C      1  0.4903050000000  0.5323230000000  0.4067230000000 1.0
C      1  0.5119930000000  0.4684700000000  0.5852070000000 1.0
C      1  0.4417160000000  0.5244120000000  0.5191730000000 1.0
C      1  0.5708880000000  0.4721580000000  0.4803010000000 1.0
C      1  0.3975050000000  0.5112380000000  0.5388840000000 1.0
C      1  0.6039560000000  0.4908520000000  0.4606970000000 1.0
C      1  0.4995620000000  0.5979940000000  0.4517360000000 1.0
C      1  0.5067590000000  0.3980230000000  0.5469720000000 1.0
C      1  0.4036490000000  0.4711380000000  0.5263410000000 1.0
C      1  0.5925910000000  0.5295960000000  0.4752820000000 1.0
C      1  0.4798500000000  0.4825770000000  0.4770500000000 1.0
C      1  0.5260630000000  0.5146000000000  0.5265520000000 1.0
C      1  0.4734900000000  0.4244920000000  0.5695200000000 1.0
C      1  0.5326480000000  0.5739840000000  0.4264360000000 1.0
C      1  0.4298090000000  0.4375940000000  0.4827150000000 1.0
C      1  0.5690570000000  0.5612420000000  0.5160860000000 1.0
C      1  0.3957220000000  0.5239640000000  0.4709500000000 1.0
C      1  0.6059830000000  0.4798980000000  0.5325420000000 1.0
C      1  0.5042220000000  0.5102180000000  0.5704620000000 1.0
C      1  0.4946170000000  0.4880390000000  0.4238690000000 1.0
C      1  0.5735140000000  0.4645500000000  0.4283850000000 1.0
C      1  0.4285750000000  0.5409780000000  0.5773840000000 1.0
C      1  0.4769760000000  0.4452520000000  0.4159910000000 1.0
C      1  0.5247470000000  0.5535000000000  0.5881010000000 1.0
C      1  0.5726030000000  0.4457470000000  0.5273920000000 1.0
C      1  0.4242270000000  0.5521390000000  0.4792690000000 1.0
C      1  0.5406700000000  0.5184550000000  0.5022800000000 1.0
C      1  0.4546180000000  0.4767730000000  0.4972230000000 1.0
C      1  0.4607080000000  0.4156850000000  0.5476130000000 1.0
C      1  0.5443060000000  0.5865930000000  0.4469520000000 1.0
C      1  0.4866680000000  0.4653370000000  0.5453850000000 1.0
C      1  0.5108430000000  0.5227220000000  0.4547090000000 1.0
C      1  0.5076450000000  0.4761940000000  0.4466770000000 1.0
C      1  0.4917300000000  0.5373070000000  0.5512070000000 1.0
C      1  0.4483420000000  0.4944660000000  0.5613730000000 1.0
C      1  0.5484880000000  0.4985920000000  0.4414980000000 1.0
C      1  0.5750450000000  0.5285310000000  0.5808580000000 1.0
C      1  0.4251610000000  0.4730460000000  0.4198680000000 1.0
C      1  0.5674740000000  0.4406460000000  0.5569100000000 1.0
C      1  0.4398330000000  0.5641320000000  0.4379900000000 1.0
C      1  0.5283580000000  0.4045110000000  0.4531740000000 1.0
C      1  0.4843050000000  0.5867850000000  0.5426430000000 1.0
C      1  0.4310610000000  0.5731980000000  0.5276160000000 1.0
C      1  0.5737030000000  0.4275040000000  0.4732790000000 1.0
C      1  0.4957190000000  0.5475550000000  0.5979400000000 1.0
C      1  0.5037770000000  0.4504590000000  0.4024950000000 1.0
C      1  0.5533410000000  0.4704080000000  0.4075520000000 1.0
C      1  0.4472940000000  0.5252720000000  0.5929390000000 1.0
C      1  0.4755800000000  0.5250680000000  0.6007620000000 1.0
C      1  0.5256900000000  0.4725460000000  0.3969300000000 1.0
C      1  0.4086660000000  0.5349690000000  0.5518200000000 1.0
C      1  0.5977060000000  0.4659070000000  0.4467830000000 1.0
C      1  0.5256640000000  0.5993570000000  0.4650480000000 1.0
C      1  0.4819250000000  0.4001990000000  0.5329350000000 1.0
C      1  0.3972240000000  0.4990710000000  0.4860090000000 1.0
C      1  0.6002630000000  0.5011740000000  0.5142620000000 1.0
C      1  0.5343740000000  0.4935160000000  0.4889830000000 1.0
C      1  0.4515800000000  0.4948420000000  0.5188490000000 1.0
C      1  0.4586930000000  0.4141660000000  0.4510920000000 1.0
C      1  0.5377080000000  0.5859910000000  0.5469210000000 1.0
C      1  0.4609550000000  0.4870470000000  0.4559350000000 1.0
C      1  0.5437370000000  0.5136240000000  0.5471620000000 1.0
C      1  0.5966890000000  0.5169690000000  0.4491510000000 1.0
C      1  0.3991340000000  0.4840680000000  0.5522740000000 1.0
C      1  0.4498100000000  0.5459510000000  0.4176510000000 1.0
C      1  0.5570080000000  0.4567620000000  0.5797750000000 1.0
C      1  0.5315910000000  0.4433890000000  0.4815810000000 1.0
C      1  0.4578950000000  0.5857260000000  0.5333160000000 1.0
C      1  0.5228370000000  0.5741270000000  0.5687960000000 1.0
C      1  0.4809370000000  0.4225000000000  0.4340090000000 1.0
C      1  0.5025150000000  0.5967240000000  0.5233140000000 1.0
C      1  0.4884840000000  0.4058210000000  0.4777670000000 1.0
C      1  0.5006890000000  0.4906600000000  0.5484310000000 1.0
C      1  0.4829680000000  0.5302500000000  0.4552390000000 1.0
C      1  0.5281470000000  0.4838510000000  0.6053090000000 1.0
C      1  0.4702820000000  0.5172080000000  0.3913790000000 1.0
C      1  0.5887200000000  0.4913720000000  0.5532480000000 1.0
C      1  0.4206810000000  0.5144340000000  0.4515880000000 1.0
C      1  0.4718000000000  0.6034140000000  0.4613290000000 1.0
C      1  0.5281320000000  0.3902350000000  0.5285530000000 1.0
C      1  0.5618810000000  0.5439920000000  0.4322280000000 1.0
C      1  0.4343240000000  0.4527890000000  0.5708590000000 1.0
C      1  0.5448470000000  0.5611060000000  0.5339200000000 1.0
C      1  0.4549170000000  0.4397030000000  0.4659570000000 1.0
C      1  0.5290470000000  0.5645180000000  0.4911200000000 1.0
C      1  0.4675280000000  0.4321940000000  0.5078600000000 1.0
C      1  0.5171820000000  0.4316400000000  0.5132700000000 1.0
C      1  0.4765620000000  0.5668250000000  0.4874580000000 1.0
C      1  0.5784210000000  0.5567840000000  0.4740310000000 1.0
C      1  0.4199250000000  0.4452800000000  0.5258820000000 1.0
C      1  0.4910930000000  0.5907740000000  0.4968550000000 1.0
C      1  0.4990660000000  0.4066370000000  0.5053240000000 1.0
C      1  0.5693770000000  0.5332230000000  0.5102380000000 1.0
C      1  0.4291540000000  0.4656990000000  0.4868730000000 1.0
C      1  0.4769720000000  0.5658520000000  0.5871350000000 1.0
C      1  0.5222990000000  0.4360740000000  0.4159850000000 1.0
C      1  0.5901820000000  0.5244230000000  0.5281250000000 1.0
C      1  0.4086160000000  0.4781440000000  0.4703720000000 1.0
C      1  0.5397240000000  0.5090570000000  0.4138390000000 1.0
C      1  0.4610120000000  0.4883340000000  0.5866970000000 1.0
C      1  0.6015100000000  0.4504850000000  0.5250690000000 1.0
C      1  0.3967010000000  0.5497910000000  0.4809990000000 1.0
C      1  0.4356610000000  0.4350430000000  0.5469720000000 1.0
C      1  0.5658610000000  0.5658350000000  0.4500230000000 1.0
C      1  0.4614940000000  0.4002280000000  0.4759810000000 1.0
C      1  0.5303650000000  0.5988440000000  0.5225710000000 1.0
C      1  0.4428090000000  0.5225480000000  0.4006410000000 1.0
C      1  0.5568710000000  0.4791030000000  0.5989730000000 1.0
C      1  0.4632620000000  0.5403890000000  0.5557350000000 1.0
C      1  0.5499520000000  0.4396710000000  0.4579310000000 1.0
C      1  0.4843890000000  0.4549780000000  0.4789140000000 1.0
C      1  0.5147420000000  0.5504610000000  0.5118330000000 1.0
C      1  0.5577010000000  0.4718900000000  0.4523470000000 1.0
C      1  0.4456800000000  0.5205930000000  0.5482300000000 1.0
C      1  0.4860630000000  0.4993960000000  0.5918000000000 1.0
C      1  0.5138970000000  0.4990640000000  0.4041170000000 1.0
C      1  0.4663290000000  0.5411360000000  0.5053570000000 1.0
C      1  0.5542610000000  0.4568630000000  0.5007820000000 1.0
C      1  0.5443440000000  0.5370370000000  0.4113680000000 1.0
C      1  0.4559590000000  0.4605550000000  0.5887040000000 1.0
C      1  0.4964990000000  0.5606760000000  0.4115930000000 1.0
C      1  0.5063410000000  0.4399630000000  0.5873650000000 1.0
C      1  0.4916570000000  0.5062560000000  0.4947060000000 1.0
END
