TITL C-2441167-4473-464 0.0139598464696394 125000 -7423.90819717401 0 0 54 (C1) n - 1
REM
REM in /home/bkarasulu/work/CARBON/AIRSS/Generating-Clusters/ReaxFF-fromJPCA2015/Units_Real/with-SteepDescent/Higher-Symm
REM
REM
REM
REM
REM
REM ./C.cell (1df0a924f5614ab8850e4351716899ee)
REM
REM compiler GCC version 9.2.1 20190827 (Red Hat 9.2.1-1)
REM options -cpp -mtune=generic -march=x86-64 -g -O0 -fpre-include=/usr/include/finclude/math-vector-fortran.h
REM seed -349957943 -1367823783 123336778 1135994637 -413738914 373125497 1924739419 1016984080 -787625692 1767493846 679055164 1140107500 -1099611414 -2066637456 -2078929678 2053478234 1001499449 1742315808 -2061813691 1020873755 1342459879 -658511726 1135808413 207336123 -1570046210 -1206966402 -1610689889 -1315296339 825609707 -1042427926 -996687111 97243294 245520450
REM
CELL 1.54180   50.00000   50.00000   50.00000   90.00000   90.00000   90.00000
LATT -1
SFAC C  
C      1  0.5199500000000  0.4953730000000  0.4421860000000 1.0
C      1  0.5566530000000  0.4966260000000  0.4789900000000 1.0
C      1  0.5508850000000  0.4969370000000  0.5305970000000 1.0
C      1  0.5072620000000  0.4955030000000  0.5577860000000 1.0
C      1  0.4579290000000  0.4956970000000  0.5414460000000 1.0
C      1  0.4400650000000  0.4965690000000  0.4926190000000 1.0
C      1  0.4685350000000  0.4951120000000  0.4481300000000 1.0
C      1  0.4499390000000  0.5449450000000  0.4850570000000 1.0
C      1  0.4793910000000  0.5442480000000  0.4495850000000 1.0
C      1  0.5248950000000  0.5429930000000  0.4487480000000 1.0
C      1  0.5513570000000  0.5451390000000  0.4886360000000 1.0
C      1  0.5394510000000  0.5453420000000  0.5330370000000 1.0
C      1  0.4961870000000  0.5427200000000  0.5543060000000 1.0
C      1  0.4575520000000  0.5442750000000  0.5298000000000 1.0
C      1  0.5380160000000  0.5623680000000  0.5089360000000 1.0
C      1  0.5173570000000  0.5587030000000  0.5445890000000 1.0
C      1  0.4784330000000  0.5601000000000  0.5401500000000 1.0
C      1  0.4573640000000  0.5611300000000  0.5068620000000 1.0
C      1  0.4668080000000  0.5608680000000  0.4686570000000 1.0
C      1  0.5027370000000  0.5603100000000  0.4525180000000 1.0
C      1  0.5386780000000  0.5590330000000  0.4677710000000 1.0
C      1  0.4704740000000  0.5159420000000  0.5254530000000 1.0
C      1  0.4610390000000  0.5163540000000  0.4922660000000 1.0
C      1  0.4814750000000  0.5160900000000  0.4632220000000 1.0
C      1  0.5152180000000  0.5161910000000  0.4614190000000 1.0
C      1  0.5387950000000  0.5175870000000  0.4875790000000 1.0
C      1  0.5327570000000  0.5178270000000  0.5220640000000 1.0
C      1  0.5021030000000  0.5163430000000  0.5386220000000 1.0
C      1  0.4400180000000  0.4839670000000  0.5196640000000 1.0
C      1  0.4457430000000  0.4846400000000  0.4649390000000 1.0
C      1  0.4933120000000  0.4823170000000  0.4358040000000 1.0
C      1  0.5456310000000  0.4839920000000  0.4540940000000 1.0
C      1  0.5625390000000  0.4842580000000  0.5060580000000 1.0
C      1  0.5339410000000  0.4832790000000  0.5516780000000 1.0
C      1  0.4794760000000  0.4830500000000  0.5580900000000 1.0
C      1  0.5356300000000  0.4370030000000  0.5088260000000 1.0
C      1  0.5140380000000  0.4364950000000  0.5307470000000 1.0
C      1  0.4833610000000  0.4359500000000  0.5318440000000 1.0
C      1  0.4610380000000  0.4346110000000  0.5105230000000 1.0
C      1  0.4672480000000  0.4378350000000  0.4809500000000 1.0
C      1  0.5091700000000  0.4368940000000  0.4627800000000 1.0
C      1  0.5356450000000  0.4353670000000  0.4775810000000 1.0
C      1  0.4783650000000  0.4587420000000  0.5455070000000 1.0
C      1  0.4464780000000  0.4584250000000  0.5108600000000 1.0
C      1  0.4569530000000  0.4600210000000  0.4673440000000 1.0
C      1  0.5019360000000  0.4579790000000  0.4456780000000 1.0
C      1  0.5452640000000  0.4583050000000  0.4646000000000 1.0
C      1  0.5510190000000  0.4595730000000  0.5109960000000 1.0
C      1  0.5238550000000  0.4581020000000  0.5451230000000 1.0
C      1  0.5006520000000  0.5016150000000  0.4986100000000 1.0
C      1  0.4955130000000  0.4479700000000  0.4879090000000 1.0
C      1  0.5080480000000  0.5578740000000  0.5009360000000 1.0
C      1  0.4996330000000  0.5302860000000  0.4983470000000 1.0
C      1  0.4987460000000  0.4758570000000  0.4945750000000 1.0
END
