TITL C-2441156-4686-290 0.0786847381645816 125000 -26353.3678386516 0 0 193 (C1) n - 1
REM
REM in /home/bkarasulu/work/CARBON/AIRSS/Generating-Clusters/ReaxFF-fromJPCA2015/Units_Real/with-SteepDescent/Higher-Symm
REM
REM
REM
REM
REM
REM ./C.cell (1df0a924f5614ab8850e4351716899ee)
REM
REM compiler GCC version 9.2.1 20190827 (Red Hat 9.2.1-1)
REM options -cpp -mtune=generic -march=x86-64 -g -O0 -fpre-include=/usr/include/finclude/math-vector-fortran.h
REM seed -1083492542 -309023322 297120472 1014747231 -1687294613 -1895448955 437715425 1847115135 362676722 -651978120 -597627631 561048499 1698339071 297967782 1309330520 -1429864946 157103308 1896767269 1219609163 2143593334 325810038 366554826 1235376570 -913883791 -1152585805 318778052 683436311 1093736146 -1214338652 186899795 1057489498 559737421 346317194
REM
CELL 1.54180   50.00000   50.00000   50.00000   90.00000   90.00000   90.00000
LATT -1
SFAC C  
C      1  0.5700330000000  0.5065740000000  0.5201970000000 1.0
C      1  0.5653710000000  0.5233360000000  0.4884850000000 1.0
C      1  0.5690340000000  0.4711200000000  0.4814360000000 1.0
C      1  0.4351420000000  0.5029160000000  0.5306240000000 1.0
C      1  0.4316910000000  0.5279830000000  0.4826760000000 1.0
C      1  0.4335070000000  0.4716890000000  0.4864770000000 1.0
C      1  0.4898090000000  0.5819140000000  0.4303930000000 1.0
C      1  0.4856470000000  0.3995000000000  0.4636060000000 1.0
C      1  0.4842870000000  0.5195980000000  0.6056190000000 1.0
C      1  0.5209240000000  0.5856210000000  0.4306280000000 1.0
C      1  0.5168140000000  0.3971180000000  0.4647730000000 1.0
C      1  0.5155640000000  0.5192720000000  0.6050310000000 1.0
C      1  0.5609980000000  0.5052270000000  0.4609890000000 1.0
C      1  0.5659440000000  0.4623140000000  0.5097750000000 1.0
C      1  0.5586230000000  0.5318240000000  0.5280470000000 1.0
C      1  0.4370780000000  0.5070000000000  0.4615050000000 1.0
C      1  0.4375720000000  0.4641420000000  0.5156600000000 1.0
C      1  0.4394130000000  0.5328110000000  0.5252070000000 1.0
C      1  0.4080950000000  0.5376590000000  0.5206250000000 1.0
C      1  0.4113330000000  0.4936890000000  0.4583690000000 1.0
C      1  0.4081180000000  0.4627580000000  0.5256520000000 1.0
C      1  0.6055580000000  0.5452260000000  0.5219750000000 1.0
C      1  0.5902570000000  0.4963890000000  0.4548820000000 1.0
C      1  0.5932960000000  0.4633940000000  0.5218450000000 1.0
C      1  0.6076990000000  0.4798450000000  0.4970980000000 1.0
C      1  0.6116700000000  0.5165320000000  0.5175530000000 1.0
C      1  0.6089930000000  0.5078390000000  0.4893860000000 1.0
C      1  0.3922680000000  0.4878360000000  0.4968970000000 1.0
C      1  0.3952690000000  0.5064260000000  0.5181540000000 1.0
C      1  0.3920170000000  0.5083540000000  0.4756840000000 1.0
C      1  0.5427240000000  0.4169060000000  0.4239080000000 1.0
C      1  0.5384540000000  0.4800380000000  0.5980910000000 1.0
C      1  0.5350590000000  0.5955830000000  0.4551820000000 1.0
C      1  0.4625330000000  0.4219940000000  0.4360080000000 1.0
C      1  0.4582870000000  0.4774970000000  0.6078920000000 1.0
C      1  0.4624360000000  0.6024670000000  0.4673380000000 1.0
C      1  0.5286830000000  0.4395850000000  0.4977140000000 1.0
C      1  0.5193900000000  0.5139920000000  0.5540040000000 1.0
C      1  0.5204770000000  0.5375770000000  0.4512460000000 1.0
C      1  0.4778190000000  0.4398290000000  0.4948470000000 1.0
C      1  0.4810420000000  0.5247850000000  0.5610350000000 1.0
C      1  0.4708680000000  0.5315680000000  0.4461410000000 1.0
C      1  0.4427450000000  0.5690330000000  0.5667860000000 1.0
C      1  0.4463260000000  0.5229370000000  0.4080710000000 1.0
C      1  0.4471150000000  0.4104510000000  0.5259540000000 1.0
C      1  0.5549160000000  0.5679560000000  0.5654850000000 1.0
C      1  0.5568490000000  0.5229440000000  0.4095240000000 1.0
C      1  0.5555180000000  0.4125670000000  0.5257860000000 1.0
C      1  0.4380370000000  0.5894100000000  0.4677750000000 1.0
C      1  0.4364730000000  0.4291370000000  0.4399910000000 1.0
C      1  0.4350530000000  0.4846640000000  0.5945100000000 1.0
C      1  0.5607850000000  0.5872670000000  0.4664170000000 1.0
C      1  0.5649550000000  0.4263100000000  0.4392580000000 1.0
C      1  0.5632550000000  0.4818560000000  0.5889410000000 1.0
C      1  0.4456180000000  0.4847210000000  0.5510460000000 1.0
C      1  0.4471940000000  0.5515030000000  0.4895620000000 1.0
C      1  0.4496840000000  0.4671010000000  0.4620560000000 1.0
C      1  0.5541490000000  0.4879470000000  0.5382460000000 1.0
C      1  0.5476540000000  0.5481830000000  0.4918530000000 1.0
C      1  0.5522130000000  0.4642590000000  0.4587130000000 1.0
C      1  0.4956070000000  0.5481220000000  0.4959830000000 1.0
C      1  0.4793200000000  0.4826760000000  0.4628760000000 1.0
C      1  0.4850740000000  0.4765120000000  0.5366620000000 1.0
C      1  0.5226120000000  0.5342140000000  0.5032500000000 1.0
C      1  0.5070350000000  0.4720180000000  0.4596790000000 1.0
C      1  0.5106000000000  0.4887290000000  0.5433840000000 1.0
C      1  0.4850160000000  0.5554260000000  0.5665440000000 1.0
C      1  0.4854650000000  0.5268570000000  0.4202100000000 1.0
C      1  0.4847180000000  0.4190990000000  0.5148120000000 1.0
C      1  0.5130690000000  0.5637980000000  0.5709070000000 1.0
C      1  0.5158220000000  0.5282130000000  0.4235770000000 1.0
C      1  0.5158770000000  0.4186490000000  0.5163370000000 1.0
C      1  0.5200570000000  0.5663390000000  0.5435370000000 1.0
C      1  0.5211980000000  0.4976350000000  0.4175580000000 1.0
C      1  0.5206710000000  0.4263090000000  0.5437750000000 1.0
C      1  0.4776550000000  0.5727660000000  0.5386060000000 1.0
C      1  0.4801000000000  0.4985380000000  0.4125790000000 1.0
C      1  0.4800440000000  0.4280400000000  0.5426070000000 1.0
C      1  0.4773270000000  0.4821410000000  0.4909150000000 1.0
C      1  0.4738580000000  0.5027100000000  0.5278140000000 1.0
C      1  0.4786230000000  0.5264060000000  0.4885980000000 1.0
C      1  0.5225020000000  0.4818900000000  0.4822850000000 1.0
C      1  0.5301700000000  0.4770860000000  0.5293170000000 1.0
C      1  0.5247990000000  0.5090030000000  0.4872940000000 1.0
C      1  0.5674210000000  0.4579370000000  0.4325630000000 1.0
C      1  0.5726570000000  0.4582250000000  0.5735980000000 1.0
C      1  0.5657340000000  0.5780000000000  0.4965040000000 1.0
C      1  0.4324830000000  0.4587300000000  0.4308550000000 1.0
C      1  0.4311060000000  0.4637070000000  0.5704560000000 1.0
C      1  0.4317820000000  0.5770120000000  0.4974570000000 1.0
C      1  0.4321790000000  0.5896020000000  0.5475930000000 1.0
C      1  0.4345040000000  0.4967390000000  0.3995720000000 1.0
C      1  0.4344410000000  0.4151200000000  0.5537180000000 1.0
C      1  0.5621060000000  0.5899960000000  0.5467310000000 1.0
C      1  0.5669490000000  0.4965020000000  0.3989420000000 1.0
C      1  0.5668810000000  0.4155350000000  0.5529920000000 1.0
C      1  0.4085480000000  0.5734120000000  0.5418830000000 1.0
C      1  0.4112310000000  0.5021110000000  0.4166320000000 1.0
C      1  0.4086770000000  0.4256680000000  0.5442130000000 1.0
C      1  0.5869120000000  0.5767330000000  0.5412790000000 1.0
C      1  0.5917600000000  0.4995220000000  0.4139680000000 1.0
C      1  0.5913300000000  0.4274460000000  0.5423380000000 1.0
C      1  0.4135560000000  0.5226990000000  0.5654130000000 1.0
C      1  0.4145990000000  0.5481760000000  0.4475530000000 1.0
C      1  0.4120290000000  0.4338350000000  0.4881650000000 1.0
C      1  0.5882140000000  0.5233880000000  0.5627930000000 1.0
C      1  0.5873720000000  0.5422440000000  0.4513900000000 1.0
C      1  0.5880360000000  0.4310580000000  0.4860360000000 1.0
C      1  0.5969650000000  0.4587010000000  0.4796240000000 1.0
C      1  0.5944130000000  0.5071420000000  0.5399120000000 1.0
C      1  0.5915780000000  0.5311640000000  0.4775520000000 1.0
C      1  0.4070190000000  0.4615390000000  0.4838340000000 1.0
C      1  0.4084420000000  0.5026060000000  0.5443900000000 1.0
C      1  0.4051710000000  0.5349640000000  0.4724770000000 1.0
C      1  0.4654350000000  0.5684780000000  0.4226060000000 1.0
C      1  0.4609540000000  0.3993410000000  0.4789720000000 1.0
C      1  0.4597490000000  0.5331630000000  0.5985060000000 1.0
C      1  0.5420680000000  0.5677340000000  0.4243500000000 1.0
C      1  0.5405600000000  0.3988080000000  0.4810030000000 1.0
C      1  0.5400540000000  0.5306380000000  0.5949830000000 1.0
C      1  0.5913930000000  0.4772780000000  0.4328950000000 1.0
C      1  0.5919760000000  0.4546330000000  0.5517670000000 1.0
C      1  0.5903920000000  0.5692670000000  0.5134650000000 1.0
C      1  0.4098370000000  0.4782390000000  0.4339130000000 1.0
C      1  0.4078240000000  0.4534510000000  0.5532840000000 1.0
C      1  0.4078700000000  0.5666540000000  0.5138580000000 1.0
C      1  0.4621190000000  0.5561970000000  0.4633240000000 1.0
C      1  0.4593530000000  0.4414860000000  0.4744910000000 1.0
C      1  0.4623790000000  0.5029560000000  0.5687640000000 1.0
C      1  0.5350860000000  0.5559430000000  0.4660180000000 1.0
C      1  0.5383500000000  0.4396850000000  0.4681990000000 1.0
C      1  0.5462250000000  0.5057850000000  0.5592460000000 1.0
C      1  0.5525710000000  0.4378060000000  0.5132460000000 1.0
C      1  0.5535570000000  0.5446480000000  0.5505820000000 1.0
C      1  0.5539480000000  0.5186360000000  0.4370860000000 1.0
C      1  0.4454120000000  0.4374000000000  0.5203560000000 1.0
C      1  0.4472950000000  0.5480610000000  0.5479000000000 1.0
C      1  0.4477220000000  0.5195540000000  0.4372190000000 1.0
C      1  0.4652550000000  0.3964710000000  0.5068340000000 1.0
C      1  0.4625230000000  0.5595160000000  0.5866300000000 1.0
C      1  0.4663670000000  0.5451830000000  0.4056690000000 1.0
C      1  0.5362410000000  0.3973740000000  0.5093770000000 1.0
C      1  0.5366190000000  0.5579810000000  0.5861110000000 1.0
C      1  0.5362290000000  0.5435490000000  0.4094460000000 1.0
C      1  0.5288470000000  0.4327310000000  0.5829020000000 1.0
C      1  0.5275540000000  0.6050080000000  0.5163950000000 1.0
C      1  0.5302090000000  0.4658090000000  0.3946110000000 1.0
C      1  0.4715470000000  0.4333300000000  0.5816140000000 1.0
C      1  0.4681570000000  0.6079910000000  0.5211860000000 1.0
C      1  0.4709420000000  0.4622230000000  0.3971140000000 1.0
C      1  0.4810080000000  0.4907940000000  0.5970330000000 1.0
C      1  0.4832530000000  0.5830730000000  0.4595690000000 1.0
C      1  0.4889630000000  0.4212620000000  0.4443630000000 1.0
C      1  0.5146630000000  0.4905320000000  0.6054150000000 1.0
C      1  0.5149870000000  0.5825130000000  0.4720970000000 1.0
C      1  0.5206090000000  0.4210800000000  0.4468760000000 1.0
C      1  0.4863710000000  0.5267220000000  0.5342980000000 1.0
C      1  0.4833020000000  0.5140540000000  0.4629750000000 1.0
C      1  0.4888880000000  0.4632810000000  0.5073050000000 1.0
C      1  0.5141770000000  0.5370370000000  0.5331610000000 1.0
C      1  0.5120920000000  0.5150560000000  0.4631110000000 1.0
C      1  0.5200620000000  0.4657410000000  0.5049250000000 1.0
C      1  0.5974850000000  0.5187860000000  0.4369590000000 1.0
C      1  0.5975820000000  0.4331560000000  0.5132720000000 1.0
C      1  0.5963710000000  0.5486870000000  0.5501540000000 1.0
C      1  0.4105810000000  0.5301720000000  0.4257920000000 1.0
C      1  0.4023570000000  0.4351830000000  0.5156380000000 1.0
C      1  0.4034150000000  0.5451520000000  0.5500260000000 1.0
C      1  0.4857070000000  0.4123530000000  0.5667500000000 1.0
C      1  0.4852170000000  0.6009880000000  0.5426970000000 1.0
C      1  0.4832920000000  0.4872290000000  0.3857380000000 1.0
C      1  0.5156360000000  0.4100050000000  0.5680270000000 1.0
C      1  0.5144800000000  0.5951160000000  0.5405890000000 1.0
C      1  0.5132510000000  0.4880670000000  0.3907670000000 1.0
C      1  0.4424390000000  0.5966000000000  0.5207410000000 1.0
C      1  0.4434830000000  0.4691460000000  0.4043960000000 1.0
C      1  0.4443560000000  0.4349760000000  0.5732690000000 1.0
C      1  0.5547560000000  0.5950710000000  0.5186940000000 1.0
C      1  0.5562930000000  0.4697590000000  0.4045840000000 1.0
C      1  0.5571040000000  0.4331250000000  0.5747450000000 1.0
C      1  0.5631760000000  0.5138830000000  0.5817120000000 1.0
C      1  0.5626450000000  0.5647500000000  0.4478030000000 1.0
C      1  0.5629180000000  0.4194570000000  0.4692920000000 1.0
C      1  0.4372230000000  0.5141300000000  0.5858290000000 1.0
C      1  0.4403610000000  0.5684180000000  0.4460000000000 1.0
C      1  0.4375700000000  0.4208350000000  0.4700500000000 1.0
C      1  0.4832120000000  0.4710590000000  0.4231580000000 1.0
C      1  0.4869850000000  0.4526820000000  0.5572350000000 1.0
C      1  0.4873570000000  0.5722930000000  0.5103700000000 1.0
C      1  0.5123550000000  0.4728960000000  0.4313780000000 1.0
C      1  0.5169330000000  0.4498770000000  0.5612670000000 1.0
C      1  0.5084280000000  0.5908340000000  0.4994380000000 1.0
C      1  0.4715640000000  0.5040840000000  0.5021180000000 1.0
END
