TITL C-2441167-4473-654 0.0647470643030455 125000 -25884.8840927578 0 0 186 (C1) n - 1
REM
REM in /home/bkarasulu/work/CARBON/AIRSS/Generating-Clusters/ReaxFF-fromJPCA2015/Units_Real/with-SteepDescent/Higher-Symm
REM
REM
REM
REM
REM
REM ./C.cell (1df0a924f5614ab8850e4351716899ee)
REM
REM compiler GCC version 9.2.1 20190827 (Red Hat 9.2.1-1)
REM options -cpp -mtune=generic -march=x86-64 -g -O0 -fpre-include=/usr/include/finclude/math-vector-fortran.h
REM seed -766042733 -88361922 208626684 1152421278 1385568028 1951787583 103942641 907719820 -1980620358 -1036548721 431086356 417803830 -70957185 -1412778594 1859763502 -573409519 1949758896 -1365858001 1098579257 395336546 1520581522 -1060767545 635799960 1513565343 -271910958 2119882589 166942466 -1762213403 -1159269078 -1808498300 1376465171 243851795 -832631156
REM
CELL 1.54180   50.00000   50.00000   50.00000   90.00000   90.00000   90.00000
LATT -1
SFAC C  
C      1  0.5803800000000  0.5390880000000  0.4688220000000 1.0
C      1  0.4202000000000  0.5364450000000  0.4719920000000 1.0
C      1  0.5726430000000  0.5664170000000  0.4756530000000 1.0
C      1  0.4326880000000  0.5627770000000  0.4770740000000 1.0
C      1  0.5404040000000  0.4554090000000  0.5506180000000 1.0
C      1  0.4585970000000  0.4496520000000  0.5372420000000 1.0
C      1  0.4529860000000  0.4897970000000  0.4529240000000 1.0
C      1  0.5479040000000  0.4967510000000  0.4599750000000 1.0
C      1  0.5903500000000  0.5132920000000  0.5509260000000 1.0
C      1  0.4093650000000  0.5114970000000  0.5487130000000 1.0
C      1  0.4089540000000  0.4468060000000  0.5013720000000 1.0
C      1  0.5869590000000  0.4519720000000  0.5002530000000 1.0
C      1  0.5703460000000  0.5128990000000  0.5712370000000 1.0
C      1  0.4282620000000  0.5118310000000  0.5688550000000 1.0
C      1  0.4651850000000  0.5181540000000  0.4546240000000 1.0
C      1  0.5395970000000  0.5239810000000  0.4560820000000 1.0
C      1  0.4520080000000  0.4786420000000  0.4031680000000 1.0
C      1  0.5595450000000  0.4613300000000  0.4095880000000 1.0
C      1  0.5875560000000  0.4510550000000  0.4711190000000 1.0
C      1  0.4085840000000  0.4493700000000  0.4726950000000 1.0
C      1  0.4577140000000  0.5532610000000  0.4189690000000 1.0
C      1  0.5359290000000  0.5560330000000  0.4172470000000 1.0
C      1  0.5502510000000  0.4771430000000  0.5923070000000 1.0
C      1  0.4584860000000  0.4764940000000  0.5828470000000 1.0
C      1  0.5486220000000  0.5775290000000  0.5248660000000 1.0
C      1  0.4497850000000  0.5856040000000  0.5237350000000 1.0
C      1  0.5354270000000  0.4990880000000  0.3891000000000 1.0
C      1  0.4636010000000  0.5283370000000  0.4042630000000 1.0
C      1  0.4296970000000  0.4875130000000  0.4922530000000 1.0
C      1  0.5423490000000  0.4717670000000  0.5018850000000 1.0
C      1  0.5805410000000  0.5080550000000  0.4248250000000 1.0
C      1  0.4201560000000  0.5081160000000  0.4255280000000 1.0
C      1  0.3920450000000  0.4982180000000  0.4778520000000 1.0
C      1  0.6093030000000  0.4921170000000  0.4875820000000 1.0
C      1  0.5489750000000  0.4183380000000  0.5056710000000 1.0
C      1  0.4556200000000  0.4248930000000  0.5062260000000 1.0
C      1  0.4397680000000  0.5658550000000  0.5054320000000 1.0
C      1  0.5637890000000  0.5649840000000  0.5030730000000 1.0
C      1  0.4557380000000  0.5242570000000  0.5707620000000 1.0
C      1  0.5417900000000  0.5227340000000  0.5784920000000 1.0
C      1  0.4536910000000  0.4407730000000  0.4817370000000 1.0
C      1  0.5487190000000  0.4253940000000  0.4762880000000 1.0
C      1  0.4278040000000  0.4302900000000  0.5164380000000 1.0
C      1  0.5707240000000  0.4349740000000  0.5174370000000 1.0
C      1  0.4738160000000  0.5085800000000  0.5531460000000 1.0
C      1  0.5212570000000  0.5145530000000  0.5523410000000 1.0
C      1  0.5821240000000  0.4685450000000  0.5557800000000 1.0
C      1  0.4187170000000  0.4653620000000  0.5542070000000 1.0
C      1  0.5317170000000  0.4913990000000  0.4838120000000 1.0
C      1  0.4817100000000  0.4800990000000  0.4777890000000 1.0
C      1  0.4534210000000  0.6055410000000  0.5034610000000 1.0
C      1  0.5342410000000  0.5968490000000  0.5086160000000 1.0
C      1  0.5295950000000  0.5587250000000  0.5388300000000 1.0
C      1  0.4831040000000  0.5507230000000  0.5297980000000 1.0
C      1  0.5530980000000  0.4944400000000  0.4108500000000 1.0
C      1  0.4431560000000  0.5066650000000  0.4055040000000 1.0
C      1  0.5333510000000  0.4580490000000  0.5790990000000 1.0
C      1  0.4739060000000  0.4542980000000  0.5617540000000 1.0
C      1  0.5349870000000  0.5943670000000  0.4799050000000 1.0
C      1  0.4667060000000  0.5892650000000  0.4833950000000 1.0
C      1  0.5274580000000  0.5482040000000  0.5810540000000 1.0
C      1  0.4703710000000  0.5531990000000  0.5704370000000 1.0
C      1  0.4317460000000  0.4827820000000  0.5745290000000 1.0
C      1  0.5711190000000  0.4851080000000  0.5766910000000 1.0
C      1  0.5343480000000  0.4750770000000  0.5295890000000 1.0
C      1  0.4663250000000  0.4711010000000  0.5200420000000 1.0
C      1  0.5996300000000  0.5331120000000  0.5170910000000 1.0
C      1  0.3997680000000  0.5321570000000  0.5153580000000 1.0
C      1  0.4209220000000  0.5314570000000  0.5334390000000 1.0
C      1  0.5784580000000  0.5322050000000  0.5358130000000 1.0
C      1  0.5673360000000  0.4366760000000  0.4549360000000 1.0
C      1  0.4324980000000  0.4346170000000  0.4618400000000 1.0
C      1  0.4087550000000  0.4756830000000  0.5093110000000 1.0
C      1  0.5971410000000  0.4779840000000  0.5102130000000 1.0
C      1  0.5366320000000  0.4839540000000  0.4372370000000 1.0
C      1  0.4600550000000  0.4691770000000  0.4313620000000 1.0
C      1  0.4478770000000  0.4467440000000  0.4419810000000 1.0
C      1  0.5526440000000  0.4541600000000  0.4353390000000 1.0
C      1  0.5473770000000  0.5418460000000  0.4993830000000 1.0
C      1  0.4619630000000  0.5432820000000  0.5064630000000 1.0
C      1  0.4711950000000  0.5719620000000  0.4373190000000 1.0
C      1  0.5321520000000  0.5734410000000  0.4397860000000 1.0
C      1  0.5798820000000  0.4920190000000  0.4484230000000 1.0
C      1  0.4241330000000  0.4883270000000  0.4462460000000 1.0
C      1  0.4636970000000  0.5023850000000  0.5935590000000 1.0
C      1  0.5346400000000  0.4995090000000  0.6015900000000 1.0
C      1  0.4449340000000  0.5213730000000  0.5155750000000 1.0
C      1  0.5569530000000  0.5191480000000  0.5171560000000 1.0
C      1  0.6076720000000  0.5169580000000  0.4996140000000 1.0
C      1  0.3896850000000  0.5204690000000  0.4935160000000 1.0
C      1  0.5650560000000  0.5230440000000  0.4874510000000 1.0
C      1  0.4314640000000  0.5156730000000  0.4897580000000 1.0
C      1  0.4325660000000  0.4434540000000  0.5414900000000 1.0
C      1  0.5670940000000  0.4457160000000  0.5444400000000 1.0
C      1  0.4771540000000  0.5354750000000  0.4815050000000 1.0
C      1  0.5236200000000  0.5378630000000  0.4754680000000 1.0
C      1  0.4021530000000  0.4761100000000  0.4621570000000 1.0
C      1  0.5990450000000  0.4770050000000  0.4635800000000 1.0
C      1  0.4467500000000  0.5370440000000  0.4407290000000 1.0
C      1  0.5520070000000  0.5365930000000  0.4329580000000 1.0
C      1  0.5410480000000  0.4515680000000  0.4821540000000 1.0
C      1  0.4556980000000  0.4707160000000  0.4912970000000 1.0
C      1  0.4537680000000  0.5763280000000  0.4605820000000 1.0
C      1  0.5512540000000  0.5806560000000  0.4608580000000 1.0
C      1  0.5295490000000  0.5034880000000  0.5283540000000 1.0
C      1  0.4702160000000  0.5032650000000  0.5257760000000 1.0
C      1  0.5808420000000  0.5335410000000  0.4393500000000 1.0
C      1  0.4184580000000  0.5318960000000  0.4421340000000 1.0
C      1  0.4696910000000  0.5738960000000  0.5480180000000 1.0
C      1  0.5358330000000  0.5709140000000  0.5647060000000 1.0
C      1  0.5941130000000  0.4866610000000  0.5378060000000 1.0
C      1  0.4064180000000  0.4840120000000  0.5372710000000 1.0
C      1  0.4891240000000  0.3944580000000  0.5265320000000 1.0
C      1  0.4987450000000  0.5452230000000  0.3615520000000 1.0
C      1  0.4995360000000  0.4297210000000  0.3841020000000 1.0
C      1  0.5009230000000  0.4013480000000  0.4023040000000 1.0
C      1  0.5051120000000  0.4168430000000  0.5389840000000 1.0
C      1  0.4752560000000  0.4012570000000  0.5016960000000 1.0
C      1  0.5010730000000  0.5842420000000  0.6240440000000 1.0
C      1  0.4940800000000  0.4580930000000  0.6159660000000 1.0
C      1  0.4987470000000  0.6137660000000  0.4469130000000 1.0
C      1  0.5045450000000  0.4450120000000  0.5033050000000 1.0
C      1  0.4936050000000  0.5832610000000  0.4944910000000 1.0
C      1  0.4947740000000  0.3905550000000  0.4291700000000 1.0
C      1  0.4962170000000  0.5766090000000  0.4026180000000 1.0
C      1  0.5001430000000  0.6315750000000  0.5572120000000 1.0
C      1  0.5050510000000  0.6340410000000  0.5292880000000 1.0
C      1  0.5083190000000  0.5906760000000  0.4689220000000 1.0
C      1  0.5014840000000  0.4563060000000  0.4495740000000 1.0
C      1  0.4886390000000  0.4087500000000  0.4498220000000 1.0
C      1  0.4869010000000  0.3934990000000  0.4757940000000 1.0
C      1  0.5201920000000  0.4983430000000  0.6299510000000 1.0
C      1  0.5043860000000  0.5470200000000  0.6358160000000 1.0
C      1  0.5019950000000  0.3692300000000  0.5692620000000 1.0
C      1  0.5021290000000  0.4152050000000  0.5864190000000 1.0
C      1  0.5025290000000  0.3454210000000  0.4951660000000 1.0
C      1  0.4954370000000  0.5723830000000  0.3716960000000 1.0
C      1  0.5030720000000  0.5706020000000  0.4483310000000 1.0
C      1  0.5036900000000  0.4956620000000  0.4882790000000 1.0
C      1  0.4949920000000  0.5918050000000  0.5455940000000 1.0
C      1  0.5160230000000  0.5941030000000  0.5658940000000 1.0
C      1  0.5093550000000  0.5505510000000  0.4061260000000 1.0
C      1  0.4969600000000  0.4696200000000  0.5507990000000 1.0
C      1  0.5022200000000  0.4176400000000  0.6139250000000 1.0
C      1  0.5047120000000  0.5228460000000  0.3615830000000 1.0
C      1  0.5015120000000  0.4356590000000  0.6316990000000 1.0
C      1  0.4975310000000  0.3701210000000  0.4622040000000 1.0
C      1  0.4890290000000  0.5161610000000  0.5998170000000 1.0
C      1  0.4921250000000  0.5239410000000  0.4105690000000 1.0
C      1  0.5052430000000  0.6179520000000  0.5821590000000 1.0
C      1  0.5070180000000  0.4936290000000  0.5898080000000 1.0
C      1  0.4999870000000  0.4936840000000  0.4143900000000 1.0
C      1  0.5060690000000  0.4450840000000  0.4213020000000 1.0
C      1  0.4940480000000  0.6012860000000  0.4207290000000 1.0
C      1  0.4932230000000  0.5203590000000  0.4440670000000 1.0
C      1  0.5069530000000  0.6021400000000  0.5201640000000 1.0
C      1  0.4958020000000  0.4651230000000  0.5226220000000 1.0
C      1  0.4722470000000  0.6299570000000  0.4910970000000 1.0
C      1  0.4989800000000  0.4702740000000  0.3755900000000 1.0
C      1  0.5070480000000  0.5397920000000  0.5465920000000 1.0
C      1  0.4964930000000  0.4552620000000  0.4777460000000 1.0
C      1  0.5014530000000  0.5084930000000  0.5133520000000 1.0
C      1  0.4934910000000  0.3681200000000  0.5406360000000 1.0
C      1  0.5036650000000  0.3864600000000  0.5843270000000 1.0
C      1  0.5060570000000  0.4308020000000  0.4446120000000 1.0
C      1  0.5219420000000  0.4251520000000  0.5155620000000 1.0
C      1  0.4959600000000  0.5612620000000  0.6181760000000 1.0
C      1  0.5068380000000  0.4646590000000  0.5890660000000 1.0
C      1  0.5033900000000  0.3465440000000  0.4701050000000 1.0
C      1  0.4989690000000  0.4439910000000  0.3661160000000 1.0
C      1  0.4963320000000  0.5995820000000  0.6025410000000 1.0
C      1  0.4963350000000  0.5430330000000  0.5788860000000 1.0
C      1  0.5017460000000  0.5594970000000  0.5103230000000 1.0
C      1  0.5087230000000  0.4735650000000  0.6346120000000 1.0
C      1  0.5083080000000  0.4930410000000  0.4414010000000 1.0
C      1  0.4934340000000  0.4297820000000  0.5622140000000 1.0
C      1  0.5157970000000  0.4972080000000  0.3700630000000 1.0
C      1  0.4998010000000  0.5212010000000  0.6289890000000 1.0
C      1  0.4930900000000  0.6400310000000  0.5047040000000 1.0
C      1  0.4874210000000  0.6291580000000  0.4674820000000 1.0
C      1  0.5030430000000  0.5340590000000  0.4971890000000 1.0
C      1  0.4991450000000  0.4967440000000  0.5607830000000 1.0
C      1  0.5007160000000  0.3781130000000  0.3916350000000 1.0
C      1  0.4991050000000  0.3540200000000  0.5186210000000 1.0
C      1  0.4988610000000  0.4677830000000  0.4044150000000 1.0
C      1  0.4999990000000  0.5438790000000  0.4596620000000 1.0
END
