TITL C-2441159-1093-67 0.0041537794469126 125000 -10783.1675429338 0 0 73 (C1) n - 1
REM
REM in /home/bkarasulu/work/CARBON/AIRSS/Generating-Clusters/ReaxFF-fromJPCA2015/Units_Real/with-SteepDescent/Higher-Symm
REM
REM
REM
REM
REM
REM ./C.cell (1df0a924f5614ab8850e4351716899ee)
REM
REM compiler GCC version 9.2.1 20190827 (Red Hat 9.2.1-1)
REM options -cpp -mtune=generic -march=x86-64 -g -O0 -fpre-include=/usr/include/finclude/math-vector-fortran.h
REM seed -661575119 -50548227 1104124517 1440792736 -1668597854 1136961543 -13791194 1832563716 -1364877947 1999420353 -1320642460 1924102838 1515505115 1199336166 662532408 -1129287109 252503262 246929525 -1162934477 1616396618 -1331436920 1497057909 1156005092 -1244187727 2038715305 601481827 -2131137361 773044221 -1239840085 -1180060108 -999843348 674210728 1469678
REM
CELL 1.54180   50.00000   50.00000   50.00000   90.00000   90.00000   90.00000
LATT -1
SFAC C  
C      1  0.5366090000000  0.4491240000000  0.5221760000000 1.0
C      1  0.4637990000000  0.5610210000000  0.5260340000000 1.0
C      1  0.5395200000000  0.5552290000000  0.4775450000000 1.0
C      1  0.4645010000000  0.4464980000000  0.4778630000000 1.0
C      1  0.5517670000000  0.4866110000000  0.4480340000000 1.0
C      1  0.4525230000000  0.5114090000000  0.4477600000000 1.0
C      1  0.5511650000000  0.5141550000000  0.5517880000000 1.0
C      1  0.4506670000000  0.4839680000000  0.5523870000000 1.0
C      1  0.4865420000000  0.5500600000000  0.4410580000000 1.0
C      1  0.5163290000000  0.4492470000000  0.4397440000000 1.0
C      1  0.4877010000000  0.4493010000000  0.5598880000000 1.0
C      1  0.5162760000000  0.5502540000000  0.5595280000000 1.0
C      1  0.5702670000000  0.4752550000000  0.5266920000000 1.0
C      1  0.4405290000000  0.5228210000000  0.5244350000000 1.0
C      1  0.5690880000000  0.5238990000000  0.4746970000000 1.0
C      1  0.4322490000000  0.4771200000000  0.4739410000000 1.0
C      1  0.5565670000000  0.4747270000000  0.4759800000000 1.0
C      1  0.4446150000000  0.5231430000000  0.4731530000000 1.0
C      1  0.5528040000000  0.5255870000000  0.5230590000000 1.0
C      1  0.4417440000000  0.4732040000000  0.5205700000000 1.0
C      1  0.4906350000000  0.5387150000000  0.5680210000000 1.0
C      1  0.5133990000000  0.4623760000000  0.5678380000000 1.0
C      1  0.4901110000000  0.4616640000000  0.4320210000000 1.0
C      1  0.5130340000000  0.5378010000000  0.4342960000000 1.0
C      1  0.5314150000000  0.4736950000000  0.4314710000000 1.0
C      1  0.4726020000000  0.5252140000000  0.4317550000000 1.0
C      1  0.5312440000000  0.5262550000000  0.5688320000000 1.0
C      1  0.4720710000000  0.4723270000000  0.5690710000000 1.0
C      1  0.4475710000000  0.5461390000000  0.5075530000000 1.0
C      1  0.5608540000000  0.4572570000000  0.5063490000000 1.0
C      1  0.4405610000000  0.4585620000000  0.4943500000000 1.0
C      1  0.5584580000000  0.5423440000000  0.4944220000000 1.0
C      1  0.5553700000000  0.4983710000000  0.5128210000000 1.0
C      1  0.4304710000000  0.4989110000000  0.5123410000000 1.0
C      1  0.5546700000000  0.5008580000000  0.4868580000000 1.0
C      1  0.4298230000000  0.5023920000000  0.4854950000000 1.0
C      1  0.5266920000000  0.4791420000000  0.5132500000000 1.0
C      1  0.4691340000000  0.5198620000000  0.5296780000000 1.0
C      1  0.5194260000000  0.5169140000000  0.4855000000000 1.0
C      1  0.4796920000000  0.4691960000000  0.4885600000000 1.0
C      1  0.4676700000000  0.5410610000000  0.5494990000000 1.0
C      1  0.5374860000000  0.4625110000000  0.5518070000000 1.0
C      1  0.4663210000000  0.4602910000000  0.4481310000000 1.0
C      1  0.5369600000000  0.5385160000000  0.4508320000000 1.0
C      1  0.5275690000000  0.4697230000000  0.4808390000000 1.0
C      1  0.4676430000000  0.5374990000000  0.4857310000000 1.0
C      1  0.5235800000000  0.5274880000000  0.5186070000000 1.0
C      1  0.4751990000000  0.4711000000000  0.5175700000000 1.0
C      1  0.5058200000000  0.4856320000000  0.4220340000000 1.0
C      1  0.4986100000000  0.5139260000000  0.4230180000000 1.0
C      1  0.5048160000000  0.5141680000000  0.5764070000000 1.0
C      1  0.4974130000000  0.4858180000000  0.5774330000000 1.0
C      1  0.4838680000000  0.5776350000000  0.5126200000000 1.0
C      1  0.5176100000000  0.4269580000000  0.5111220000000 1.0
C      1  0.4828500000000  0.4247170000000  0.4899740000000 1.0
C      1  0.5197380000000  0.5739100000000  0.4898130000000 1.0
C      1  0.5108840000000  0.4240060000000  0.4833320000000 1.0
C      1  0.4913630000000  0.5793860000000  0.4834380000000 1.0
C      1  0.5127000000000  0.5745260000000  0.5184080000000 1.0
C      1  0.4898310000000  0.4255890000000  0.5178950000000 1.0
C      1  0.5558280000000  0.4849520000000  0.5516450000000 1.0
C      1  0.4455990000000  0.5106690000000  0.5608880000000 1.0
C      1  0.5554190000000  0.5158310000000  0.4488920000000 1.0
C      1  0.4476120000000  0.4819190000000  0.4491280000000 1.0
C      1  0.4852590000000  0.4969030000000  0.5279780000000 1.0
C      1  0.5120520000000  0.5008250000000  0.5256980000000 1.0
C      1  0.4880170000000  0.4926680000000  0.4739970000000 1.0
C      1  0.5163180000000  0.4926810000000  0.4697560000000 1.0
C      1  0.5175150000000  0.5514010000000  0.5319670000000 1.0
C      1  0.4821150000000  0.4467400000000  0.5322140000000 1.0
C      1  0.5204500000000  0.4443090000000  0.4678120000000 1.0
C      1  0.4791880000000  0.5589620000000  0.4672750000000 1.0
C      1  0.4909370000000  0.5168990000000  0.4892970000000 1.0
END
