TITL C-2441162-9305-1224 0.169340725571404 125000 -10395.6628440712 0 0 102 (C1) n - 1
REM
REM in /home/bkarasulu/work/CARBON/AIRSS/Generating-Clusters/ReaxFF-fromJPCA2015/Units_Real/with-SteepDescent/Higher-Symm
REM
REM
REM
REM
REM
REM ./C.cell (1df0a924f5614ab8850e4351716899ee)
REM
REM compiler GCC version 9.2.1 20190827 (Red Hat 9.2.1-1)
REM options -cpp -mtune=generic -march=x86-64 -g -O0 -fpre-include=/usr/include/finclude/math-vector-fortran.h
REM seed -1206054033 -1546542804 -1192784991 693199590 81039815 1379397466 217958611 1919903851 -1817571695 -987018158 377343469 -1815968061 1130572074 -2073568258 490852847 50380013 -986663892 -1374090027 477974325 1548394294 -927549268 44688379 -1068184354 -458995495 461648457 298170926 1821319373 -1321722903 -106669446 -1381447363 -2012307129 1346854908 1897703970
REM
CELL 1.54180   50.00000   50.00000   50.00000   90.00000   90.00000   90.00000
LATT -1
SFAC C  
C      1  0.5251050000000  0.5585640000000  0.4803820000000 1.0
C      1  0.5246150000000  0.4872760000000  0.5606220000000 1.0
C      1  0.5262730000000  0.4542230000000  0.4599890000000 1.0
C      1  0.5250790000000  0.5590000000000  0.5195210000000 1.0
C      1  0.5245130000000  0.4874410000000  0.4393510000000 1.0
C      1  0.5256050000000  0.4538400000000  0.5406200000000 1.0
C      1  0.5112440000000  0.4185540000000  0.5297300000000 1.0
C      1  0.5122490000000  0.5149180000000  0.4146880000000 1.0
C      1  0.5112420000000  0.5665370000000  0.5556040000000 1.0
C      1  0.5109210000000  0.4187290000000  0.4701080000000 1.0
C      1  0.5120530000000  0.5150060000000  0.5858440000000 1.0
C      1  0.5115150000000  0.5664050000000  0.4443470000000 1.0
C      1  0.4589320000000  0.4519760000000  0.4468760000000 1.0
C      1  0.4591830000000  0.5735620000000  0.4862810000000 1.0
C      1  0.4594220000000  0.4781240000000  0.5679690000000 1.0
C      1  0.4587440000000  0.4519640000000  0.5530510000000 1.0
C      1  0.4586840000000  0.5739560000000  0.5142100000000 1.0
C      1  0.4595880000000  0.4783190000000  0.4319870000000 1.0
C      1  0.4727740000000  0.4146760000000  0.4853260000000 1.0
C      1  0.4725900000000  0.5577660000000  0.4349840000000 1.0
C      1  0.4730790000000  0.5279280000000  0.5821870000000 1.0
C      1  0.4730400000000  0.4143730000000  0.5151690000000 1.0
C      1  0.4726330000000  0.5571150000000  0.5654730000000 1.0
C      1  0.4730600000000  0.5270660000000  0.4177310000000 1.0
C      1  0.4505010000000  0.4325320000000  0.5142060000000 1.0
C      1  0.4504670000000  0.5216960000000  0.4339620000000 1.0
C      1  0.4507060000000  0.5472000000000  0.5518220000000 1.0
C      1  0.4506180000000  0.4326350000000  0.4856760000000 1.0
C      1  0.4505660000000  0.5218460000000  0.5659030000000 1.0
C      1  0.4506430000000  0.5471020000000  0.4481020000000 1.0
C      1  0.4726560000000  0.5333930000000  0.4879300000000 1.0
C      1  0.4738730000000  0.4904070000000  0.5416910000000 1.0
C      1  0.4743320000000  0.4684120000000  0.4698230000000 1.0
C      1  0.4729500000000  0.5329780000000  0.5117270000000 1.0
C      1  0.4739640000000  0.4901910000000  0.4584370000000 1.0
C      1  0.4742780000000  0.4685190000000  0.5300790000000 1.0
C      1  0.5029600000000  0.5196600000000  0.5588180000000 1.0
C      1  0.5015350000000  0.4395270000000  0.4878570000000 1.0
C      1  0.5019530000000  0.5403760000000  0.4526560000000 1.0
C      1  0.5026200000000  0.5196420000000  0.4410040000000 1.0
C      1  0.5022590000000  0.4393540000000  0.5115360000000 1.0
C      1  0.5020010000000  0.5403020000000  0.5473790000000 1.0
C      1  0.5237730000000  0.4993930000000  0.4716880000000 1.0
C      1  0.5254090000000  0.5250580000000  0.5138050000000 1.0
C      1  0.5255920000000  0.4764510000000  0.5143260000000 1.0
C      1  0.5241280000000  0.5001630000000  0.5283550000000 1.0
C      1  0.5261850000000  0.5247520000000  0.4864460000000 1.0
C      1  0.5244950000000  0.4759540000000  0.4842470000000 1.0
C      1  0.4991810000000  0.4751400000000  0.5716530000000 1.0
C      1  0.4996780000000  0.4498070000000  0.4430870000000 1.0
C      1  0.4974310000000  0.5735200000000  0.4859260000000 1.0
C      1  0.4992050000000  0.4746260000000  0.4285210000000 1.0
C      1  0.4993670000000  0.4499560000000  0.5570560000000 1.0
C      1  0.4975100000000  0.5738680000000  0.5142550000000 1.0
C      1  0.5409310000000  0.5641330000000  0.5428810000000 1.0
C      1  0.5420910000000  0.4311920000000  0.5347570000000 1.0
C      1  0.5415690000000  0.5043530000000  0.4229110000000 1.0
C      1  0.5412340000000  0.5640790000000  0.4572860000000 1.0
C      1  0.5418410000000  0.4315500000000  0.4652100000000 1.0
C      1  0.5418840000000  0.5043530000000  0.5769720000000 1.0
C      1  0.5581040000000  0.4461140000000  0.5139410000000 1.0
C      1  0.5573690000000  0.5151490000000  0.4465360000000 1.0
C      1  0.5575920000000  0.5391320000000  0.5398200000000 1.0
C      1  0.5579850000000  0.4460990000000  0.4864000000000 1.0
C      1  0.5570280000000  0.5149190000000  0.5533520000000 1.0
C      1  0.5576640000000  0.5393060000000  0.4602600000000 1.0
C      1  0.5502960000000  0.5719780000000  0.4872050000000 1.0
C      1  0.5506810000000  0.4754210000000  0.5686040000000 1.0
C      1  0.5502470000000  0.4527710000000  0.4451440000000 1.0
C      1  0.5505360000000  0.5720840000000  0.5127710000000 1.0
C      1  0.5504420000000  0.4749620000000  0.4314110000000 1.0
C      1  0.5510540000000  0.4528810000000  0.5550060000000 1.0
C      1  0.4392880000000  0.4511570000000  0.4683760000000 1.0
C      1  0.4416410000000  0.5544490000000  0.4740410000000 1.0
C      1  0.4390260000000  0.4970140000000  0.5584200000000 1.0
C      1  0.4391600000000  0.4511340000000  0.5315680000000 1.0
C      1  0.4410590000000  0.5548090000000  0.5260400000000 1.0
C      1  0.4391530000000  0.4970290000000  0.4417810000000 1.0
C      1  0.4427620000000  0.5267170000000  0.4846260000000 1.0
C      1  0.4396870000000  0.4998050000000  0.5295640000000 1.0
C      1  0.4397150000000  0.4745240000000  0.4852820000000 1.0
C      1  0.4425900000000  0.5267750000000  0.5153260000000 1.0
C      1  0.4396690000000  0.4998060000000  0.4705020000000 1.0
C      1  0.4395190000000  0.4744670000000  0.5147280000000 1.0
C      1  0.5695390000000  0.5256240000000  0.4846370000000 1.0
C      1  0.5684890000000  0.5005540000000  0.5294830000000 1.0
C      1  0.5687220000000  0.4742120000000  0.4857730000000 1.0
C      1  0.5687310000000  0.5254040000000  0.5152540000000 1.0
C      1  0.5685130000000  0.5003250000000  0.4708050000000 1.0
C      1  0.5695650000000  0.4739460000000  0.5143750000000 1.0
C      1  0.4952540000000  0.4663840000000  0.5138150000000 1.0
C      1  0.4962690000000  0.5047280000000  0.4630060000000 1.0
C      1  0.4961190000000  0.5276720000000  0.5226470000000 1.0
C      1  0.4954600000000  0.4660090000000  0.4855730000000 1.0
C      1  0.4967350000000  0.5046010000000  0.5373780000000 1.0
C      1  0.4952230000000  0.5282250000000  0.4773410000000 1.0
C      1  0.4862470000000  0.5015000000000  0.4121490000000 1.0
C      1  0.4849610000000  0.5744970000000  0.5443280000000 1.0
C      1  0.4868740000000  0.4249670000000  0.5441190000000 1.0
C      1  0.4862460000000  0.5013570000000  0.5874820000000 1.0
C      1  0.4851900000000  0.5748050000000  0.4554030000000 1.0
C      1  0.4870670000000  0.4252540000000  0.4556890000000 1.0
END
