TITL C-2441157-2117-2 0.126172887750729 125000 -17431.8473802872 0 0 143 (C1) n - 1
REM
REM in /home/bkarasulu/work/CARBON/AIRSS/Generating-Clusters/ReaxFF-fromJPCA2015/Units_Real/with-SteepDescent/Higher-Symm
REM
REM
REM
REM
REM
REM ./C.cell (1df0a924f5614ab8850e4351716899ee)
REM
REM compiler GCC version 9.2.1 20190827 (Red Hat 9.2.1-1)
REM options -cpp -mtune=generic -march=x86-64 -g -O0 -fpre-include=/usr/include/finclude/math-vector-fortran.h
REM seed -759859599 1204828940 -495755531 436284624 -854296593 -1944412998 2072814522 882588132 -1720243718 -2076188581 -8757292 1427438148 1957769217 1738784489 1635927197 -678025837 -1395617388 -1470902003 741877230 -1383022142 831032720 1164878839 771832870 -1680351790 -312957254 3958486 -299749885 1625349080 -559003203 937183659 -128444699 -1168603882 -261797793
REM
CELL 1.54180   50.00000   50.00000   50.00000   90.00000   90.00000   90.00000
LATT -1
SFAC C  
C      1  0.5225680000000  0.4448070000000  0.5592300000000 1.0
C      1  0.4808890000000  0.4508990000000  0.4409120000000 1.0
C      1  0.5190980000000  0.5527210000000  0.5593490000000 1.0
C      1  0.4770180000000  0.5535450000000  0.4432280000000 1.0
C      1  0.4747710000000  0.4383530000000  0.5593120000000 1.0
C      1  0.5231270000000  0.4536350000000  0.4384300000000 1.0
C      1  0.4803490000000  0.5578110000000  0.5588110000000 1.0
C      1  0.5236120000000  0.5567230000000  0.4414510000000 1.0
C      1  0.5604970000000  0.4864490000000  0.4302020000000 1.0
C      1  0.4428920000000  0.4849400000000  0.5675790000000 1.0
C      1  0.5595420000000  0.5163860000000  0.4313870000000 1.0
C      1  0.4427510000000  0.5151320000000  0.5680810000000 1.0
C      1  0.4400710000000  0.4856630000000  0.4305140000000 1.0
C      1  0.5584420000000  0.4849480000000  0.5690370000000 1.0
C      1  0.4404300000000  0.5161080000000  0.4309200000000 1.0
C      1  0.5580750000000  0.5151270000000  0.5692990000000 1.0
C      1  0.4861490000000  0.5811540000000  0.4586670000000 1.0
C      1  0.5141330000000  0.5843740000000  0.5365550000000 1.0
C      1  0.4900600000000  0.4222870000000  0.4606850000000 1.0
C      1  0.5147810000000  0.4180750000000  0.5410140000000 1.0
C      1  0.5133570000000  0.5817270000000  0.4584130000000 1.0
C      1  0.4870950000000  0.5837200000000  0.5378770000000 1.0
C      1  0.5178850000000  0.4196210000000  0.4606570000000 1.0
C      1  0.4876950000000  0.4183490000000  0.5410890000000 1.0
C      1  0.4117150000000  0.4853690000000  0.4696790000000 1.0
C      1  0.5854510000000  0.4866390000000  0.5291780000000 1.0
C      1  0.4139820000000  0.5145540000000  0.4694310000000 1.0
C      1  0.5847870000000  0.5152850000000  0.5302620000000 1.0
C      1  0.5917870000000  0.4843580000000  0.4652210000000 1.0
C      1  0.4131780000000  0.4879390000000  0.5312610000000 1.0
C      1  0.5872120000000  0.5123250000000  0.4676750000000 1.0
C      1  0.4170330000000  0.5163360000000  0.5294740000000 1.0
C      1  0.4190950000000  0.4703600000000  0.4461190000000 1.0
C      1  0.5800830000000  0.4722450000000  0.5529540000000 1.0
C      1  0.4179070000000  0.5290950000000  0.4447340000000 1.0
C      1  0.5799740000000  0.5295540000000  0.5550740000000 1.0
C      1  0.5809660000000  0.4699500000000  0.4429460000000 1.0
C      1  0.4188900000000  0.4721220000000  0.5548740000000 1.0
C      1  0.5829840000000  0.5291900000000  0.4440760000000 1.0
C      1  0.4191250000000  0.5294350000000  0.5557860000000 1.0
C      1  0.4165360000000  0.4454670000000  0.5411410000000 1.0
C      1  0.5814590000000  0.4424940000000  0.4575550000000 1.0
C      1  0.4176270000000  0.5569510000000  0.5432910000000 1.0
C      1  0.5835750000000  0.5555540000000  0.4596810000000 1.0
C      1  0.5847760000000  0.4439350000000  0.5399220000000 1.0
C      1  0.4155950000000  0.4434380000000  0.4591300000000 1.0
C      1  0.5844990000000  0.5565400000000  0.5404700000000 1.0
C      1  0.4152340000000  0.5581210000000  0.4586310000000 1.0
C      1  0.4203170000000  0.4521100000000  0.5117810000000 1.0
C      1  0.5777160000000  0.4485910000000  0.4873580000000 1.0
C      1  0.4237550000000  0.5620880000000  0.5135290000000 1.0
C      1  0.5770950000000  0.5469730000000  0.4877980000000 1.0
C      1  0.5767760000000  0.4358730000000  0.5126200000000 1.0
C      1  0.4252560000000  0.4394170000000  0.4862990000000 1.0
C      1  0.5763080000000  0.5622570000000  0.5122800000000 1.0
C      1  0.4171200000000  0.5595260000000  0.4870800000000 1.0
C      1  0.4571640000000  0.5586240000000  0.5421820000000 1.0
C      1  0.5442970000000  0.5572860000000  0.4610880000000 1.0
C      1  0.4559130000000  0.4410250000000  0.5381360000000 1.0
C      1  0.5409020000000  0.4414050000000  0.4574450000000 1.0
C      1  0.5431810000000  0.5591910000000  0.5441350000000 1.0
C      1  0.4548700000000  0.5547030000000  0.4614510000000 1.0
C      1  0.5449600000000  0.4440690000000  0.5408880000000 1.0
C      1  0.4558710000000  0.4430110000000  0.4513440000000 1.0
C      1  0.5569160000000  0.5164790000000  0.5227460000000 1.0
C      1  0.4431890000000  0.5123690000000  0.4766690000000 1.0
C      1  0.5566760000000  0.4890970000000  0.5179100000000 1.0
C      1  0.4402710000000  0.4850750000000  0.4779850000000 1.0
C      1  0.4431390000000  0.5187560000000  0.5181370000000 1.0
C      1  0.5617100000000  0.5207450000000  0.4812590000000 1.0
C      1  0.4369760000000  0.4765320000000  0.5180380000000 1.0
C      1  0.5704370000000  0.4753050000000  0.4823160000000 1.0
C      1  0.5153670000000  0.4732500000000  0.5946920000000 1.0
C      1  0.4840580000000  0.4761330000000  0.4037950000000 1.0
C      1  0.5147560000000  0.5248830000000  0.5955810000000 1.0
C      1  0.4849050000000  0.5282350000000  0.4063720000000 1.0
C      1  0.4831470000000  0.4724940000000  0.5928430000000 1.0
C      1  0.5163150000000  0.4760490000000  0.4027680000000 1.0
C      1  0.4831730000000  0.5263690000000  0.5940870000000 1.0
C      1  0.5167910000000  0.5279100000000  0.4065720000000 1.0
C      1  0.5144000000000  0.4598230000000  0.5147130000000 1.0
C      1  0.4759460000000  0.4545310000000  0.4890540000000 1.0
C      1  0.5128220000000  0.5414020000000  0.5151400000000 1.0
C      1  0.4839440000000  0.5449840000000  0.4874610000000 1.0
C      1  0.4876670000000  0.4587890000000  0.5141080000000 1.0
C      1  0.5219850000000  0.4561230000000  0.4911620000000 1.0
C      1  0.4860150000000  0.5396440000000  0.5140510000000 1.0
C      1  0.5157260000000  0.5456450000000  0.4870360000000 1.0
C      1  0.4361880000000  0.4216210000000  0.4483390000000 1.0
C      1  0.5678920000000  0.4288170000000  0.5577630000000 1.0
C      1  0.4373580000000  0.5645660000000  0.4418220000000 1.0
C      1  0.5664430000000  0.5697180000000  0.5574180000000 1.0
C      1  0.5628790000000  0.4236240000000  0.4485990000000 1.0
C      1  0.4357140000000  0.4354870000000  0.5592410000000 1.0
C      1  0.5635660000000  0.5651290000000  0.4421090000000 1.0
C      1  0.4378890000000  0.5647930000000  0.5615360000000 1.0
C      1  0.4534370000000  0.5697410000000  0.5149600000000 1.0
C      1  0.5361150000000  0.5663930000000  0.4858890000000 1.0
C      1  0.4561660000000  0.4234010000000  0.5160250000000 1.0
C      1  0.5374130000000  0.4346090000000  0.4906330000000 1.0
C      1  0.5478670000000  0.5710260000000  0.5132760000000 1.0
C      1  0.4640600000000  0.5644960000000  0.4868200000000 1.0
C      1  0.5493140000000  0.4281830000000  0.5160330000000 1.0
C      1  0.4568780000000  0.4320470000000  0.4894890000000 1.0
C      1  0.4773270000000  0.5191480000000  0.4748890000000 1.0
C      1  0.5296070000000  0.5234280000000  0.5282730000000 1.0
C      1  0.4776270000000  0.4796350000000  0.4777280000000 1.0
C      1  0.5331020000000  0.4734340000000  0.5307700000000 1.0
C      1  0.5248200000000  0.5196370000000  0.4760530000000 1.0
C      1  0.4691890000000  0.5239500000000  0.5278400000000 1.0
C      1  0.5174400000000  0.4783210000000  0.4787340000000 1.0
C      1  0.4687480000000  0.4718310000000  0.5304240000000 1.0
C      1  0.4618750000000  0.5373590000000  0.4231600000000 1.0
C      1  0.5350090000000  0.5361140000000  0.5776630000000 1.0
C      1  0.4605720000000  0.4675960000000  0.4187810000000 1.0
C      1  0.5370120000000  0.4624780000000  0.5780980000000 1.0
C      1  0.5387270000000  0.5379730000000  0.4238640000000 1.0
C      1  0.4636160000000  0.5379230000000  0.5749520000000 1.0
C      1  0.5395870000000  0.4671400000000  0.4185390000000 1.0
C      1  0.4629780000000  0.4621000000000  0.5743500000000 1.0
C      1  0.4840250000000  0.5126020000000  0.5484240000000 1.0
C      1  0.5154670000000  0.5125380000000  0.4499240000000 1.0
C      1  0.4851760000000  0.4849520000000  0.5493220000000 1.0
C      1  0.5149920000000  0.4798920000000  0.4506560000000 1.0
C      1  0.5132140000000  0.5135330000000  0.5507340000000 1.0
C      1  0.4869500000000  0.5131880000000  0.4481630000000 1.0
C      1  0.5143590000000  0.4835900000000  0.5509200000000 1.0
C      1  0.4849680000000  0.4800430000000  0.4500970000000 1.0
C      1  0.4737050000000  0.5919940000000  0.5134130000000 1.0
C      1  0.5231660000000  0.5924030000000  0.4840520000000 1.0
C      1  0.4780680000000  0.4072150000000  0.5134050000000 1.0
C      1  0.5235820000000  0.4080220000000  0.4877770000000 1.0
C      1  0.5277010000000  0.5926590000000  0.5127950000000 1.0
C      1  0.4762250000000  0.5919160000000  0.4843240000000 1.0
C      1  0.5264510000000  0.4074050000000  0.5165150000000 1.0
C      1  0.4776140000000  0.4098830000000  0.4836640000000 1.0
C      1  0.4772200000000  0.5023870000000  0.4056820000000 1.0
C      1  0.5230090000000  0.5016230000000  0.4048340000000 1.0
C      1  0.5263920000000  0.4990850000000  0.5939240000000 1.0
C      1  0.4803680000000  0.4994140000000  0.5942640000000 1.0
C      1  0.5539090000000  0.4943450000000  0.4910840000000 1.0
C      1  0.4492570000000  0.4964140000000  0.5014230000000 1.0
C      1  0.4995100000000  0.4989220000000  0.4891350000000 1.0
END
