TITL C-2441167-4473-558 0.0761049770748567 125000 -25012.4899495498 0 0 181 (C1) n - 1
REM
REM in /home/bkarasulu/work/CARBON/AIRSS/Generating-Clusters/ReaxFF-fromJPCA2015/Units_Real/with-SteepDescent/Higher-Symm
REM
REM
REM
REM
REM
REM ./C.cell (1df0a924f5614ab8850e4351716899ee)
REM
REM compiler GCC version 9.2.1 20190827 (Red Hat 9.2.1-1)
REM options -cpp -mtune=generic -march=x86-64 -g -O0 -fpre-include=/usr/include/finclude/math-vector-fortran.h
REM seed -1603095892 -1603025 -498671568 823680523 -1132883812 -888979155 2116871901 1288541348 1878535985 1088972591 1348523491 -1871579492 1494873831 -1450368377 -662057683 -1723460975 1102336679 504916075 -518199840 358813036 -146048874 -1802365100 -1712072934 1167003972 -1598347809 -1210219753 -315526373 1719139714 -1912008745 -481351610 749346867 -1491385588 2107278916
REM
CELL 1.54180   50.00000   50.00000   50.00000   90.00000   90.00000   90.00000
LATT -1
SFAC C  
C      1  0.5859190000000  0.4769680000000  0.5653420000000 1.0
C      1  0.5862880000000  0.4710190000000  0.4390040000000 1.0
C      1  0.4690410000000  0.4706010000000  0.4009300000000 1.0
C      1  0.3937600000000  0.4707320000000  0.5021340000000 1.0
C      1  0.4659050000000  0.4756670000000  0.5974410000000 1.0
C      1  0.6018890000000  0.4757640000000  0.5411600000000 1.0
C      1  0.5685050000000  0.4721580000000  0.4162720000000 1.0
C      1  0.4437320000000  0.4727950000000  0.4158740000000 1.0
C      1  0.3936200000000  0.4720900000000  0.5327150000000 1.0
C      1  0.4945950000000  0.4775880000000  0.6017870000000 1.0
C      1  0.4259750000000  0.5663990000000  0.5230970000000 1.0
C      1  0.4994920000000  0.5616730000000  0.5802450000000 1.0
C      1  0.5571510000000  0.5753450000000  0.5387170000000 1.0
C      1  0.5484790000000  0.5641210000000  0.4364000000000 1.0
C      1  0.4559970000000  0.5671180000000  0.4339520000000 1.0
C      1  0.5448640000000  0.4795650000000  0.5390280000000 1.0
C      1  0.5459040000000  0.4858640000000  0.4583370000000 1.0
C      1  0.4838290000000  0.4772070000000  0.4410400000000 1.0
C      1  0.4372930000000  0.4848200000000  0.5123900000000 1.0
C      1  0.4797450000000  0.4895450000000  0.5536480000000 1.0
C      1  0.5607950000000  0.4613890000000  0.5200020000000 1.0
C      1  0.5418890000000  0.4484140000000  0.4558610000000 1.0
C      1  0.4662920000000  0.4534170000000  0.4464390000000 1.0
C      1  0.4387650000000  0.4559590000000  0.5192080000000 1.0
C      1  0.4958430000000  0.4574290000000  0.5616790000000 1.0
C      1  0.4768780000000  0.5329310000000  0.5575770000000 1.0
C      1  0.5501790000000  0.5303200000000  0.5405670000000 1.0
C      1  0.5508920000000  0.5322130000000  0.4655500000000 1.0
C      1  0.4803290000000  0.5260900000000  0.4424020000000 1.0
C      1  0.4354070000000  0.5316730000000  0.4973250000000 1.0
C      1  0.5333920000000  0.4464100000000  0.5929220000000 1.0
C      1  0.5891060000000  0.4340320000000  0.5008310000000 1.0
C      1  0.5295190000000  0.4328180000000  0.4110420000000 1.0
C      1  0.4304160000000  0.4329670000000  0.4424900000000 1.0
C      1  0.4204670000000  0.4315430000000  0.5496350000000 1.0
C      1  0.5254240000000  0.5153580000000  0.5088440000000 1.0
C      1  0.4903930000000  0.4875950000000  0.4662270000000 1.0
C      1  0.4828890000000  0.5166410000000  0.5052350000000 1.0
C      1  0.4949770000000  0.5058850000000  0.5333570000000 1.0
C      1  0.5203200000000  0.4948460000000  0.5262310000000 1.0
C      1  0.4875500000000  0.6177460000000  0.5313790000000 1.0
C      1  0.5161910000000  0.6146890000000  0.5277970000000 1.0
C      1  0.5257910000000  0.6141250000000  0.4821160000000 1.0
C      1  0.5025880000000  0.6173440000000  0.4661940000000 1.0
C      1  0.4713230000000  0.6111450000000  0.4930810000000 1.0
C      1  0.5539100000000  0.4907140000000  0.4858560000000 1.0
C      1  0.5058260000000  0.4928320000000  0.4281880000000 1.0
C      1  0.4435360000000  0.4892810000000  0.4830760000000 1.0
C      1  0.4521170000000  0.4965030000000  0.5424090000000 1.0
C      1  0.5329120000000  0.4903300000000  0.5632300000000 1.0
C      1  0.4377000000000  0.5196480000000  0.5839440000000 1.0
C      1  0.5620320000000  0.5171810000000  0.5895310000000 1.0
C      1  0.6084050000000  0.5257440000000  0.4697700000000 1.0
C      1  0.5047700000000  0.5253080000000  0.3943130000000 1.0
C      1  0.4037710000000  0.5252210000000  0.4610160000000 1.0
C      1  0.5531110000000  0.4663590000000  0.5998160000000 1.0
C      1  0.6020260000000  0.4713890000000  0.4853620000000 1.0
C      1  0.5222890000000  0.4596770000000  0.3995800000000 1.0
C      1  0.4070770000000  0.4736780000000  0.4552640000000 1.0
C      1  0.4252090000000  0.4714990000000  0.5725010000000 1.0
C      1  0.5607540000000  0.4158540000000  0.4766060000000 1.0
C      1  0.4997850000000  0.4181440000000  0.4385420000000 1.0
C      1  0.4391770000000  0.4204960000000  0.4806010000000 1.0
C      1  0.4603400000000  0.4212470000000  0.5495740000000 1.0
C      1  0.5390720000000  0.4208930000000  0.5520360000000 1.0
C      1  0.4936140000000  0.4531480000000  0.4009870000000 1.0
C      1  0.4015900000000  0.4559200000000  0.4776150000000 1.0
C      1  0.4464050000000  0.4575640000000  0.5840630000000 1.0
C      1  0.5717690000000  0.4554010000000  0.5799740000000 1.0
C      1  0.5934250000000  0.4543920000000  0.4638740000000 1.0
C      1  0.4574200000000  0.4274560000000  0.4349760000000 1.0
C      1  0.4283720000000  0.4277610000000  0.5206450000000 1.0
C      1  0.4954330000000  0.4285790000000  0.5672580000000 1.0
C      1  0.5683890000000  0.4323150000000  0.5212410000000 1.0
C      1  0.5448450000000  0.4257570000000  0.4360830000000 1.0
C      1  0.5471370000000  0.4110570000000  0.5264380000000 1.0
C      1  0.5398690000000  0.4054780000000  0.4587190000000 1.0
C      1  0.4759970000000  0.4067470000000  0.4494140000000 1.0
C      1  0.4461020000000  0.4084970000000  0.5061150000000 1.0
C      1  0.4869290000000  0.4074280000000  0.5500830000000 1.0
C      1  0.5285040000000  0.5704100000000  0.5428910000000 1.0
C      1  0.5503230000000  0.5733530000000  0.4876640000000 1.0
C      1  0.5022730000000  0.5743270000000  0.4424810000000 1.0
C      1  0.4496190000000  0.5742840000000  0.4801800000000 1.0
C      1  0.4678270000000  0.5742910000000  0.5425890000000 1.0
C      1  0.5636630000000  0.5615840000000  0.5632300000000 1.0
C      1  0.5645090000000  0.5595800000000  0.4632660000000 1.0
C      1  0.4838180000000  0.5641340000000  0.4230500000000 1.0
C      1  0.4254390000000  0.5616170000000  0.4920640000000 1.0
C      1  0.4696360000000  0.5594860000000  0.5698850000000 1.0
C      1  0.5030660000000  0.5233590000000  0.5960270000000 1.0
C      1  0.5972160000000  0.5254270000000  0.5248390000000 1.0
C      1  0.5533300000000  0.5205300000000  0.4186290000000 1.0
C      1  0.4369440000000  0.5251790000000  0.4212250000000 1.0
C      1  0.4056510000000  0.5229220000000  0.5345360000000 1.0
C      1  0.5859520000000  0.5384680000000  0.5007190000000 1.0
C      1  0.5362700000000  0.5442450000000  0.4196090000000 1.0
C      1  0.4326910000000  0.5486970000000  0.4386750000000 1.0
C      1  0.4265490000000  0.5449160000000  0.5455760000000 1.0
C      1  0.5207730000000  0.5422040000000  0.5844090000000 1.0
C      1  0.5878040000000  0.4750160000000  0.5121660000000 1.0
C      1  0.5398630000000  0.4769060000000  0.4152490000000 1.0
C      1  0.4335020000000  0.4803920000000  0.4435080000000 1.0
C      1  0.4089220000000  0.4577090000000  0.5535700000000 1.0
C      1  0.5131950000000  0.4670630000000  0.5812750000000 1.0
C      1  0.4802710000000  0.5626950000000  0.5185450000000 1.0
C      1  0.5101900000000  0.5588690000000  0.5216510000000 1.0
C      1  0.5232930000000  0.5637410000000  0.4936540000000 1.0
C      1  0.5033090000000  0.5622380000000  0.4711540000000 1.0
C      1  0.4747100000000  0.5584740000000  0.4838490000000 1.0
C      1  0.5132390000000  0.4990570000000  0.6064940000000 1.0
C      1  0.6069000000000  0.4981500000000  0.5247810000000 1.0
C      1  0.5565730000000  0.4958950000000  0.4052690000000 1.0
C      1  0.4274610000000  0.4970690000000  0.4197420000000 1.0
C      1  0.3945890000000  0.4991350000000  0.5408350000000 1.0
C      1  0.5421340000000  0.4949010000000  0.5961470000000 1.0
C      1  0.6057180000000  0.4971720000000  0.4698090000000 1.0
C      1  0.5039760000000  0.4972290000000  0.3980280000000 1.0
C      1  0.3933020000000  0.4992760000000  0.4631620000000 1.0
C      1  0.4329360000000  0.4970910000000  0.5655010000000 1.0
C      1  0.5777290000000  0.5228120000000  0.5465740000000 1.0
C      1  0.5605380000000  0.5122350000000  0.4454380000000 1.0
C      1  0.4647850000000  0.5184340000000  0.4187060000000 1.0
C      1  0.4165230000000  0.5118550000000  0.5086870000000 1.0
C      1  0.4810820000000  0.5110560000000  0.5775670000000 1.0
C      1  0.5077150000000  0.5197100000000  0.4400630000000 1.0
C      1  0.4457840000000  0.5175950000000  0.4754250000000 1.0
C      1  0.4547050000000  0.5259980000000  0.5397740000000 1.0
C      1  0.5268690000000  0.5224950000000  0.5578590000000 1.0
C      1  0.5610360000000  0.5219880000000  0.4911810000000 1.0
C      1  0.5278350000000  0.6091390000000  0.4546770000000 1.0
C      1  0.4740580000000  0.6078240000000  0.4664970000000 1.0
C      1  0.4618080000000  0.6093760000000  0.5190440000000 1.0
C      1  0.5044680000000  0.6070430000000  0.5531170000000 1.0
C      1  0.5354150000000  0.6065540000000  0.5078850000000 1.0
C      1  0.4596190000000  0.5039430000000  0.5960120000000 1.0
C      1  0.5804080000000  0.5058020000000  0.5704320000000 1.0
C      1  0.5889550000000  0.4985050000000  0.4459470000000 1.0
C      1  0.4742820000000  0.4990050000000  0.3970750000000 1.0
C      1  0.3939720000000  0.4978570000000  0.4925650000000 1.0
C      1  0.5288130000000  0.4785130000000  0.4924540000000 1.0
C      1  0.5183330000000  0.4840560000000  0.4688940000000 1.0
C      1  0.4713030000000  0.4808640000000  0.4858950000000 1.0
C      1  0.4811740000000  0.4723280000000  0.5107690000000 1.0
C      1  0.5111560000000  0.4740750000000  0.5136490000000 1.0
C      1  0.5129840000000  0.5819490000000  0.5653680000000 1.0
C      1  0.5579300000000  0.5882440000000  0.5113700000000 1.0
C      1  0.5289660000000  0.5858590000000  0.4372540000000 1.0
C      1  0.4542620000000  0.5872080000000  0.4547800000000 1.0
C      1  0.4436340000000  0.5866520000000  0.5322970000000 1.0
C      1  0.5444440000000  0.5346930000000  0.5121550000000 1.0
C      1  0.5183830000000  0.5322300000000  0.4643850000000 1.0
C      1  0.4694560000000  0.5321320000000  0.4692780000000 1.0
C      1  0.4618390000000  0.5350430000000  0.5141550000000 1.0
C      1  0.5028060000000  0.5316510000000  0.5436290000000 1.0
C      1  0.4748620000000  0.3998970000000  0.5026090000000 1.0
C      1  0.4951500000000  0.3998950000000  0.5224530000000 1.0
C      1  0.5233120000000  0.4021000000000  0.5089380000000 1.0
C      1  0.5184810000000  0.3990930000000  0.4780700000000 1.0
C      1  0.4891240000000  0.3996190000000  0.4748200000000 1.0
C      1  0.5063160000000  0.5491250000000  0.4082360000000 1.0
C      1  0.4149650000000  0.5492950000000  0.4623020000000 1.0
C      1  0.4410450000000  0.5456020000000  0.5719410000000 1.0
C      1  0.5533070000000  0.5443100000000  0.5836000000000 1.0
C      1  0.5932510000000  0.5489660000000  0.4746550000000 1.0
C      1  0.5142680000000  0.4476700000000  0.5220540000000 1.0
C      1  0.5253620000000  0.4347120000000  0.4997370000000 1.0
C      1  0.5045450000000  0.4409440000000  0.4796150000000 1.0
C      1  0.4798960000000  0.4374090000000  0.4884680000000 1.0
C      1  0.4833980000000  0.4433530000000  0.5161030000000 1.0
C      1  0.5192590000000  0.4440570000000  0.5484170000000 1.0
C      1  0.5501730000000  0.4423920000000  0.4850290000000 1.0
C      1  0.5118160000000  0.4430170000000  0.4523630000000 1.0
C      1  0.4581380000000  0.4431500000000  0.4727420000000 1.0
C      1  0.4617480000000  0.4466740000000  0.5347540000000 1.0
C      1  0.4424020000000  0.4327720000000  0.5692540000000 1.0
C      1  0.5524230000000  0.4321030000000  0.5757010000000 1.0
C      1  0.5888680000000  0.4264830000000  0.4735780000000 1.0
C      1  0.5010900000000  0.4255120000000  0.4096230000000 1.0
C      1  0.4145390000000  0.4313570000000  0.4663160000000 1.0
C      1  0.5061720000000  0.5203040000000  0.4892010000000 1.0
END
