TITL C-2441161-5029-167 0.0057050003088674 125000 -5078.88524931054 0 0 37 (C1) n - 1
REM
REM in /home/bkarasulu/work/CARBON/AIRSS/Generating-Clusters/ReaxFF-fromJPCA2015/Units_Real/with-SteepDescent/Higher-Symm
REM
REM
REM
REM
REM
REM ./C.cell (1df0a924f5614ab8850e4351716899ee)
REM
REM compiler GCC version 9.2.1 20190827 (Red Hat 9.2.1-1)
REM options -cpp -mtune=generic -march=x86-64 -g -O0 -fpre-include=/usr/include/finclude/math-vector-fortran.h
REM seed -486454857 105425590 -734377164 -1989032789 -110902861 -430502778 -2082186192 1978971464 1852562464 773632237 -461586168 -1080589905 -529392616 1578493242 1581136878 494245914 875819944 -1759569010 2135929460 -81214702 -1709747468 -1856381834 538836672 1152766641 119252744 166856368 1730277035 1061852597 -874362487 -744008360 1887711543 -959104233 -994846212
REM
CELL 1.54180   50.00000   50.00000   50.00000   90.00000   90.00000   90.00000
LATT -1
SFAC C  
C      1  0.4996710000000  0.4851920000000  0.5666260000000 1.0
C      1  0.5010290000000  0.5749560000000  0.4932160000000 1.0
C      1  0.4874150000000  0.4640770000000  0.4504840000000 1.0
C      1  0.4955790000000  0.4776980000000  0.4314800000000 1.0
C      1  0.5102930000000  0.5712040000000  0.5151190000000 1.0
C      1  0.5053280000000  0.4715630000000  0.5495050000000 1.0
C      1  0.4733080000000  0.5433330000000  0.4644230000000 1.0
C      1  0.4606300000000  0.4481350000000  0.4793300000000 1.0
C      1  0.4638990000000  0.5148580000000  0.5500370000000 1.0
C      1  0.5134230000000  0.5274200000000  0.5412570000000 1.0
C      1  0.5402370000000  0.4487640000000  0.5150100000000 1.0
C      1  0.5340730000000  0.5116200000000  0.4419600000000 1.0
C      1  0.4887840000000  0.4551310000000  0.4768770000000 1.0
C      1  0.4924710000000  0.5117640000000  0.5556550000000 1.0
C      1  0.4892590000000  0.5566090000000  0.4829930000000 1.0
C      1  0.5121080000000  0.4583790000000  0.5226340000000 1.0
C      1  0.5137090000000  0.4936080000000  0.4373470000000 1.0
C      1  0.5082410000000  0.5490490000000  0.5243450000000 1.0
C      1  0.5488430000000  0.4580110000000  0.4900230000000 1.0
C      1  0.5433600000000  0.5208210000000  0.5395300000000 1.0
C      1  0.5505370000000  0.5259730000000  0.4631420000000 1.0
C      1  0.4446100000000  0.4535510000000  0.5056750000000 1.0
C      1  0.4557080000000  0.5189220000000  0.4604400000000 1.0
C      1  0.4446020000000  0.5198970000000  0.5292770000000 1.0
C      1  0.4485840000000  0.4984420000000  0.4803920000000 1.0
C      1  0.4443030000000  0.4719250000000  0.5256450000000 1.0
C      1  0.4422660000000  0.5201590000000  0.5001110000000 1.0
C      1  0.5523650000000  0.4947770000000  0.5358540000000 1.0
C      1  0.5526450000000  0.4761560000000  0.4730650000000 1.0
C      1  0.5510940000000  0.5292430000000  0.4901830000000 1.0
C      1  0.4470340000000  0.5401280000000  0.4784800000000 1.0
C      1  0.4417240000000  0.4696960000000  0.4804460000000 1.0
C      1  0.4439050000000  0.4929190000000  0.5432770000000 1.0
C      1  0.5509530000000  0.5291750000000  0.5135960000000 1.0
C      1  0.5532580000000  0.4694910000000  0.5286330000000 1.0
C      1  0.5562710000000  0.4976050000000  0.4558730000000 1.0
C      1  0.4997360000000  0.4720190000000  0.5001630000000 1.0
END
