TITL C-2441163-1170-117 0.264482410500712 125000 -22506.8880113875 0 0 199 (C1) n - 1
REM
REM in /home/bkarasulu/work/CARBON/AIRSS/Generating-Clusters/ReaxFF-fromJPCA2015/Units_Real/with-SteepDescent/Higher-Symm
REM
REM
REM
REM
REM
REM ./C.cell (1df0a924f5614ab8850e4351716899ee)
REM
REM compiler GCC version 9.2.1 20190827 (Red Hat 9.2.1-1)
REM options -cpp -mtune=generic -march=x86-64 -g -O0 -fpre-include=/usr/include/finclude/math-vector-fortran.h
REM seed -462267856 1720077535 -1686420782 1312677462 -2110211847 -807902041 299569241 -394216794 -1023277855 1732342764 1050383225 -1240118337 91077848 942715614 1345918257 1352585745 725630913 -1832740183 1411791669 536062746 -1751388219 -878155394 747490838 -959177387 1177797384 697652609 -1651653630 -503526370 2015789330 2095836136 -922641068 -1073889733 -678595397
REM
CELL 1.54180   50.00000   50.00000   50.00000   90.00000   90.00000   90.00000
LATT -1
SFAC C  
C      1  0.5592730000000  0.5689210000000  0.4766050000000 1.0
C      1  0.5595810000000  0.5534770000000  0.5494450000000 1.0
C      1  0.5620610000000  0.4814880000000  0.5714430000000 1.0
C      1  0.5601260000000  0.4301440000000  0.5250270000000 1.0
C      1  0.5586640000000  0.4464910000000  0.4507410000000 1.0
C      1  0.5613620000000  0.5151250000000  0.4286450000000 1.0
C      1  0.5006300000000  0.4106180000000  0.5177350000000 1.0
C      1  0.5033450000000  0.4437740000000  0.4272480000000 1.0
C      1  0.5000200000000  0.5314580000000  0.4124740000000 1.0
C      1  0.4999670000000  0.5961670000000  0.4891470000000 1.0
C      1  0.4998660000000  0.5495840000000  0.5716070000000 1.0
C      1  0.4988870000000  0.4658000000000  0.5752710000000 1.0
C      1  0.5290570000000  0.5673040000000  0.5085770000000 1.0
C      1  0.5335810000000  0.5183860000000  0.5451980000000 1.0
C      1  0.5360440000000  0.4728020000000  0.5417380000000 1.0
C      1  0.5222190000000  0.4326640000000  0.4896170000000 1.0
C      1  0.5327470000000  0.4829950000000  0.4565110000000 1.0
C      1  0.5234230000000  0.5456180000000  0.4450380000000 1.0
C      1  0.6067250000000  0.5179620000000  0.5304010000000 1.0
C      1  0.6053840000000  0.4892530000000  0.5328090000000 1.0
C      1  0.6032390000000  0.4653060000000  0.5004830000000 1.0
C      1  0.6027090000000  0.4762370000000  0.4737320000000 1.0
C      1  0.6065790000000  0.5160170000000  0.4714130000000 1.0
C      1  0.6048140000000  0.5340320000000  0.4938250000000 1.0
C      1  0.4364380000000  0.5340130000000  0.4458340000000 1.0
C      1  0.4384320000000  0.5628130000000  0.5060500000000 1.0
C      1  0.4370340000000  0.5283350000000  0.5570360000000 1.0
C      1  0.4370450000000  0.4654420000000  0.5531860000000 1.0
C      1  0.4373080000000  0.4365020000000  0.4947430000000 1.0
C      1  0.4361510000000  0.4698940000000  0.4457220000000 1.0
C      1  0.4622370000000  0.4622180000000  0.3952070000000 1.0
C      1  0.4638870000000  0.5726110000000  0.4181870000000 1.0
C      1  0.4612390000000  0.6082520000000  0.5202940000000 1.0
C      1  0.4614160000000  0.5373570000000  0.6030590000000 1.0
C      1  0.4668700000000  0.4307200000000  0.5883350000000 1.0
C      1  0.4645540000000  0.3948870000000  0.4788690000000 1.0
C      1  0.4340230000000  0.5157780000000  0.4237590000000 1.0
C      1  0.4342670000000  0.5716410000000  0.4794370000000 1.0
C      1  0.4332430000000  0.5553380000000  0.5513360000000 1.0
C      1  0.4340150000000  0.4840030000000  0.5743410000000 1.0
C      1  0.4329970000000  0.4268540000000  0.5210400000000 1.0
C      1  0.4259520000000  0.4435300000000  0.4508540000000 1.0
C      1  0.4382380000000  0.3973750000000  0.4897970000000 1.0
C      1  0.4391410000000  0.4527020000000  0.4102950000000 1.0
C      1  0.4376520000000  0.5607430000000  0.4159720000000 1.0
C      1  0.4361450000000  0.6020260000000  0.5071520000000 1.0
C      1  0.4359460000000  0.5466500000000  0.5920250000000 1.0
C      1  0.4407380000000  0.4426800000000  0.5854540000000 1.0
C      1  0.5597670000000  0.4058540000000  0.4824460000000 1.0
C      1  0.5591190000000  0.4712700000000  0.4093940000000 1.0
C      1  0.5639820000000  0.5643760000000  0.4305170000000 1.0
C      1  0.5630340000000  0.5936010000000  0.5206430000000 1.0
C      1  0.5627990000000  0.5320740000000  0.5932870000000 1.0
C      1  0.5594380000000  0.4360930000000  0.5716510000000 1.0
C      1  0.5198940000000  0.5292930000000  0.4905010000000 1.0
C      1  0.5105050000000  0.5267820000000  0.5332130000000 1.0
C      1  0.5081910000000  0.4839770000000  0.5424170000000 1.0
C      1  0.5177670000000  0.4622370000000  0.5026570000000 1.0
C      1  0.5052840000000  0.4721600000000  0.4609600000000 1.0
C      1  0.5079290000000  0.5104840000000  0.4714860000000 1.0
C      1  0.5447950000000  0.4037770000000  0.5235320000000 1.0
C      1  0.5447800000000  0.4361110000000  0.4260830000000 1.0
C      1  0.5455850000000  0.5263920000000  0.4062220000000 1.0
C      1  0.5461890000000  0.5949200000000  0.4751160000000 1.0
C      1  0.5456500000000  0.5650710000000  0.5743280000000 1.0
C      1  0.5435320000000  0.4699370000000  0.5915980000000 1.0
C      1  0.5332510000000  0.4999080000000  0.4355130000000 1.0
C      1  0.5318980000000  0.5585760000000  0.4675430000000 1.0
C      1  0.5328170000000  0.5589790000000  0.5338970000000 1.0
C      1  0.5315830000000  0.5079800000000  0.5715500000000 1.0
C      1  0.5360080000000  0.4450830000000  0.5361070000000 1.0
C      1  0.5322250000000  0.4377250000000  0.4638090000000 1.0
C      1  0.4488450000000  0.5357680000000  0.4068240000000 1.0
C      1  0.4495660000000  0.5964380000000  0.4804500000000 1.0
C      1  0.4496990000000  0.5666140000000  0.5736360000000 1.0
C      1  0.4508020000000  0.4693440000000  0.5933000000000 1.0
C      1  0.4493080000000  0.4020060000000  0.5164870000000 1.0
C      1  0.4561160000000  0.4356810000000  0.4264270000000 1.0
C      1  0.4944890000000  0.4101080000000  0.5623230000000 1.0
C      1  0.4939550000000  0.4053220000000  0.4510870000000 1.0
C      1  0.4933940000000  0.4921450000000  0.3922440000000 1.0
C      1  0.4951820000000  0.5866790000000  0.4427670000000 1.0
C      1  0.4938200000000  0.5944650000000  0.5484170000000 1.0
C      1  0.4913700000000  0.5044280000000  0.6075670000000 1.0
C      1  0.5337310000000  0.5996080000000  0.4496080000000 1.0
C      1  0.5324650000000  0.5902180000000  0.5642960000000 1.0
C      1  0.5294680000000  0.4885290000000  0.6089100000000 1.0
C      1  0.5340540000000  0.3994860000000  0.5499290000000 1.0
C      1  0.5340380000000  0.4088730000000  0.4427770000000 1.0
C      1  0.5324780000000  0.5069830000000  0.3895550000000 1.0
C      1  0.4196590000000  0.4439960000000  0.5608330000000 1.0
C      1  0.4181460000000  0.4184390000000  0.4820330000000 1.0
C      1  0.4187730000000  0.4726050000000  0.4226390000000 1.0
C      1  0.4186770000000  0.5557230000000  0.4392880000000 1.0
C      1  0.4183300000000  0.5805700000000  0.5182450000000 1.0
C      1  0.4178980000000  0.5262860000000  0.5786620000000 1.0
C      1  0.5054420000000  0.5830920000000  0.5724630000000 1.0
C      1  0.5019520000000  0.4785430000000  0.6141920000000 1.0
C      1  0.5070960000000  0.3928250000000  0.5400580000000 1.0
C      1  0.5093130000000  0.4154600000000  0.4275190000000 1.0
C      1  0.5054080000000  0.5189120000000  0.3868960000000 1.0
C      1  0.5076150000000  0.6038700000000  0.4620080000000 1.0
C      1  0.4069480000000  0.5298550000000  0.5184870000000 1.0
C      1  0.4077400000000  0.5000150000000  0.5348080000000 1.0
C      1  0.4075700000000  0.4702460000000  0.5167470000000 1.0
C      1  0.4061280000000  0.4717080000000  0.4848800000000 1.0
C      1  0.4065760000000  0.5017730000000  0.4644630000000 1.0
C      1  0.4065900000000  0.5307440000000  0.4825360000000 1.0
C      1  0.4608200000000  0.5377310000000  0.5257170000000 1.0
C      1  0.4626190000000  0.4954490000000  0.5424580000000 1.0
C      1  0.4621370000000  0.4569380000000  0.5166850000000 1.0
C      1  0.4596770000000  0.4645200000000  0.4722020000000 1.0
C      1  0.4597250000000  0.5055130000000  0.4534580000000 1.0
C      1  0.4620050000000  0.5376880000000  0.4832500000000 1.0
C      1  0.4647840000000  0.5656390000000  0.5198150000000 1.0
C      1  0.4620810000000  0.5133050000000  0.5649870000000 1.0
C      1  0.4621850000000  0.4494670000000  0.5449240000000 1.0
C      1  0.4640110000000  0.4365420000000  0.4782100000000 1.0
C      1  0.4645370000000  0.4851490000000  0.4326890000000 1.0
C      1  0.4652670000000  0.5502720000000  0.4555100000000 1.0
C      1  0.5385080000000  0.5457190000000  0.5956770000000 1.0
C      1  0.5365580000000  0.4402430000000  0.5865760000000 1.0
C      1  0.5343780000000  0.3992970000000  0.4932450000000 1.0
C      1  0.5364370000000  0.4555060000000  0.4052070000000 1.0
C      1  0.5370420000000  0.5566730000000  0.4204150000000 1.0
C      1  0.5368640000000  0.5974580000000  0.5102540000000 1.0
C      1  0.4664520000000  0.4138290000000  0.4560340000000 1.0
C      1  0.4664660000000  0.4895670000000  0.4025880000000 1.0
C      1  0.4671530000000  0.5795380000000  0.4467270000000 1.0
C      1  0.4662170000000  0.5875350000000  0.5403000000000 1.0
C      1  0.4649720000000  0.5084260000000  0.5980010000000 1.0
C      1  0.4677550000000  0.4220330000000  0.5612340000000 1.0
C      1  0.5580000000000  0.5185850000000  0.4806480000000 1.0
C      1  0.5471270000000  0.5327270000000  0.5026020000000 1.0
C      1  0.5534730000000  0.5139120000000  0.5248860000000 1.0
C      1  0.5557910000000  0.4834970000000  0.5214380000000 1.0
C      1  0.5462770000000  0.4717050000000  0.4965310000000 1.0
C      1  0.5533540000000  0.4903250000000  0.4747210000000 1.0
C      1  0.4764070000000  0.5304750000000  0.5058810000000 1.0
C      1  0.4961810000000  0.5127710000000  0.5152320000000 1.0
C      1  0.4868910000000  0.4905530000000  0.5275010000000 1.0
C      1  0.4851000000000  0.4712980000000  0.5068820000000 1.0
C      1  0.4819360000000  0.4787040000000  0.4799320000000 1.0
C      1  0.4801850000000  0.5063830000000  0.4720410000000 1.0
C      1  0.4067500000000  0.4447460000000  0.4711690000000 1.0
C      1  0.4123790000000  0.4994590000000  0.4347400000000 1.0
C      1  0.4121100000000  0.5564190000000  0.4680330000000 1.0
C      1  0.4106030000000  0.5562170000000  0.5329680000000 1.0
C      1  0.4106110000000  0.5005090000000  0.5652000000000 1.0
C      1  0.4117110000000  0.4431750000000  0.5327920000000 1.0
C      1  0.4947750000000  0.5434820000000  0.4512920000000 1.0
C      1  0.4997740000000  0.5700420000000  0.5028180000000 1.0
C      1  0.4893670000000  0.5223460000000  0.5663220000000 1.0
C      1  0.4929320000000  0.4554980000000  0.5492070000000 1.0
C      1  0.4937510000000  0.4318300000000  0.4830690000000 1.0
C      1  0.4933700000000  0.4814820000000  0.4365540000000 1.0
C      1  0.4769670000000  0.3983030000000  0.5063760000000 1.0
C      1  0.4792280000000  0.4427330000000  0.4110660000000 1.0
C      1  0.4758460000000  0.5473800000000  0.4078770000000 1.0
C      1  0.4742140000000  0.6080590000000  0.4934300000000 1.0
C      1  0.4750640000000  0.5589100000000  0.5869030000000 1.0
C      1  0.4819330000000  0.4594420000000  0.5973630000000 1.0
C      1  0.5940120000000  0.5368170000000  0.5175300000000 1.0
C      1  0.5843180000000  0.5059690000000  0.5423920000000 1.0
C      1  0.5872600000000  0.4688210000000  0.5242630000000 1.0
C      1  0.5812080000000  0.4614650000000  0.4837710000000 1.0
C      1  0.5896010000000  0.4963110000000  0.4610460000000 1.0
C      1  0.5833140000000  0.5337950000000  0.4745520000000 1.0
C      1  0.4374390000000  0.4733590000000  0.5111570000000 1.0
C      1  0.4360690000000  0.4768410000000  0.4836020000000 1.0
C      1  0.4356220000000  0.5018040000000  0.4713450000000 1.0
C      1  0.4352580000000  0.5245230000000  0.4887830000000 1.0
C      1  0.4359420000000  0.5229860000000  0.5169530000000 1.0
C      1  0.4376490000000  0.4965340000000  0.5277880000000 1.0
C      1  0.5205810000000  0.5827970000000  0.4293200000000 1.0
C      1  0.5209460000000  0.6004200000000  0.5384770000000 1.0
C      1  0.5233820000000  0.5171670000000  0.5980450000000 1.0
C      1  0.5216070000000  0.4193730000000  0.5698730000000 1.0
C      1  0.5182300000000  0.3972870000000  0.4652910000000 1.0
C      1  0.5203170000000  0.4806090000000  0.3964210000000 1.0
C      1  0.5737030000000  0.4675980000000  0.4315500000000 1.0
C      1  0.5742310000000  0.5404050000000  0.4362600000000 1.0
C      1  0.5748790000000  0.5749430000000  0.5059890000000 1.0
C      1  0.5729660000000  0.5319850000000  0.5690970000000 1.0
C      1  0.5764770000000  0.4564070000000  0.5638290000000 1.0
C      1  0.5732190000000  0.4244110000000  0.4948730000000 1.0
C      1  0.5820370000000  0.4444890000000  0.5388370000000 1.0
C      1  0.5797790000000  0.4373290000000  0.4702730000000 1.0
C      1  0.5827340000000  0.4942330000000  0.4337790000000 1.0
C      1  0.5805100000000  0.5593420000000  0.4559760000000 1.0
C      1  0.5828990000000  0.5598900000000  0.5291650000000 1.0
C      1  0.5800500000000  0.5047450000000  0.5700960000000 1.0
C      1  0.5046170000000  0.4970340000000  0.5666630000000 1.0
C      1  0.5091920000000  0.4401590000000  0.5280930000000 1.0
C      1  0.5060540000000  0.4464290000000  0.4571190000000 1.0
C      1  0.5055770000000  0.5076460000000  0.4332360000000 1.0
C      1  0.5063600000000  0.5517210000000  0.4794350000000 1.0
C      1  0.5053710000000  0.5536350000000  0.5397890000000 1.0
C      1  0.5159570000000  0.5012920000000  0.4960470000000 1.0
END
