TITL C-2441161-5029-539 0.0161910589251181 125000 -13574.1328050297 0 0 95 (C1) n - 1
REM
REM in /home/bkarasulu/work/CARBON/AIRSS/Generating-Clusters/ReaxFF-fromJPCA2015/Units_Real/with-SteepDescent/Higher-Symm
REM
REM
REM
REM
REM
REM ./C.cell (1df0a924f5614ab8850e4351716899ee)
REM
REM compiler GCC version 9.2.1 20190827 (Red Hat 9.2.1-1)
REM options -cpp -mtune=generic -march=x86-64 -g -O0 -fpre-include=/usr/include/finclude/math-vector-fortran.h
REM seed -963195193 44983493 1531008619 -182513219 -1553078631 -52539649 -965075265 1159686268 -24944528 -886430100 1802111618 -132100984 764134706 1351081846 -455954142 -6278646 464040214 749616965 601420193 1684842276 25084602 -1422663348 -1766178987 92074822 282480382 774928483 -1297734170 1255337387 876953289 1235933982 885924871 2014265532 1567564062
REM
CELL 1.54180   50.00000   50.00000   50.00000   90.00000   90.00000   90.00000
LATT -1
SFAC C  
C      1  0.4401280000000  0.4669260000000  0.5523300000000 1.0
C      1  0.4399030000000  0.4728740000000  0.4444880000000 1.0
C      1  0.4419340000000  0.5580840000000  0.5073790000000 1.0
C      1  0.5327750000000  0.4646870000000  0.5221360000000 1.0
C      1  0.5279440000000  0.5014360000000  0.4629760000000 1.0
C      1  0.5353600000000  0.5329720000000  0.5232550000000 1.0
C      1  0.5749540000000  0.4792400000000  0.5411930000000 1.0
C      1  0.5712280000000  0.4771920000000  0.4620580000000 1.0
C      1  0.5733940000000  0.5411800000000  0.4985860000000 1.0
C      1  0.4294150000000  0.4952170000000  0.4573910000000 1.0
C      1  0.4289090000000  0.5410060000000  0.5272910000000 1.0
C      1  0.4291130000000  0.4630080000000  0.5273900000000 1.0
C      1  0.5284760000000  0.4674890000000  0.5530680000000 1.0
C      1  0.5360920000000  0.4656160000000  0.4416860000000 1.0
C      1  0.5251540000000  0.5574370000000  0.5006490000000 1.0
C      1  0.4198790000000  0.5156740000000  0.5231450000000 1.0
C      1  0.4240210000000  0.4743410000000  0.5026030000000 1.0
C      1  0.4241750000000  0.5124250000000  0.4789060000000 1.0
C      1  0.5378980000000  0.5634950000000  0.4747150000000 1.0
C      1  0.5374700000000  0.4901570000000  0.5691140000000 1.0
C      1  0.5392890000000  0.4420850000000  0.4569990000000 1.0
C      1  0.4633470000000  0.4654220000000  0.4949900000000 1.0
C      1  0.4635380000000  0.5223210000000  0.4724450000000 1.0
C      1  0.4684630000000  0.5070030000000  0.5197820000000 1.0
C      1  0.5611280000000  0.4560080000000  0.5264470000000 1.0
C      1  0.5563070000000  0.4990400000000  0.4471790000000 1.0
C      1  0.5632520000000  0.5438670000000  0.5269240000000 1.0
C      1  0.5416800000000  0.4202630000000  0.5028130000000 1.0
C      1  0.5416360000000  0.5394590000000  0.4291870000000 1.0
C      1  0.5424200000000  0.5414810000000  0.5693480000000 1.0
C      1  0.5626140000000  0.4405190000000  0.5018310000000 1.0
C      1  0.5607130000000  0.5280920000000  0.4477830000000 1.0
C      1  0.5641020000000  0.5296410000000  0.5532430000000 1.0
C      1  0.5791250000000  0.5026840000000  0.5255900000000 1.0
C      1  0.5785620000000  0.4853080000000  0.4895110000000 1.0
C      1  0.5746550000000  0.5141540000000  0.4864890000000 1.0
C      1  0.4799300000000  0.5414180000000  0.4866990000000 1.0
C      1  0.4818170000000  0.4883040000000  0.5379000000000 1.0
C      1  0.4810760000000  0.4706840000000  0.4724850000000 1.0
C      1  0.5125950000000  0.4568680000000  0.4997080000000 1.0
C      1  0.5105070000000  0.5257630000000  0.4610750000000 1.0
C      1  0.5121340000000  0.5231210000000  0.5414750000000 1.0
C      1  0.5229420000000  0.5179190000000  0.5713640000000 1.0
C      1  0.5226070000000  0.4317520000000  0.4816150000000 1.0
C      1  0.5233230000000  0.5533880000000  0.4495440000000 1.0
C      1  0.5147830000000  0.4747100000000  0.4254140000000 1.0
C      1  0.5111090000000  0.5785890000000  0.5163120000000 1.0
C      1  0.5113500000000  0.4457760000000  0.5616170000000 1.0
C      1  0.4408040000000  0.4964170000000  0.5613320000000 1.0
C      1  0.4401570000000  0.4484880000000  0.4615850000000 1.0
C      1  0.4401770000000  0.5590120000000  0.4780590000000 1.0
C      1  0.5183030000000  0.5589790000000  0.5671020000000 1.0
C      1  0.5173410000000  0.4124930000000  0.5180970000000 1.0
C      1  0.5169800000000  0.5294490000000  0.4160270000000 1.0
C      1  0.5504140000000  0.5069660000000  0.5230620000000 1.0
C      1  0.5486670000000  0.4891190000000  0.5027580000000 1.0
C      1  0.5454780000000  0.5085420000000  0.4843210000000 1.0
C      1  0.5061830000000  0.4813150000000  0.4830480000000 1.0
C      1  0.5057950000000  0.5309510000000  0.4903610000000 1.0
C      1  0.5071180000000  0.4980340000000  0.5284050000000 1.0
C      1  0.4811060000000  0.5227440000000  0.4481230000000 1.0
C      1  0.4794740000000  0.5318860000000  0.5415780000000 1.0
C      1  0.4815560000000  0.4457680000000  0.5074950000000 1.0
C      1  0.4834100000000  0.5693890000000  0.4783780000000 1.0
C      1  0.4832280000000  0.4849600000000  0.5673250000000 1.0
C      1  0.4850680000000  0.4474900000000  0.4544410000000 1.0
C      1  0.4881850000000  0.4607620000000  0.4280010000000 1.0
C      1  0.4860930000000  0.5851340000000  0.5029120000000 1.0
C      1  0.4862820000000  0.4564710000000  0.5729830000000 1.0
C      1  0.5626840000000  0.5497200000000  0.4719520000000 1.0
C      1  0.5638650000000  0.4987260000000  0.5619670000000 1.0
C      1  0.5624870000000  0.4505390000000  0.4720840000000 1.0
C      1  0.4787070000000  0.5023340000000  0.4236430000000 1.0
C      1  0.4780610000000  0.5616190000000  0.5399160000000 1.0
C      1  0.4776230000000  0.4338500000000  0.5357040000000 1.0
C      1  0.4633920000000  0.5039970000000  0.5776550000000 1.0
C      1  0.4627380000000  0.4302680000000  0.4625780000000 1.0
C      1  0.4614950000000  0.5676910000000  0.4593090000000 1.0
C      1  0.5021670000000  0.4110240000000  0.4924960000000 1.0
C      1  0.5015890000000  0.5525490000000  0.4270350000000 1.0
C      1  0.5018850000000  0.5386800000000  0.5806780000000 1.0
C      1  0.4288810000000  0.5195550000000  0.5488710000000 1.0
C      1  0.4382280000000  0.4539340000000  0.4892650000000 1.0
C      1  0.4375500000000  0.5334450000000  0.4667310000000 1.0
C      1  0.5044110000000  0.4246070000000  0.5418050000000 1.0
C      1  0.5063890000000  0.5021150000000  0.4154550000000 1.0
C      1  0.5048350000000  0.5726330000000  0.5444470000000 1.0
C      1  0.4633660000000  0.5744080000000  0.5184560000000 1.0
C      1  0.4637600000000  0.4475400000000  0.5567950000000 1.0
C      1  0.4647570000000  0.4776720000000  0.4263050000000 1.0
C      1  0.4757480000000  0.5300030000000  0.5711020000000 1.0
C      1  0.4759380000000  0.4222870000000  0.4876630000000 1.0
C      1  0.4750160000000  0.5515300000000  0.4385210000000 1.0
C      1  0.4367090000000  0.5019650000000  0.5055720000000 1.0
C      1  0.4951710000000  0.5047100000000  0.5029380000000 1.0
END
