TITL C-2441168-9922-120 0.0412033248444579 125000 -7578.87806623472 0 0 60 (C1) n - 1
REM
REM in /home/bkarasulu/work/CARBON/AIRSS/Generating-Clusters/ReaxFF-fromJPCA2015/Units_Real/with-SteepDescent/Higher-Symm
REM
REM
REM
REM
REM
REM ./C.cell (1df0a924f5614ab8850e4351716899ee)
REM
REM compiler GCC version 9.2.1 20190827 (Red Hat 9.2.1-1)
REM options -cpp -mtune=generic -march=x86-64 -g -O0 -fpre-include=/usr/include/finclude/math-vector-fortran.h
REM seed -1969329993 -475133452 -738057224 -1056053973 163617154 -337891669 2063386209 -966212048 -1585144610 389286263 -843409004 -879630310 -1781352947 409869070 118825405 -947088978 1259519885 -1051340422 561000592 1155719670 891775845 1025290805 -1689098449 -1402785110 878358396 274105643 -2002885723 537118647 -1641278484 -106851060 1227409886 -1548454327 -29941991
REM
CELL 1.54180   50.00000   50.00000   50.00000   90.00000   90.00000   90.00000
LATT -1
SFAC C  
C      1  0.5344890000000  0.5183420000000  0.5167460000000 1.0
C      1  0.4657340000000  0.4830310000000  0.5182470000000 1.0
C      1  0.5346080000000  0.4813610000000  0.4831920000000 1.0
C      1  0.4657220000000  0.5169540000000  0.4816700000000 1.0
C      1  0.4949900000000  0.5619310000000  0.4907320000000 1.0
C      1  0.5059450000000  0.5097680000000  0.5617750000000 1.0
C      1  0.4939480000000  0.4384050000000  0.5096900000000 1.0
C      1  0.5049320000000  0.4907240000000  0.4372400000000 1.0
C      1  0.4531540000000  0.5361340000000  0.4607480000000 1.0
C      1  0.5468780000000  0.5391850000000  0.5364190000000 1.0
C      1  0.4529600000000  0.4626110000000  0.5392700000000 1.0
C      1  0.5472980000000  0.4603830000000  0.4626190000000 1.0
C      1  0.4554090000000  0.5623360000000  0.5174880000000 1.0
C      1  0.5445630000000  0.4827390000000  0.5623660000000 1.0
C      1  0.4552380000000  0.4376130000000  0.4828050000000 1.0
C      1  0.5448170000000  0.5177920000000  0.4382950000000 1.0
C      1  0.4719040000000  0.4737480000000  0.5606990000000 1.0
C      1  0.5279830000000  0.4391560000000  0.4737400000000 1.0
C      1  0.4720980000000  0.5253670000000  0.4400060000000 1.0
C      1  0.5277560000000  0.5598710000000  0.5257840000000 1.0
C      1  0.4791490000000  0.5017040000000  0.5579810000000 1.0
C      1  0.5207670000000  0.4420460000000  0.5017460000000 1.0
C      1  0.4781890000000  0.4978390000000  0.4414840000000 1.0
C      1  0.5214490000000  0.5575090000000  0.4981160000000 1.0
C      1  0.4405280000000  0.4861690000000  0.5040780000000 1.0
C      1  0.5594590000000  0.4961310000000  0.4861660000000 1.0
C      1  0.4401490000000  0.5145200000000  0.4952670000000 1.0
C      1  0.5601070000000  0.5047820000000  0.5144780000000 1.0
C      1  0.4621960000000  0.5347500000000  0.5239560000000 1.0
C      1  0.5378330000000  0.4756950000000  0.5349740000000 1.0
C      1  0.4623620000000  0.4649600000000  0.4758700000000 1.0
C      1  0.5385420000000  0.5253780000000  0.4641420000000 1.0
C      1  0.4835070000000  0.5694690000000  0.5163670000000 1.0
C      1  0.5164530000000  0.4840130000000  0.5695210000000 1.0
C      1  0.4833530000000  0.4303390000000  0.4839850000000 1.0
C      1  0.5166360000000  0.5163430000000  0.4314590000000 1.0
C      1  0.4373700000000  0.5395460000000  0.5105200000000 1.0
C      1  0.5625540000000  0.4893490000000  0.5395100000000 1.0
C      1  0.4374020000000  0.4608040000000  0.4891300000000 1.0
C      1  0.5618350000000  0.5121580000000  0.4615960000000 1.0
C      1  0.4710880000000  0.5273080000000  0.5498570000000 1.0
C      1  0.5288310000000  0.4499150000000  0.5274240000000 1.0
C      1  0.4707330000000  0.4721900000000  0.4495870000000 1.0
C      1  0.5292200000000  0.5502440000000  0.4722710000000 1.0
C      1  0.5017510000000  0.4395200000000  0.4621730000000 1.0
C      1  0.4977720000000  0.5374460000000  0.4399180000000 1.0
C      1  0.5020800000000  0.5606130000000  0.5379120000000 1.0
C      1  0.4980260000000  0.4620890000000  0.5607520000000 1.0
C      1  0.5058490000000  0.4853780000000  0.4857770000000 1.0
C      1  0.4945570000000  0.5139660000000  0.4852660000000 1.0
C      1  0.5056540000000  0.5146830000000  0.5137520000000 1.0
C      1  0.4944320000000  0.4860680000000  0.5146210000000 1.0
C      1  0.4481130000000  0.5623430000000  0.4664840000000 1.0
C      1  0.5521230000000  0.5334550000000  0.5626060000000 1.0
C      1  0.4476590000000  0.4374000000000  0.5336530000000 1.0
C      1  0.5521020000000  0.4661340000000  0.4375190000000 1.0
C      1  0.4970320000000  0.5379910000000  0.5559980000000 1.0
C      1  0.5027720000000  0.4439900000000  0.5379980000000 1.0
C      1  0.4972010000000  0.4624210000000  0.4440640000000 1.0
C      1  0.5027400000000  0.5558880000000  0.4624890000000 1.0
END
