TITL C-2441158-471-119 0.022424822540334 125000 -3641.96929222819 0 0 32 (C1) n - 1
REM
REM in /home/bkarasulu/work/CARBON/AIRSS/Generating-Clusters/ReaxFF-fromJPCA2015/Units_Real/with-SteepDescent/Higher-Symm
REM
REM
REM
REM
REM
REM ./C.cell (1df0a924f5614ab8850e4351716899ee)
REM
REM compiler GCC version 9.2.1 20190827 (Red Hat 9.2.1-1)
REM options -cpp -mtune=generic -march=x86-64 -g -O0 -fpre-include=/usr/include/finclude/math-vector-fortran.h
REM seed -1642150427 -380136607 -17397077 -2081986941 393856404 2043823835 -36779886 1578150674 267977101 972528515 1494749412 1258401075 915149154 1466458623 366323589 624058901 -582109307 970488332 -94770178 -2117390971 -1222767065 489909004 -179725931 -1595448920 351812229 -616320472 1156324484 -1976862692 -603905431 -736041093 138263567 -1042575181 -969002930
REM
CELL 1.54180   50.00000   50.00000   50.00000   90.00000   90.00000   90.00000
LATT -1
SFAC C  
C      1  0.4978660000000  0.4598170000000  0.5359530000000 1.0
C      1  0.5347870000000  0.4857690000000  0.5366870000000 1.0
C      1  0.5253880000000  0.5288020000000  0.5354350000000 1.0
C      1  0.4776660000000  0.5368290000000  0.5372310000000 1.0
C      1  0.4622890000000  0.4923050000000  0.5341020000000 1.0
C      1  0.4927570000000  0.4681930000000  0.4483450000000 1.0
C      1  0.5259810000000  0.4847260000000  0.4472290000000 1.0
C      1  0.5220040000000  0.5191560000000  0.4469010000000 1.0
C      1  0.4909240000000  0.5268570000000  0.4461810000000 1.0
C      1  0.4716350000000  0.4987950000000  0.4464270000000 1.0
C      1  0.5425670000000  0.4622600000000  0.5189390000000 1.0
C      1  0.5475470000000  0.5275920000000  0.5178570000000 1.0
C      1  0.4872110000000  0.5528360000000  0.5166160000000 1.0
C      1  0.4429050000000  0.5043320000000  0.5169770000000 1.0
C      1  0.4776980000000  0.4479400000000  0.5186590000000 1.0
C      1  0.4698070000000  0.5399200000000  0.4974890000000 1.0
C      1  0.4468230000000  0.4836170000000  0.4968620000000 1.0
C      1  0.4976870000000  0.4459460000000  0.4972750000000 1.0
C      1  0.5502030000000  0.4792600000000  0.4965110000000 1.0
C      1  0.5327150000000  0.5402850000000  0.4963130000000 1.0
C      1  0.4923780000000  0.4682560000000  0.4773400000000 1.0
C      1  0.5319660000000  0.4755870000000  0.4748460000000 1.0
C      1  0.5276240000000  0.5173100000000  0.4783770000000 1.0
C      1  0.4874980000000  0.5283630000000  0.4782520000000 1.0
C      1  0.4596660000000  0.4956470000000  0.4736660000000 1.0
C      1  0.5410120000000  0.5010740000000  0.5121780000000 1.0
C      1  0.5091610000000  0.5361750000000  0.5134190000000 1.0
C      1  0.4677790000000  0.5190810000000  0.5197250000000 1.0
C      1  0.4678130000000  0.4734010000000  0.5136680000000 1.0
C      1  0.5150830000000  0.4595080000000  0.5145830000000 1.0
C      1  0.5070610000000  0.4929020000000  0.5395570000000 1.0
C      1  0.5022950000000  0.5032370000000  0.4827060000000 1.0
END
