TITL C-2441168-9922-944 0.0604154246426404 125000 -9265.04731111067 0 0 79 (C1) n - 1
REM
REM in /home/bkarasulu/work/CARBON/AIRSS/Generating-Clusters/ReaxFF-fromJPCA2015/Units_Real/with-SteepDescent/Higher-Symm
REM
REM
REM
REM
REM
REM ./C.cell (1df0a924f5614ab8850e4351716899ee)
REM
REM compiler GCC version 9.2.1 20190827 (Red Hat 9.2.1-1)
REM options -cpp -mtune=generic -march=x86-64 -g -O0 -fpre-include=/usr/include/finclude/math-vector-fortran.h
REM seed -1628677183 1511832966 -1021584431 1088852236 1366412414 900932960 -645755664 802997794 1770743170 279582885 727770019 -379558749 1758698034 237376291 872885462 1233996047 -1886584570 1146776899 -1217186781 -1803151867 -1647036450 -619949074 1964131127 -754498639 -713450323 -903670150 1077854612 1103253241 -1737234087 -481575591 1648815346 2102119618 -2117329969
REM
CELL 1.54180   50.00000   50.00000   50.00000   90.00000   90.00000   90.00000
LATT -1
SFAC C  
C      1  0.4382660000000  0.5072600000000  0.4563110000000 1.0
C      1  0.5589340000000  0.4924720000000  0.4524240000000 1.0
C      1  0.4419350000000  0.4943770000000  0.5502000000000 1.0
C      1  0.5588000000000  0.5076710000000  0.5485480000000 1.0
C      1  0.4256970000000  0.5277560000000  0.5103380000000 1.0
C      1  0.5734700000000  0.4737920000000  0.5112990000000 1.0
C      1  0.4271820000000  0.4732570000000  0.4882880000000 1.0
C      1  0.5739780000000  0.5286720000000  0.4884300000000 1.0
C      1  0.4671430000000  0.4744270000000  0.5433010000000 1.0
C      1  0.5322460000000  0.5234690000000  0.5404280000000 1.0
C      1  0.4704680000000  0.5243120000000  0.4624640000000 1.0
C      1  0.5297040000000  0.4746990000000  0.4588140000000 1.0
C      1  0.4349110000000  0.4452220000000  0.4942910000000 1.0
C      1  0.5641790000000  0.5568820000000  0.4927450000000 1.0
C      1  0.4368330000000  0.5555850000000  0.5079410000000 1.0
C      1  0.5639030000000  0.4461200000000  0.5063690000000 1.0
C      1  0.5325960000000  0.4462410000000  0.4650760000000 1.0
C      1  0.4665530000000  0.5531560000000  0.4644390000000 1.0
C      1  0.5339850000000  0.5524700000000  0.5367700000000 1.0
C      1  0.4658990000000  0.4460740000000  0.5359550000000 1.0
C      1  0.4790170000000  0.5221760000000  0.5610720000000 1.0
C      1  0.5196590000000  0.4798120000000  0.5627610000000 1.0
C      1  0.4836210000000  0.4858630000000  0.4352960000000 1.0
C      1  0.5242950000000  0.5240710000000  0.4347230000000 1.0
C      1  0.4609160000000  0.4608880000000  0.4594940000000 1.0
C      1  0.5412370000000  0.5324980000000  0.4572650000000 1.0
C      1  0.4579890000000  0.5361820000000  0.5390730000000 1.0
C      1  0.5415330000000  0.4656940000000  0.5424320000000 1.0
C      1  0.4735830000000  0.4824970000000  0.4745380000000 1.0
C      1  0.5316940000000  0.5127210000000  0.4791930000000 1.0
C      1  0.4667610000000  0.5120620000000  0.5209690000000 1.0
C      1  0.5277620000000  0.4880420000000  0.5244970000000 1.0
C      1  0.4617450000000  0.4400170000000  0.4818480000000 1.0
C      1  0.5357080000000  0.5589540000000  0.4838720000000 1.0
C      1  0.4620410000000  0.5621520000000  0.5208520000000 1.0
C      1  0.5366480000000  0.4432460000000  0.5173960000000 1.0
C      1  0.4404940000000  0.4530300000000  0.5219490000000 1.0
C      1  0.5593180000000  0.5496770000000  0.5210330000000 1.0
C      1  0.4413700000000  0.5502350000000  0.4793790000000 1.0
C      1  0.5580530000000  0.4534280000000  0.4787340000000 1.0
C      1  0.4947720000000  0.4475790000000  0.5323680000000 1.0
C      1  0.5049330000000  0.5527380000000  0.5327330000000 1.0
C      1  0.4953590000000  0.5536270000000  0.4688530000000 1.0
C      1  0.5032640000000  0.4471060000000  0.4684400000000 1.0
C      1  0.5055940000000  0.4903600000000  0.5383110000000 1.0
C      1  0.4896440000000  0.5088820000000  0.5358070000000 1.0
C      1  0.5041440000000  0.5098340000000  0.4731390000000 1.0
C      1  0.4954650000000  0.4906570000000  0.4616030000000 1.0
C      1  0.4446640000000  0.4816000000000  0.5118450000000 1.0
C      1  0.5615130000000  0.5215600000000  0.5138420000000 1.0
C      1  0.4363940000000  0.5224410000000  0.4833430000000 1.0
C      1  0.5556900000000  0.4825400000000  0.4874940000000 1.0
C      1  0.5675920000000  0.5188740000000  0.4608620000000 1.0
C      1  0.4360150000000  0.4780950000000  0.4603270000000 1.0
C      1  0.5667290000000  0.4806940000000  0.5389310000000 1.0
C      1  0.4324620000000  0.5202060000000  0.5384540000000 1.0
C      1  0.5116510000000  0.5770730000000  0.4942380000000 1.0
C      1  0.4849800000000  0.4249450000000  0.4977840000000 1.0
C      1  0.5131360000000  0.4251380000000  0.5053280000000 1.0
C      1  0.4834340000000  0.5751820000000  0.5049220000000 1.0
C      1  0.4751150000000  0.4738260000000  0.5705530000000 1.0
C      1  0.5255910000000  0.5258290000000  0.5691620000000 1.0
C      1  0.4751510000000  0.5257940000000  0.4333620000000 1.0
C      1  0.5229850000000  0.4741840000000  0.4309960000000 1.0
C      1  0.4600600000000  0.4995560000000  0.5723250000000 1.0
C      1  0.5406950000000  0.5009670000000  0.5715340000000 1.0
C      1  0.4582690000000  0.5011000000000  0.4336170000000 1.0
C      1  0.5397440000000  0.4990360000000  0.4297670000000 1.0
C      1  0.4771820000000  0.5256400000000  0.4981540000000 1.0
C      1  0.5260150000000  0.4707120000000  0.5025520000000 1.0
C      1  0.4735570000000  0.4706870000000  0.4993770000000 1.0
C      1  0.5280290000000  0.5323900000000  0.4985860000000 1.0
C      1  0.4985920000000  0.4581410000000  0.5597370000000 1.0
C      1  0.5019510000000  0.5412310000000  0.5603320000000 1.0
C      1  0.5003810000000  0.5394670000000  0.4425750000000 1.0
C      1  0.4973310000000  0.4587690000000  0.4404220000000 1.0
C      1  0.5018510000000  0.5402100000000  0.5049880000000 1.0
C      1  0.4997870000000  0.4615540000000  0.4976690000000 1.0
C      1  0.4970010000000  0.5019840000000  0.4982740000000 1.0
END
