TITL C-2441163-1170-1077 0.0306023157714221 125000 -2920.52683148499 0 0 34 (C5) n - 1
REM
REM in /home/bkarasulu/work/CARBON/AIRSS/Generating-Clusters/ReaxFF-fromJPCA2015/Units_Real/with-SteepDescent/Higher-Symm
REM
REM
REM
REM
REM
REM ./C.cell (1df0a924f5614ab8850e4351716899ee)
REM
REM compiler GCC version 9.2.1 20190827 (Red Hat 9.2.1-1)
REM options -cpp -mtune=generic -march=x86-64 -g -O0 -fpre-include=/usr/include/finclude/math-vector-fortran.h
REM seed 763535776 1288627893 -455405736 1458978295 -738747286 -910136950 -1439207644 737175724 -663648286 1610047324 -873441371 -1682106126 -363066666 -442076938 1457429559 -1809910920 -1431650356 -1744549596 -1827144286 -412661943 1531873310 -1296959045 1431348018 1139669076 212328109 1865479672 -1273796794 884201960 -1170710578 -1420336062 -995542489 376992456 685123156
REM
CELL 1.54180   50.00000   50.00000   50.00000   90.00000   90.00000   90.00000
LATT -1
SFAC C  
C      1  0.4742330000000  0.5060430000000  0.5224620000000 1.0
C      1  0.4715240000000  0.5060290000000  0.4837210000000 1.0
C      1  0.5073700000000  0.5060170000000  0.4691970000000 1.0
C      1  0.5324260000000  0.5060810000000  0.4989200000000 1.0
C      1  0.5118660000000  0.5060180000000  0.5318190000000 1.0
C      1  0.5602060000000  0.4959020000000  0.5058580000000 1.0
C      1  0.5138230000000  0.4958920000000  0.5604090000000 1.0
C      1  0.4476350000000  0.4959130000000  0.5331140000000 1.0
C      1  0.4531160000000  0.4958960000000  0.4617220000000 1.0
C      1  0.5227410000000  0.4959310000000  0.4449380000000 1.0
C      1  0.4390120000000  0.5052150000000  0.5073760000000 1.0
C      1  0.4749250000000  0.5052050000000  0.4456580000000 1.0
C      1  0.5447960000000  0.5052160000000  0.4606700000000 1.0
C      1  0.5520610000000  0.5052390000000  0.5317360000000 1.0
C      1  0.4866880000000  0.5052270000000  0.5606010000000 1.0
C      1  0.4456700000000  0.4828610000000  0.4885360000000 1.0
C      1  0.4949100000000  0.4828710000000  0.4461000000000 1.0
C      1  0.5505030000000  0.4828690000000  0.4798000000000 1.0
C      1  0.5355480000000  0.4828670000000  0.5431070000000 1.0
C      1  0.4708320000000  0.4828710000000  0.5484470000000 1.0
C      1  0.4961720000000  0.4658220000000  0.4716840000000 1.0
C      1  0.5265710000000  0.4658170000000  0.4888760000000 1.0
C      1  0.5195950000000  0.4657930000000  0.5231710000000 1.0
C      1  0.4847820000000  0.4658100000000  0.5270940000000 1.0
C      1  0.4703650000000  0.4658180000000  0.4952050000000 1.0
C      1  0.4881460000000  0.5299570000000  0.5394230000000 1.0
C      1  0.4596090000000  0.5299590000000  0.5022160000000 1.0
C      1  0.4862630000000  0.5300570000000  0.4635720000000 1.0
C      1  0.5312170000000  0.5299420000000  0.4769060000000 1.0
C      1  0.5323520000000  0.5299670000000  0.5238210000000 1.0
C      1  0.4994840000000  0.5431730000000  0.5012180000000 1.0
C      1  0.4994960000000  0.5213750000000  0.5012440000000 1.0
C      1  0.4994290000000  0.4957490000000  0.5010400000000 1.0
C      1  0.4995180000000  0.4574380000000  0.5012590000000 1.0
END
