TITL C-2441160-1326-1019 0.0641423231344306 125000 -21343.4561826688 0 0 153 (C1) n - 1
REM
REM in /home/bkarasulu/work/CARBON/AIRSS/Generating-Clusters/ReaxFF-fromJPCA2015/Units_Real/with-SteepDescent/Higher-Symm
REM
REM
REM
REM
REM
REM ./C.cell (1df0a924f5614ab8850e4351716899ee)
REM
REM compiler GCC version 9.2.1 20190827 (Red Hat 9.2.1-1)
REM options -cpp -mtune=generic -march=x86-64 -g -O0 -fpre-include=/usr/include/finclude/math-vector-fortran.h
REM seed 903236892 1096057424 -1212303760 781817965 -1542658105 -932289442 -457192852 -648939662 -1027231225 -261816872 -2139812853 -1137647802 954464350 -1059659755 -853897729 -1033545248 -1292104113 1833001990 -862234148 834765734 1353758049 1431826082 -482902607 -2108690599 -188640375 -2057263276 1380622358 887424788 1070642857 -285683356 -448918005 1871927702 -575983795
REM
CELL 1.54180   50.00000   50.00000   50.00000   90.00000   90.00000   90.00000
LATT -1
SFAC C  
C      1  0.4743140000000  0.4895210000000  0.5288790000000 1.0
C      1  0.5326140000000  0.4821080000000  0.4767850000000 1.0
C      1  0.5454710000000  0.4935280000000  0.5484110000000 1.0
C      1  0.4617420000000  0.4917910000000  0.4231010000000 1.0
C      1  0.4821880000000  0.4157090000000  0.5161150000000 1.0
C      1  0.5175030000000  0.4150600000000  0.4851550000000 1.0
C      1  0.5352990000000  0.5583800000000  0.4641140000000 1.0
C      1  0.4621170000000  0.5556050000000  0.5371670000000 1.0
C      1  0.5350980000000  0.4576970000000  0.4891080000000 1.0
C      1  0.4620170000000  0.4632330000000  0.5191150000000 1.0
C      1  0.5093660000000  0.5978940000000  0.5310690000000 1.0
C      1  0.4973050000000  0.5977900000000  0.4706030000000 1.0
C      1  0.4812660000000  0.4957800000000  0.4819980000000 1.0
C      1  0.5071680000000  0.4985950000000  0.5273650000000 1.0
C      1  0.5355050000000  0.4878290000000  0.4490230000000 1.0
C      1  0.4735940000000  0.4954980000000  0.5586030000000 1.0
C      1  0.5552710000000  0.5835920000000  0.5475340000000 1.0
C      1  0.4487020000000  0.5826950000000  0.4568930000000 1.0
C      1  0.5457180000000  0.5077270000000  0.4130840000000 1.0
C      1  0.4535730000000  0.5072920000000  0.5831800000000 1.0
C      1  0.5585270000000  0.4211830000000  0.4606460000000 1.0
C      1  0.4424260000000  0.4220030000000  0.5409390000000 1.0
C      1  0.4379740000000  0.4612180000000  0.5732310000000 1.0
C      1  0.5602320000000  0.4602470000000  0.4282320000000 1.0
C      1  0.4019040000000  0.4817880000000  0.5200290000000 1.0
C      1  0.5951990000000  0.4729250000000  0.4733890000000 1.0
C      1  0.4963720000000  0.4025370000000  0.4694540000000 1.0
C      1  0.5023810000000  0.4028660000000  0.5326890000000 1.0
C      1  0.5204590000000  0.5007820000000  0.4010660000000 1.0
C      1  0.4770740000000  0.5011410000000  0.5999380000000 1.0
C      1  0.5724730000000  0.5615550000000  0.5552700000000 1.0
C      1  0.4344970000000  0.5607790000000  0.4419130000000 1.0
C      1  0.5233890000000  0.4074680000000  0.5126670000000 1.0
C      1  0.4748310000000  0.4084970000000  0.4889920000000 1.0
C      1  0.5695120000000  0.5484920000000  0.5071190000000 1.0
C      1  0.4271510000000  0.5441180000000  0.4891400000000 1.0
C      1  0.5200160000000  0.5692340000000  0.5743100000000 1.0
C      1  0.4798030000000  0.5721640000000  0.4267660000000 1.0
C      1  0.4479430000000  0.5346690000000  0.5743660000000 1.0
C      1  0.5491410000000  0.5323620000000  0.4265360000000 1.0
C      1  0.4845830000000  0.5384160000000  0.5208740000000 1.0
C      1  0.5138050000000  0.5236910000000  0.4794060000000 1.0
C      1  0.6087140000000  0.4895890000000  0.4528000000000 1.0
C      1  0.3919880000000  0.4840390000000  0.5474040000000 1.0
C      1  0.5123870000000  0.4520070000000  0.4113460000000 1.0
C      1  0.4875360000000  0.4489440000000  0.5927460000000 1.0
C      1  0.5124400000000  0.4443800000000  0.4770730000000 1.0
C      1  0.4869580000000  0.4468680000000  0.5238170000000 1.0
C      1  0.4108600000000  0.4953630000000  0.4692370000000 1.0
C      1  0.5888260000000  0.4967860000000  0.5295550000000 1.0
C      1  0.4194640000000  0.4423040000000  0.4673100000000 1.0
C      1  0.5824150000000  0.4417000000000  0.5318780000000 1.0
C      1  0.4954710000000  0.4155380000000  0.5583030000000 1.0
C      1  0.5049420000000  0.4160340000000  0.4450340000000 1.0
C      1  0.5142030000000  0.5515620000000  0.4841860000000 1.0
C      1  0.4988060000000  0.5597050000000  0.5064400000000 1.0
C      1  0.4673110000000  0.4609890000000  0.4902440000000 1.0
C      1  0.5401290000000  0.4530040000000  0.5164840000000 1.0
C      1  0.5383710000000  0.5466140000000  0.5699460000000 1.0
C      1  0.4602270000000  0.5482670000000  0.4318630000000 1.0
C      1  0.4207850000000  0.5362510000000  0.4461480000000 1.0
C      1  0.5811590000000  0.5365200000000  0.5574280000000 1.0
C      1  0.4743490000000  0.5088620000000  0.5069870000000 1.0
C      1  0.5228170000000  0.5019880000000  0.4966930000000 1.0
C      1  0.5338090000000  0.5381360000000  0.5386000000000 1.0
C      1  0.4651390000000  0.5311940000000  0.4601790000000 1.0
C      1  0.5861570000000  0.4684730000000  0.5202460000000 1.0
C      1  0.4162320000000  0.4687580000000  0.4809420000000 1.0
C      1  0.5860570000000  0.5088710000000  0.5571500000000 1.0
C      1  0.4155670000000  0.5090810000000  0.4425370000000 1.0
C      1  0.5072440000000  0.4886420000000  0.4450350000000 1.0
C      1  0.4934730000000  0.4795620000000  0.5648650000000 1.0
C      1  0.4416250000000  0.4310570000000  0.4513000000000 1.0
C      1  0.5636640000000  0.4327750000000  0.5519570000000 1.0
C      1  0.5608670000000  0.4901770000000  0.4309300000000 1.0
C      1  0.4303150000000  0.4891330000000  0.5758350000000 1.0
C      1  0.4675160000000  0.4232860000000  0.5587690000000 1.0
C      1  0.5324150000000  0.4234410000000  0.4435880000000 1.0
C      1  0.5281810000000  0.6025870000000  0.5092530000000 1.0
C      1  0.4780760000000  0.5969030000000  0.4917140000000 1.0
C      1  0.4920710000000  0.4417240000000  0.4290640000000 1.0
C      1  0.5083520000000  0.4386480000000  0.5746820000000 1.0
C      1  0.5359670000000  0.4453860000000  0.4241910000000 1.0
C      1  0.4639600000000  0.4451280000000  0.5780220000000 1.0
C      1  0.4036860000000  0.5415770000000  0.5292270000000 1.0
C      1  0.5931950000000  0.5489700000000  0.4722990000000 1.0
C      1  0.5736520000000  0.5669390000000  0.4852060000000 1.0
C      1  0.4217900000000  0.5599360000000  0.5141560000000 1.0
C      1  0.5436820000000  0.5555430000000  0.5162300000000 1.0
C      1  0.4545800000000  0.5485650000000  0.4811130000000 1.0
C      1  0.4095110000000  0.5205270000000  0.4837650000000 1.0
C      1  0.5884470000000  0.5212300000000  0.5136860000000 1.0
C      1  0.5520110000000  0.4538730000000  0.5667030000000 1.0
C      1  0.4457480000000  0.4544850000000  0.4356160000000 1.0
C      1  0.4767780000000  0.5893850000000  0.4494600000000 1.0
C      1  0.5263880000000  0.5885790000000  0.5534500000000 1.0
C      1  0.4667230000000  0.5558960000000  0.5690700000000 1.0
C      1  0.5312260000000  0.5561390000000  0.4294340000000 1.0
C      1  0.5055170000000  0.4585350000000  0.5487180000000 1.0
C      1  0.4921340000000  0.4646990000000  0.4511680000000 1.0
C      1  0.4121760000000  0.5322550000000  0.5553630000000 1.0
C      1  0.5843290000000  0.5359500000000  0.4472270000000 1.0
C      1  0.4361750000000  0.5062830000000  0.4203380000000 1.0
C      1  0.5613510000000  0.5023860000000  0.5715200000000 1.0
C      1  0.4326720000000  0.5127590000000  0.5231790000000 1.0
C      1  0.5669540000000  0.5131000000000  0.4784140000000 1.0
C      1  0.5453900000000  0.5231940000000  0.5857420000000 1.0
C      1  0.4503530000000  0.5294160000000  0.4086770000000 1.0
C      1  0.4981590000000  0.5194120000000  0.5944030000000 1.0
C      1  0.5006290000000  0.5205410000000  0.4095210000000 1.0
C      1  0.5362860000000  0.4668200000000  0.5414020000000 1.0
C      1  0.4637980000000  0.4764120000000  0.4489730000000 1.0
C      1  0.4939730000000  0.5352030000000  0.5714620000000 1.0
C      1  0.5078820000000  0.5421160000000  0.4273520000000 1.0
C      1  0.4480370000000  0.5067500000000  0.5015820000000 1.0
C      1  0.5511790000000  0.5079500000000  0.5019590000000 1.0
C      1  0.5237660000000  0.4788680000000  0.6012990000000 1.0
C      1  0.4754410000000  0.4754770000000  0.4022140000000 1.0
C      1  0.4468610000000  0.5731840000000  0.5198580000000 1.0
C      1  0.5497270000000  0.5817870000000  0.4732250000000 1.0
C      1  0.4296290000000  0.4247600000000  0.4896020000000 1.0
C      1  0.5715350000000  0.4216760000000  0.5130360000000 1.0
C      1  0.4934880000000  0.4762030000000  0.5986750000000 1.0
C      1  0.5048000000000  0.4760960000000  0.3983080000000 1.0
C      1  0.5446790000000  0.4256740000000  0.5246690000000 1.0
C      1  0.4582920000000  0.4308850000000  0.4786700000000 1.0
C      1  0.5719000000000  0.4306240000000  0.4858130000000 1.0
C      1  0.4288640000000  0.4346340000000  0.5164840000000 1.0
C      1  0.5063490000000  0.5674550000000  0.4177060000000 1.0
C      1  0.4925640000000  0.5616760000000  0.5798980000000 1.0
C      1  0.5556900000000  0.5327020000000  0.4553480000000 1.0
C      1  0.4399680000000  0.5315390000000  0.5469550000000 1.0
C      1  0.5703950000000  0.4415110000000  0.4460750000000 1.0
C      1  0.4285650000000  0.4401340000000  0.5568090000000 1.0
C      1  0.4867050000000  0.5849500000000  0.5173220000000 1.0
C      1  0.5256120000000  0.5975540000000  0.4804980000000 1.0
C      1  0.5943400000000  0.5222200000000  0.4856590000000 1.0
C      1  0.4039130000000  0.5147750000000  0.5137130000000 1.0
C      1  0.4534960000000  0.5798030000000  0.4861540000000 1.0
C      1  0.5489550000000  0.5841020000000  0.5190250000000 1.0
C      1  0.4950360000000  0.5122860000000  0.4612930000000 1.0
C      1  0.5042450000000  0.5264750000000  0.5411600000000 1.0
C      1  0.5244980000000  0.5079160000000  0.5990490000000 1.0
C      1  0.4748970000000  0.5229320000000  0.3937350000000 1.0
C      1  0.4544880000000  0.5033380000000  0.4703800000000 1.0
C      1  0.5483890000000  0.5136430000000  0.5294240000000 1.0
C      1  0.5330570000000  0.4553680000000  0.5879570000000 1.0
C      1  0.4661270000000  0.4511230000000  0.4146200000000 1.0
C      1  0.5830710000000  0.4586500000000  0.4922620000000 1.0
C      1  0.4231470000000  0.4641220000000  0.5097550000000 1.0
C      1  0.4088650000000  0.5035730000000  0.5640440000000 1.0
C      1  0.5870220000000  0.5073390000000  0.4415610000000 1.0
C      1  0.4949100000000  0.4550400000000  0.4964820000000 1.0
END
