TITL C-2441154-10-620 0.00627672702143691 125000 -6969.62633748139 0 0 49 (C1) n - 1
REM
REM in /home/bkarasulu/work/CARBON/AIRSS/Generating-Clusters/ReaxFF-fromJPCA2015/Units_Real/with-SteepDescent/Higher-Symm
REM
REM
REM
REM
REM
REM ./C.cell (1df0a924f5614ab8850e4351716899ee)
REM
REM compiler GCC version 9.2.1 20190827 (Red Hat 9.2.1-1)
REM options -cpp -mtune=generic -march=x86-64 -g -O0 -fpre-include=/usr/include/finclude/math-vector-fortran.h
REM seed 1242276404 -1198205480 220147667 595415281 1350753532 2131053416 -1683902753 -920791654 -1645018205 1463622873 740279821 2101459750 -1065171143 1862934375 1214586969 831762564 2134398817 -255963954 -344658374 -385934776 918755428 -1367878756 -1465505860 -1094734764 1944751788 -334047513 500238734 892530323 1294758442 1325935368 1909655006 -687513504 675347277
REM
CELL 1.54180   50.00000   50.00000   50.00000   90.00000   90.00000   90.00000
LATT -1
SFAC C  
C      1  0.4924620000000  0.4502770000000  0.4831900000000 1.0
C      1  0.5263950000000  0.5645830000000  0.4931680000000 1.0
C      1  0.5028740000000  0.5022340000000  0.4891620000000 1.0
C      1  0.4887230000000  0.5619510000000  0.4397620000000 1.0
C      1  0.4719000000000  0.5202040000000  0.5287030000000 1.0
C      1  0.4756920000000  0.5052540000000  0.5033340000000 1.0
C      1  0.5184380000000  0.5311470000000  0.4479400000000 1.0
C      1  0.5563470000000  0.4636710000000  0.4916500000000 1.0
C      1  0.4828690000000  0.4978280000000  0.4379210000000 1.0
C      1  0.5156740000000  0.5485950000000  0.5416850000000 1.0
C      1  0.4461540000000  0.4748110000000  0.5305230000000 1.0
C      1  0.4526070000000  0.4736660000000  0.4663820000000 1.0
C      1  0.5173680000000  0.5604200000000  0.4534540000000 1.0
C      1  0.5506930000000  0.4645260000000  0.4625220000000 1.0
C      1  0.4307470000000  0.4871670000000  0.5114000000000 1.0
C      1  0.4864780000000  0.5470430000000  0.5344670000000 1.0
C      1  0.4175690000000  0.5148060000000  0.5247600000000 1.0
C      1  0.5213690000000  0.5251990000000  0.5596380000000 1.0
C      1  0.4754730000000  0.4704780000000  0.4441650000000 1.0
C      1  0.4432380000000  0.4508120000000  0.4616840000000 1.0
C      1  0.4903480000000  0.4928380000000  0.5759110000000 1.0
C      1  0.5225610000000  0.4337660000000  0.5138880000000 1.0
C      1  0.4627600000000  0.4819530000000  0.5752450000000 1.0
C      1  0.5700580000000  0.5026430000000  0.4894060000000 1.0
C      1  0.5278290000000  0.4992280000000  0.5469220000000 1.0
C      1  0.5302170000000  0.5129110000000  0.4983170000000 1.0
C      1  0.5001320000000  0.4341150000000  0.5303980000000 1.0
C      1  0.5067620000000  0.5739040000000  0.4769400000000 1.0
C      1  0.4784520000000  0.5641980000000  0.4834960000000 1.0
C      1  0.4760500000000  0.5450940000000  0.4601650000000 1.0
C      1  0.5257990000000  0.4599010000000  0.4474360000000 1.0
C      1  0.4794130000000  0.5562800000000  0.5096250000000 1.0
C      1  0.5267390000000  0.5568940000000  0.5178680000000 1.0
C      1  0.5504520000000  0.5189970000000  0.4773300000000 1.0
C      1  0.4525840000000  0.4922920000000  0.4922130000000 1.0
C      1  0.4916880000000  0.4581290000000  0.5444470000000 1.0
C      1  0.4439310000000  0.5217010000000  0.5296410000000 1.0
C      1  0.4928840000000  0.5180820000000  0.4586710000000 1.0
C      1  0.4981090000000  0.4537430000000  0.4545080000000 1.0
C      1  0.4626210000000  0.4639480000000  0.5503550000000 1.0
C      1  0.5413110000000  0.5135450000000  0.4492430000000 1.0
C      1  0.5419350000000  0.4847910000000  0.4434420000000 1.0
C      1  0.5304930000000  0.4585140000000  0.5047320000000 1.0
C      1  0.4977700000000  0.4285200000000  0.5018430000000 1.0
C      1  0.5013330000000  0.5208850000000  0.5811040000000 1.0
C      1  0.5078450000000  0.4795820000000  0.5553150000000 1.0
C      1  0.5432140000000  0.5015340000000  0.5218050000000 1.0
C      1  0.5076400000000  0.4726760000000  0.4937020000000 1.0
C      1  0.5660000000000  0.4846660000000  0.5105240000000 1.0
END
