TITL C-2441160-1326-612 0.0324031808517616 125000 -16866.3555779138 0 0 117 (C1) n - 1
REM
REM in /home/bkarasulu/work/CARBON/AIRSS/Generating-Clusters/ReaxFF-fromJPCA2015/Units_Real/with-SteepDescent/Higher-Symm
REM
REM
REM
REM
REM
REM ./C.cell (1df0a924f5614ab8850e4351716899ee)
REM
REM compiler GCC version 9.2.1 20190827 (Red Hat 9.2.1-1)
REM options -cpp -mtune=generic -march=x86-64 -g -O0 -fpre-include=/usr/include/finclude/math-vector-fortran.h
REM seed 1024492850 139354630 -684924147 774101316 -875710273 -1327374237 -582494973 530502681 1042670767 948879905 72457012 -2059721033 -1626283677 39264917 -1075052399 264311155 -429793767 -729799228 -61509405 -2063410418 335125767 940077488 847781383 138919516 -857998549 -1712365728 1942521658 1177060474 1245201946 -557556665 528870982 496033977 -1598170741
REM
CELL 1.54180   50.00000   50.00000   50.00000   90.00000   90.00000   90.00000
LATT -1
SFAC C  
C      1  0.5232690000000  0.5709270000000  0.4396220000000 1.0
C      1  0.4945730000000  0.5753870000000  0.4364980000000 1.0
C      1  0.4471470000000  0.5575530000000  0.4507570000000 1.0
C      1  0.4348100000000  0.5736460000000  0.5127130000000 1.0
C      1  0.4490010000000  0.5726910000000  0.5387470000000 1.0
C      1  0.5015210000000  0.5732360000000  0.5647940000000 1.0
C      1  0.5302190000000  0.5730690000000  0.5577850000000 1.0
C      1  0.5651030000000  0.5734500000000  0.5073800000000 1.0
C      1  0.5604120000000  0.5734830000000  0.4777310000000 1.0
C      1  0.5235220000000  0.4767350000000  0.5258640000000 1.0
C      1  0.5379870000000  0.4657380000000  0.5047310000000 1.0
C      1  0.5305270000000  0.4776400000000  0.4807660000000 1.0
C      1  0.5120850000000  0.4659140000000  0.4631020000000 1.0
C      1  0.4870530000000  0.4772580000000  0.4681790000000 1.0
C      1  0.4676030000000  0.4633830000000  0.4826740000000 1.0
C      1  0.4646400000000  0.4790580000000  0.5055580000000 1.0
C      1  0.4786830000000  0.4780780000000  0.5287910000000 1.0
C      1  0.5014970000000  0.4631030000000  0.5360130000000 1.0
C      1  0.5054230000000  0.4439020000000  0.5585300000000 1.0
C      1  0.5466890000000  0.4366970000000  0.5463160000000 1.0
C      1  0.5587700000000  0.4442850000000  0.5054630000000 1.0
C      1  0.5540800000000  0.4371500000000  0.4620930000000 1.0
C      1  0.5152840000000  0.4439880000000  0.4430270000000 1.0
C      1  0.4720980000000  0.4368800000000  0.4400110000000 1.0
C      1  0.4463430000000  0.4442710000000  0.4740630000000 1.0
C      1  0.4378010000000  0.4386130000000  0.5167210000000 1.0
C      1  0.4629010000000  0.4368820000000  0.5533670000000 1.0
C      1  0.5640320000000  0.4992510000000  0.4644620000000 1.0
C      1  0.5240570000000  0.5036010000000  0.4357300000000 1.0
C      1  0.4756400000000  0.4999940000000  0.4300710000000 1.0
C      1  0.4343300000000  0.5016290000000  0.4616380000000 1.0
C      1  0.4258760000000  0.4991790000000  0.5123830000000 1.0
C      1  0.4517910000000  0.5005460000000  0.5562180000000 1.0
C      1  0.4992140000000  0.5006980000000  0.5750160000000 1.0
C      1  0.5475000000000  0.4998350000000  0.5592590000000 1.0
C      1  0.5696660000000  0.4993910000000  0.5133880000000 1.0
C      1  0.5033050000000  0.4197370000000  0.5404270000000 1.0
C      1  0.5301080000000  0.4189540000000  0.5303470000000 1.0
C      1  0.5407400000000  0.4206550000000  0.5040910000000 1.0
C      1  0.5351490000000  0.4188060000000  0.4762890000000 1.0
C      1  0.5112670000000  0.4194790000000  0.4607210000000 1.0
C      1  0.4825880000000  0.4189320000000  0.4607930000000 1.0
C      1  0.4634770000000  0.4210780000000  0.4819120000000 1.0
C      1  0.4595240000000  0.4205110000000  0.5099610000000 1.0
C      1  0.4755750000000  0.4191920000000  0.5341030000000 1.0
C      1  0.5708080000000  0.5134290000000  0.4401630000000 1.0
C      1  0.5147620000000  0.5120980000000  0.4080850000000 1.0
C      1  0.4547090000000  0.5173620000000  0.4176950000000 1.0
C      1  0.4073720000000  0.5125260000000  0.4712940000000 1.0
C      1  0.4126250000000  0.5122140000000  0.5360460000000 1.0
C      1  0.4551700000000  0.5144820000000  0.5826620000000 1.0
C      1  0.5192890000000  0.5133590000000  0.5944120000000 1.0
C      1  0.5729490000000  0.5142440000000  0.5588280000000 1.0
C      1  0.5923080000000  0.5116400000000  0.4975300000000 1.0
C      1  0.4655450000000  0.5415710000000  0.5761450000000 1.0
C      1  0.5223290000000  0.5396290000000  0.5809510000000 1.0
C      1  0.5679100000000  0.5405690000000  0.5468190000000 1.0
C      1  0.5837060000000  0.5393670000000  0.4924430000000 1.0
C      1  0.5609810000000  0.5410370000000  0.4403880000000 1.0
C      1  0.5119340000000  0.5414200000000  0.4119170000000 1.0
C      1  0.4587470000000  0.5456150000000  0.4255230000000 1.0
C      1  0.4088790000000  0.5408680000000  0.4857320000000 1.0
C      1  0.4232440000000  0.5402310000000  0.5392910000000 1.0
C      1  0.4938810000000  0.5507900000000  0.5805330000000 1.0
C      1  0.5460570000000  0.5492380000000  0.5651800000000 1.0
C      1  0.5772460000000  0.5504370000000  0.5194470000000 1.0
C      1  0.5729910000000  0.5501910000000  0.4654840000000 1.0
C      1  0.5371340000000  0.5511530000000  0.4240930000000 1.0
C      1  0.4853570000000  0.5544620000000  0.4184720000000 1.0
C      1  0.4246890000000  0.5493550000000  0.4654270000000 1.0
C      1  0.4161560000000  0.5513830000000  0.5132860000000 1.0
C      1  0.4445970000000  0.5512650000000  0.5576930000000 1.0
C      1  0.5152680000000  0.5521070000000  0.4643560000000 1.0
C      1  0.4913380000000  0.5671020000000  0.4641890000000 1.0
C      1  0.4664010000000  0.5616110000000  0.4725360000000 1.0
C      1  0.4599520000000  0.5659600000000  0.4991570000000 1.0
C      1  0.4728030000000  0.5646820000000  0.5237200000000 1.0
C      1  0.4966020000000  0.5657390000000  0.5369920000000 1.0
C      1  0.5221160000000  0.5651590000000  0.5306070000000 1.0
C      1  0.5364520000000  0.5651920000000  0.5088710000000 1.0
C      1  0.5332770000000  0.5643420000000  0.4822610000000 1.0
C      1  0.4839370000000  0.4751400000000  0.4140210000000 1.0
C      1  0.4354920000000  0.4762990000000  0.4415950000000 1.0
C      1  0.4124090000000  0.4762840000000  0.4995790000000 1.0
C      1  0.4348000000000  0.4757090000000  0.5559350000000 1.0
C      1  0.4832070000000  0.4753330000000  0.5851790000000 1.0
C      1  0.5452620000000  0.4748040000000  0.5759550000000 1.0
C      1  0.5790230000000  0.4766380000000  0.5324080000000 1.0
C      1  0.5815640000000  0.4766530000000  0.4700920000000 1.0
C      1  0.5436300000000  0.4793220000000  0.4301100000000 1.0
C      1  0.4975110000000  0.4926810000000  0.3970450000000 1.0
C      1  0.4358100000000  0.4961680000000  0.4216060000000 1.0
C      1  0.3914980000000  0.4896390000000  0.4815060000000 1.0
C      1  0.4122160000000  0.4920020000000  0.5559300000000 1.0
C      1  0.4668280000000  0.4936340000000  0.5980990000000 1.0
C      1  0.5376050000000  0.4920870000000  0.5968050000000 1.0
C      1  0.5937040000000  0.4918820000000  0.5528650000000 1.0
C      1  0.6062250000000  0.4916220000000  0.4801610000000 1.0
C      1  0.5668450000000  0.4922030000000  0.4175930000000 1.0
C      1  0.4739450000000  0.5038200000000  0.5380280000000 1.0
C      1  0.4994350000000  0.5102010000000  0.5482060000000 1.0
C      1  0.5264490000000  0.5050050000000  0.5346330000000 1.0
C      1  0.5437790000000  0.5099730000000  0.5099610000000 1.0
C      1  0.5380430000000  0.5059110000000  0.4802010000000 1.0
C      1  0.5154070000000  0.5181670000000  0.4592610000000 1.0
C      1  0.4838510000000  0.5052960000000  0.4596920000000 1.0
C      1  0.4578500000000  0.5112230000000  0.4748000000000 1.0
C      1  0.4535180000000  0.5068280000000  0.5037670000000 1.0
C      1  0.5723610000000  0.4502100000000  0.4789010000000 1.0
C      1  0.5427120000000  0.4513650000000  0.4397050000000 1.0
C      1  0.4918780000000  0.4492890000000  0.4257130000000 1.0
C      1  0.4477170000000  0.4501950000000  0.4454850000000 1.0
C      1  0.4256860000000  0.4509140000000  0.4948200000000 1.0
C      1  0.4400410000000  0.4487760000000  0.5430900000000 1.0
C      1  0.4803910000000  0.4494730000000  0.5716820000000 1.0
C      1  0.5333480000000  0.4492490000000  0.5665520000000 1.0
C      1  0.5675570000000  0.4496860000000  0.5326830000000 1.0
END
