TITL C-2441167-4473-662 0.0313927918160993 125000 -20723.2897052028 0 0 145 (C1) n - 1
REM
REM in /home/bkarasulu/work/CARBON/AIRSS/Generating-Clusters/ReaxFF-fromJPCA2015/Units_Real/with-SteepDescent/Higher-Symm
REM
REM
REM
REM
REM
REM ./C.cell (1df0a924f5614ab8850e4351716899ee)
REM
REM compiler GCC version 9.2.1 20190827 (Red Hat 9.2.1-1)
REM options -cpp -mtune=generic -march=x86-64 -g -O0 -fpre-include=/usr/include/finclude/math-vector-fortran.h
REM seed 1061358754 801433159 -536860312 -1247163149 -477316039 1833403965 413918674 803106700 -1603287644 -2054099195 1624263249 -1502023900 1457904270 -179669673 -1096358610 1374680434 -1123258890 -1706956951 649589690 -1436524689 -61651111 659430029 1504603050 836889851 1745669870 799532145 -1736247364 -1186992281 1523387398 -639392197 -1805338623 2031213710 1810851104
REM
CELL 1.54180   50.00000   50.00000   50.00000   90.00000   90.00000   90.00000
LATT -1
SFAC C  
C      1  0.4869020000000  0.5344390000000  0.4175490000000 1.0
C      1  0.4595840000000  0.5204010000000  0.4184650000000 1.0
C      1  0.4669320000000  0.4806510000000  0.4242820000000 1.0
C      1  0.5188100000000  0.4584740000000  0.4217950000000 1.0
C      1  0.5370860000000  0.4812540000000  0.4200460000000 1.0
C      1  0.5321060000000  0.5320360000000  0.4181240000000 1.0
C      1  0.5061820000000  0.5732490000000  0.5673370000000 1.0
C      1  0.4401760000000  0.5429230000000  0.5669260000000 1.0
C      1  0.4335100000000  0.4689990000000  0.5672320000000 1.0
C      1  0.4937250000000  0.4242950000000  0.5725800000000 1.0
C      1  0.5604440000000  0.4586190000000  0.5651970000000 1.0
C      1  0.5648960000000  0.5303810000000  0.5622370000000 1.0
C      1  0.4146200000000  0.4765880000000  0.4845570000000 1.0
C      1  0.4800490000000  0.4139700000000  0.4730460000000 1.0
C      1  0.5660400000000  0.4401530000000  0.4815610000000 1.0
C      1  0.5916560000000  0.5232520000000  0.4718460000000 1.0
C      1  0.5228860000000  0.5895140000000  0.4646760000000 1.0
C      1  0.4335940000000  0.5691410000000  0.4739690000000 1.0
C      1  0.4108810000000  0.5480630000000  0.5323730000000 1.0
C      1  0.4122910000000  0.4447280000000  0.5322130000000 1.0
C      1  0.5152170000000  0.3981030000000  0.5192100000000 1.0
C      1  0.5908180000000  0.4531000000000  0.5282610000000 1.0
C      1  0.5878380000000  0.5543010000000  0.5288420000000 1.0
C      1  0.4971640000000  0.6007130000000  0.5268400000000 1.0
C      1  0.4896030000000  0.4729650000000  0.5422260000000 1.0
C      1  0.5171160000000  0.4791840000000  0.5416600000000 1.0
C      1  0.5274550000000  0.5059070000000  0.5406820000000 1.0
C      1  0.5080300000000  0.5261990000000  0.5417420000000 1.0
C      1  0.4805530000000  0.5201140000000  0.5417250000000 1.0
C      1  0.4707560000000  0.4937400000000  0.5419220000000 1.0
C      1  0.5153260000000  0.5245690000000  0.4487070000000 1.0
C      1  0.4870810000000  0.5252340000000  0.4466780000000 1.0
C      1  0.4654770000000  0.5040160000000  0.4411870000000 1.0
C      1  0.4828650000000  0.4688220000000  0.4454240000000 1.0
C      1  0.5104430000000  0.4731970000000  0.4482510000000 1.0
C      1  0.5275320000000  0.4981290000000  0.4460700000000 1.0
C      1  0.5252570000000  0.4585820000000  0.4697490000000 1.0
C      1  0.5468850000000  0.5012130000000  0.4683150000000 1.0
C      1  0.5191220000000  0.5407000000000  0.4727240000000 1.0
C      1  0.4732240000000  0.5407280000000  0.4688470000000 1.0
C      1  0.4505890000000  0.4984250000000  0.4676750000000 1.0
C      1  0.4746170000000  0.4560220000000  0.4691160000000 1.0
C      1  0.5441700000000  0.5464220000000  0.5154480000000 1.0
C      1  0.4858250000000  0.5574330000000  0.5191260000000 1.0
C      1  0.4354900000000  0.5151200000000  0.5148480000000 1.0
C      1  0.4490700000000  0.4587600000000  0.5163580000000 1.0
C      1  0.5031670000000  0.4363860000000  0.5172790000000 1.0
C      1  0.5533960000000  0.4774310000000  0.5172920000000 1.0
C      1  0.4295070000000  0.5166980000000  0.5626180000000 1.0
C      1  0.4504630000000  0.4462860000000  0.5630100000000 1.0
C      1  0.5216020000000  0.4291810000000  0.5639920000000 1.0
C      1  0.5734240000000  0.4839130000000  0.5601780000000 1.0
C      1  0.5494000000000  0.5533890000000  0.5614760000000 1.0
C      1  0.4788200000000  0.5692720000000  0.5627420000000 1.0
C      1  0.5912100000000  0.4814300000000  0.5353840000000 1.0
C      1  0.5599100000000  0.5659750000000  0.5317870000000 1.0
C      1  0.4751270000000  0.5816580000000  0.5316280000000 1.0
C      1  0.4155160000000  0.5193730000000  0.5360900000000 1.0
C      1  0.4414140000000  0.4363710000000  0.5348270000000 1.0
C      1  0.5222450000000  0.4208750000000  0.5355820000000 1.0
C      1  0.5168360000000  0.4319340000000  0.4756000000000 1.0
C      1  0.5678590000000  0.4831540000000  0.4755740000000 1.0
C      1  0.5578110000000  0.5500150000000  0.4894250000000 1.0
C      1  0.4827430000000  0.5668810000000  0.4773710000000 1.0
C      1  0.4297720000000  0.5204180000000  0.4856020000000 1.0
C      1  0.4466940000000  0.4411180000000  0.4730760000000 1.0
C      1  0.4698410000000  0.5898490000000  0.4647150000000 1.0
C      1  0.4012630000000  0.5226350000000  0.4676100000000 1.0
C      1  0.4386070000000  0.4403010000000  0.4431170000000 1.0
C      1  0.5295620000000  0.4069470000000  0.4674110000000 1.0
C      1  0.5948260000000  0.4821660000000  0.4638820000000 1.0
C      1  0.5602600000000  0.5712500000000  0.4673730000000 1.0
C      1  0.5137350000000  0.5939510000000  0.5475390000000 1.0
C      1  0.4259670000000  0.5617670000000  0.5508520000000 1.0
C      1  0.4082980000000  0.4656940000000  0.5510540000000 1.0
C      1  0.4796070000000  0.4136770000000  0.5509120000000 1.0
C      1  0.5656830000000  0.4438950000000  0.5404770000000 1.0
C      1  0.5783950000000  0.5296600000000  0.5337470000000 1.0
C      1  0.3972040000000  0.4687140000000  0.5238990000000 1.0
C      1  0.4830590000000  0.4012920000000  0.5268280000000 1.0
C      1  0.5777140000000  0.4271260000000  0.5202370000000 1.0
C      1  0.6033830000000  0.5288160000000  0.5271300000000 1.0
C      1  0.5261310000000  0.6029490000000  0.5237750000000 1.0
C      1  0.4254330000000  0.5728870000000  0.5245740000000 1.0
C      1  0.4474060000000  0.5549150000000  0.4480560000000 1.0
C      1  0.4240430000000  0.4886280000000  0.4592000000000 1.0
C      1  0.4862790000000  0.4236960000000  0.4447730000000 1.0
C      1  0.5541090000000  0.4466500000000  0.4539450000000 1.0
C      1  0.5747700000000  0.5178820000000  0.4457650000000 1.0
C      1  0.5199130000000  0.5737490000000  0.4394470000000 1.0
C      1  0.4787610000000  0.5221300000000  0.4927700000000 1.0
C      1  0.4678890000000  0.4950250000000  0.4916530000000 1.0
C      1  0.4865740000000  0.4714340000000  0.4918310000000 1.0
C      1  0.5171360000000  0.4753640000000  0.4924790000000 1.0
C      1  0.5293700000000  0.5028250000000  0.4920580000000 1.0
C      1  0.5092270000000  0.5250980000000  0.4948710000000 1.0
C      1  0.5482630000000  0.5893750000000  0.5124160000000 1.0
C      1  0.4485260000000  0.5854400000000  0.5135830000000 1.0
C      1  0.4015650000000  0.4922240000000  0.5062000000000 1.0
C      1  0.4575810000000  0.4120500000000  0.5167530000000 1.0
C      1  0.5596560000000  0.4175690000000  0.4986320000000 1.0
C      1  0.6022750000000  0.5012740000000  0.5162700000000 1.0
C      1  0.5576940000000  0.5046830000000  0.5734420000000 1.0
C      1  0.5248960000000  0.5515850000000  0.5759160000000 1.0
C      1  0.4677850000000  0.5467360000000  0.5760400000000 1.0
C      1  0.4437890000000  0.4949730000000  0.5756980000000 1.0
C      1  0.4757750000000  0.4476960000000  0.5773830000000 1.0
C      1  0.5333620000000  0.4533920000000  0.5753580000000 1.0
C      1  0.5104640000000  0.5672990000000  0.4791900000000 1.0
C      1  0.4338600000000  0.5474750000000  0.4903200000000 1.0
C      1  0.4332650000000  0.4566330000000  0.4927160000000 1.0
C      1  0.4983800000000  0.4240260000000  0.4923800000000 1.0
C      1  0.5674500000000  0.4652210000000  0.4966000000000 1.0
C      1  0.5766440000000  0.5307340000000  0.4946550000000 1.0
C      1  0.4521720000000  0.4896840000000  0.5193310000000 1.0
C      1  0.4817680000000  0.4564310000000  0.5193550000000 1.0
C      1  0.5279280000000  0.4651210000000  0.5187940000000 1.0
C      1  0.5457930000000  0.5055120000000  0.5179460000000 1.0
C      1  0.5127430000000  0.5443930000000  0.5200230000000 1.0
C      1  0.4689120000000  0.5345610000000  0.5189960000000 1.0
C      1  0.5390760000000  0.4225210000000  0.4444020000000 1.0
C      1  0.5816760000000  0.4899150000000  0.4382830000000 1.0
C      1  0.5481820000000  0.5633370000000  0.4415230000000 1.0
C      1  0.4689940000000  0.5740550000000  0.4392780000000 1.0
C      1  0.4166080000000  0.5132970000000  0.4445690000000 1.0
C      1  0.4618800000000  0.4302930000000  0.4296200000000 1.0
C      1  0.5174090000000  0.4757400000000  0.5863070000000 1.0
C      1  0.5303060000000  0.5020260000000  0.5854750000000 1.0
C      1  0.5133740000000  0.5258270000000  0.5864290000000 1.0
C      1  0.4842680000000  0.5237210000000  0.5867730000000 1.0
C      1  0.4714380000000  0.4974600000000  0.5868310000000 1.0
C      1  0.4880720000000  0.4733830000000  0.5870140000000 1.0
C      1  0.4556770000000  0.4142070000000  0.4883610000000 1.0
C      1  0.5346100000000  0.4011140000000  0.4968470000000 1.0
C      1  0.6040000000000  0.5003700000000  0.4861090000000 1.0
C      1  0.5470580000000  0.5912100000000  0.4834420000000 1.0
C      1  0.4486390000000  0.5922650000000  0.4855840000000 1.0
C      1  0.3844120000000  0.5104690000000  0.4880990000000 1.0
C      1  0.4494230000000  0.4572140000000  0.4227970000000 1.0
C      1  0.5137740000000  0.4316190000000  0.4326580000000 1.0
C      1  0.5606630000000  0.4701600000000  0.4331050000000 1.0
C      1  0.5579090000000  0.5375050000000  0.4311740000000 1.0
C      1  0.4938910000000  0.5632040000000  0.4287410000000 1.0
C      1  0.4369080000000  0.5315890000000  0.4326710000000 1.0
C      1  0.5133350000000  0.5139060000000  0.4076740000000 1.0
END
