TITL C-2441164-471-1 0.104653314095238 125000 -20221.7081507944 0 0 158 (C1) n - 1
REM
REM in /home/bkarasulu/work/CARBON/AIRSS/Generating-Clusters/ReaxFF-fromJPCA2015/Units_Real/with-SteepDescent/Higher-Symm
REM
REM
REM
REM
REM
REM ./C.cell (1df0a924f5614ab8850e4351716899ee)
REM
REM compiler GCC version 9.2.1 20190827 (Red Hat 9.2.1-1)
REM options -cpp -mtune=generic -march=x86-64 -g -O0 -fpre-include=/usr/include/finclude/math-vector-fortran.h
REM seed -2004675203 -872028914 612824298 853223368 -934634531 -811450288 -1494684031 1683962981 -1929992963 18780409 245239722 -1999363715 -1794876915 -364335134 161247493 -730489826 -1308384425 1226795454 1640151308 26933481 1137660235 -115961282 1355896942 565953952 1919943763 -1156324428 1534412784 901263037 -77882525 1077190423 349838807 2119452060 -1796700563
REM
CELL 1.54180   50.00000   50.00000   50.00000   90.00000   90.00000   90.00000
LATT -1
SFAC C  
C      1  0.4624900000000  0.4497020000000  0.5913740000000 1.0
C      1  0.4517150000000  0.5193770000000  0.5826470000000 1.0
C      1  0.5019240000000  0.5533030000000  0.5826660000000 1.0
C      1  0.5505370000000  0.5138870000000  0.5813070000000 1.0
C      1  0.5303760000000  0.4560110000000  0.5777040000000 1.0
C      1  0.5289860000000  0.5102750000000  0.5605670000000 1.0
C      1  0.5172610000000  0.4789520000000  0.5640710000000 1.0
C      1  0.4849150000000  0.4810820000000  0.5649830000000 1.0
C      1  0.4797180000000  0.5140340000000  0.5740380000000 1.0
C      1  0.5033200000000  0.5311580000000  0.5641450000000 1.0
C      1  0.5556600000000  0.5110140000000  0.4584600000000 1.0
C      1  0.5204110000000  0.4387590000000  0.4437500000000 1.0
C      1  0.4490390000000  0.4710220000000  0.4448660000000 1.0
C      1  0.4412830000000  0.5274490000000  0.4607640000000 1.0
C      1  0.5120340000000  0.5556590000000  0.4527500000000 1.0
C      1  0.3968710000000  0.4917780000000  0.4717800000000 1.0
C      1  0.4646530000000  0.5962320000000  0.4796270000000 1.0
C      1  0.5839290000000  0.5627360000000  0.4823370000000 1.0
C      1  0.5866590000000  0.4499020000000  0.4803340000000 1.0
C      1  0.4782890000000  0.3988130000000  0.4811190000000 1.0
C      1  0.5608460000000  0.4345470000000  0.4869670000000 1.0
C      1  0.4590130000000  0.4207440000000  0.4885350000000 1.0
C      1  0.4069860000000  0.5302450000000  0.4858110000000 1.0
C      1  0.4932860000000  0.5902250000000  0.4862630000000 1.0
C      1  0.5846820000000  0.5337680000000  0.4870490000000 1.0
C      1  0.4866660000000  0.5588910000000  0.5194010000000 1.0
C      1  0.5461000000000  0.5357260000000  0.5106350000000 1.0
C      1  0.5442120000000  0.4601430000000  0.5202520000000 1.0
C      1  0.4797990000000  0.4429370000000  0.5216630000000 1.0
C      1  0.4365450000000  0.5049070000000  0.5126490000000 1.0
C      1  0.5573720000000  0.4525200000000  0.5721710000000 1.0
C      1  0.4712970000000  0.4293200000000  0.5741120000000 1.0
C      1  0.4280960000000  0.5062460000000  0.5741950000000 1.0
C      1  0.4824320000000  0.5722870000000  0.5739460000000 1.0
C      1  0.5633860000000  0.5394700000000  0.5727250000000 1.0
C      1  0.5107560000000  0.4813780000000  0.5156570000000 1.0
C      1  0.4851690000000  0.4814500000000  0.5169990000000 1.0
C      1  0.4757300000000  0.5064800000000  0.5215690000000 1.0
C      1  0.4976810000000  0.5206140000000  0.5211220000000 1.0
C      1  0.5191990000000  0.5067750000000  0.5120910000000 1.0
C      1  0.5109210000000  0.5771340000000  0.5726460000000 1.0
C      1  0.5779960000000  0.5147290000000  0.5669850000000 1.0
C      1  0.5389280000000  0.4307920000000  0.5654910000000 1.0
C      1  0.4461760000000  0.4427610000000  0.5701100000000 1.0
C      1  0.4306640000000  0.5346880000000  0.5718330000000 1.0
C      1  0.4782470000000  0.4139600000000  0.5263860000000 1.0
C      1  0.4090270000000  0.5011960000000  0.5229890000000 1.0
C      1  0.4720490000000  0.5839410000000  0.5266140000000 1.0
C      1  0.5702630000000  0.5535900000000  0.5262490000000 1.0
C      1  0.5720470000000  0.4496740000000  0.5283710000000 1.0
C      1  0.5028380000000  0.5963950000000  0.5241910000000 1.0
C      1  0.5861130000000  0.5276700000000  0.5281520000000 1.0
C      1  0.5541760000000  0.4227450000000  0.5276190000000 1.0
C      1  0.4412820000000  0.4247040000000  0.5144310000000 1.0
C      1  0.4109250000000  0.5325370000000  0.5255650000000 1.0
C      1  0.5196090000000  0.4139700000000  0.4801110000000 1.0
C      1  0.4312100000000  0.4491930000000  0.4808020000000 1.0
C      1  0.4418380000000  0.5554480000000  0.4753780000000 1.0
C      1  0.5342410000000  0.5704020000000  0.4794730000000 1.0
C      1  0.5819030000000  0.4933990000000  0.4804520000000 1.0
C      1  0.3994310000000  0.5196800000000  0.4620530000000 1.0
C      1  0.4948860000000  0.5998720000000  0.4641440000000 1.0
C      1  0.5920410000000  0.5408550000000  0.4625580000000 1.0
C      1  0.5566240000000  0.4174210000000  0.4654320000000 1.0
C      1  0.4477190000000  0.4184360000000  0.4611960000000 1.0
C      1  0.4749510000000  0.5714290000000  0.4356330000000 1.0
C      1  0.5606190000000  0.5477770000000  0.4372350000000 1.0
C      1  0.5685790000000  0.4503520000000  0.4330370000000 1.0
C      1  0.4776870000000  0.4314450000000  0.4340760000000 1.0
C      1  0.4219500000000  0.4985160000000  0.4298110000000 1.0
C      1  0.4171820000000  0.4303610000000  0.4987520000000 1.0
C      1  0.4057010000000  0.5520200000000  0.5034460000000 1.0
C      1  0.5152610000000  0.6026990000000  0.4991460000000 1.0
C      1  0.6017250000000  0.5186670000000  0.5057420000000 1.0
C      1  0.5510630000000  0.4070470000000  0.5038570000000 1.0
C      1  0.5774090000000  0.5233270000000  0.4448590000000 1.0
C      1  0.5507320000000  0.4277450000000  0.4400410000000 1.0
C      1  0.4476680000000  0.4321230000000  0.4372840000000 1.0
C      1  0.4202520000000  0.5276730000000  0.4400310000000 1.0
C      1  0.5020670000000  0.5811200000000  0.4440000000000 1.0
C      1  0.4722900000000  0.4755760000000  0.5913130000000 1.0
C      1  0.4893700000000  0.5201190000000  0.6019050000000 1.0
C      1  0.5175620000000  0.5156520000000  0.6044610000000 1.0
C      1  0.5290520000000  0.4915780000000  0.6066650000000 1.0
C      1  0.5067960000000  0.4776880000000  0.6130540000000 1.0
C      1  0.5431420000000  0.4667380000000  0.4907000000000 1.0
C      1  0.4843290000000  0.4465700000000  0.4919250000000 1.0
C      1  0.4499710000000  0.4938580000000  0.4902790000000 1.0
C      1  0.4815600000000  0.5464210000000  0.4941910000000 1.0
C      1  0.5461500000000  0.5262150000000  0.4813610000000 1.0
C      1  0.4304530000000  0.4899490000000  0.5505620000000 1.0
C      1  0.4632550000000  0.5713910000000  0.5524240000000 1.0
C      1  0.5555310000000  0.5582950000000  0.5524930000000 1.0
C      1  0.5730800000000  0.4638380000000  0.5529870000000 1.0
C      1  0.4886840000000  0.4191780000000  0.5532430000000 1.0
C      1  0.4270920000000  0.4538460000000  0.4525240000000 1.0
C      1  0.4363420000000  0.5576260000000  0.4332580000000 1.0
C      1  0.5361940000000  0.5814050000000  0.4337180000000 1.0
C      1  0.5835660000000  0.4885890000000  0.4385380000000 1.0
C      1  0.5148100000000  0.4084630000000  0.4516460000000 1.0
C      1  0.5021130000000  0.4433420000000  0.4206980000000 1.0
C      1  0.4450810000000  0.4835700000000  0.4192710000000 1.0
C      1  0.4609790000000  0.5514470000000  0.4192230000000 1.0
C      1  0.5301340000000  0.5529710000000  0.4259740000000 1.0
C      1  0.5664270000000  0.4771410000000  0.4184000000000 1.0
C      1  0.4383520000000  0.5429950000000  0.5255130000000 1.0
C      1  0.5220250000000  0.5749360000000  0.5271970000000 1.0
C      1  0.5675520000000  0.5029770000000  0.5269010000000 1.0
C      1  0.5251630000000  0.4318070000000  0.5223310000000 1.0
C      1  0.4406440000000  0.4526500000000  0.5233170000000 1.0
C      1  0.5929200000000  0.4619440000000  0.5049360000000 1.0
C      1  0.4938430000000  0.3977550000000  0.5061580000000 1.0
C      1  0.3981840000000  0.4824170000000  0.5011370000000 1.0
C      1  0.4502310000000  0.5877880000000  0.5027960000000 1.0
C      1  0.5687030000000  0.5755260000000  0.5032010000000 1.0
C      1  0.4515630000000  0.5062590000000  0.5366510000000 1.0
C      1  0.4991010000000  0.5420630000000  0.5372520000000 1.0
C      1  0.5406320000000  0.5141240000000  0.5321170000000 1.0
C      1  0.5238590000000  0.4708930000000  0.5364330000000 1.0
C      1  0.4769090000000  0.4655000000000  0.5396900000000 1.0
C      1  0.4438140000000  0.4671090000000  0.4979280000000 1.0
C      1  0.4538520000000  0.5442980000000  0.5005710000000 1.0
C      1  0.5279690000000  0.5572610000000  0.5051850000000 1.0
C      1  0.5609780000000  0.4883270000000  0.4983600000000 1.0
C      1  0.5108340000000  0.4354710000000  0.4959210000000 1.0
C      1  0.3989220000000  0.4533490000000  0.5042600000000 1.0
C      1  0.4258530000000  0.5735110000000  0.4954350000000 1.0
C      1  0.5456140000000  0.5926030000000  0.4946370000000 1.0
C      1  0.6033590000000  0.4892340000000  0.4985790000000 1.0
C      1  0.5230610000000  0.3946280000000  0.5018820000000 1.0
C      1  0.4963850000000  0.5339340000000  0.4474380000000 1.0
C      1  0.5363790000000  0.5062780000000  0.4361570000000 1.0
C      1  0.5229470000000  0.4685050000000  0.4461210000000 1.0
C      1  0.4768400000000  0.4659590000000  0.4441270000000 1.0
C      1  0.4613670000000  0.5133020000000  0.4471730000000 1.0
C      1  0.4419920000000  0.5526260000000  0.5516540000000 1.0
C      1  0.5314160000000  0.5732820000000  0.5533880000000 1.0
C      1  0.5784280000000  0.4908370000000  0.5506090000000 1.0
C      1  0.5159580000000  0.4239890000000  0.5487410000000 1.0
C      1  0.4356380000000  0.4607420000000  0.5498930000000 1.0
C      1  0.4732380000000  0.4999900000000  0.4731380000000 1.0
C      1  0.4934560000000  0.5252190000000  0.4758850000000 1.0
C      1  0.5205460000000  0.5116610000000  0.4816950000000 1.0
C      1  0.5188300000000  0.4804280000000  0.4723060000000 1.0
C      1  0.4887920000000  0.4729680000000  0.4713160000000 1.0
C      1  0.4666320000000  0.5218210000000  0.4197360000000 1.0
C      1  0.5073920000000  0.5413980000000  0.4097610000000 1.0
C      1  0.5388500000000  0.4877500000000  0.4142480000000 1.0
C      1  0.5139280000000  0.4700980000000  0.4184320000000 1.0
C      1  0.4746340000000  0.4813750000000  0.4167250000000 1.0
C      1  0.5871390000000  0.4625040000000  0.4521370000000 1.0
C      1  0.4864880000000  0.4064870000000  0.4532780000000 1.0
C      1  0.4102210000000  0.4807320000000  0.4487110000000 1.0
C      1  0.4513380000000  0.5748040000000  0.4524800000000 1.0
C      1  0.5547220000000  0.5711600000000  0.4537440000000 1.0
C      1  0.4829270000000  0.4931480000000  0.6132310000000 1.0
C      1  0.4896580000000  0.5057860000000  0.4110890000000 1.0
C      1  0.5077610000000  0.5104880000000  0.4345740000000 1.0
END
