TITL C-2441156-4686-788 0.0791923927071291 125000 -18430.8588852676 0 0 134 (C1) n - 1
REM
REM in /home/bkarasulu/work/CARBON/AIRSS/Generating-Clusters/ReaxFF-fromJPCA2015/Units_Real/with-SteepDescent/Higher-Symm
REM
REM
REM
REM
REM
REM ./C.cell (1df0a924f5614ab8850e4351716899ee)
REM
REM compiler GCC version 9.2.1 20190827 (Red Hat 9.2.1-1)
REM options -cpp -mtune=generic -march=x86-64 -g -O0 -fpre-include=/usr/include/finclude/math-vector-fortran.h
REM seed -1796216212 2073201840 -710995170 -364984738 -1561265597 1226027327 -1484850695 1528994574 259932331 1768604161 -2079050473 1884219489 -546114797 -1822638693 281908627 2043550710 1827765474 -1568247580 1833471237 -564756964 -621310039 -387876507 236441002 1302403853 -1138052647 -581553117 -768684429 1230859330 698741421 2088431827 1507408268 708303705 389589771
REM
CELL 1.54180   50.00000   50.00000   50.00000   90.00000   90.00000   90.00000
LATT -1
SFAC C  
C      1  0.5717130000000  0.4254570000000  0.5104580000000 1.0
C      1  0.5701180000000  0.5453500000000  0.5559730000000 1.0
C      1  0.5698290000000  0.5294120000000  0.4315890000000 1.0
C      1  0.5280630000000  0.5667630000000  0.5542220000000 1.0
C      1  0.5292080000000  0.5150080000000  0.4147110000000 1.0
C      1  0.5281850000000  0.4189840000000  0.5295240000000 1.0
C      1  0.5553910000000  0.4289990000000  0.5362710000000 1.0
C      1  0.5553250000000  0.5675400000000  0.5420400000000 1.0
C      1  0.5571030000000  0.5046350000000  0.4208360000000 1.0
C      1  0.4441110000000  0.4506650000000  0.5212310000000 1.0
C      1  0.4473750000000  0.5432070000000  0.5301690000000 1.0
C      1  0.4430540000000  0.5066790000000  0.4461500000000 1.0
C      1  0.5223910000000  0.5758250000000  0.4776420000000 1.0
C      1  0.5215420000000  0.4452810000000  0.4453860000000 1.0
C      1  0.5204920000000  0.4818610000000  0.5704570000000 1.0
C      1  0.5823650000000  0.4480840000000  0.4671530000000 1.0
C      1  0.5830400000000  0.4953430000000  0.5632990000000 1.0
C      1  0.5841360000000  0.5545660000000  0.4719550000000 1.0
C      1  0.4069810000000  0.5389090000000  0.5068140000000 1.0
C      1  0.4124120000000  0.4842210000000  0.4703610000000 1.0
C      1  0.4072270000000  0.4783950000000  0.5327490000000 1.0
C      1  0.4684710000000  0.5834490000000  0.5200760000000 1.0
C      1  0.4679990000000  0.4746290000000  0.4186540000000 1.0
C      1  0.4673310000000  0.4437500000000  0.5618000000000 1.0
C      1  0.5049890000000  0.5564040000000  0.4367140000000 1.0
C      1  0.5039830000000  0.4165390000000  0.4816960000000 1.0
C      1  0.5036960000000  0.5269020000000  0.5801230000000 1.0
C      1  0.5163750000000  0.5289460000000  0.4374510000000 1.0
C      1  0.5171600000000  0.4292150000000  0.5046660000000 1.0
C      1  0.5166430000000  0.5399300000000  0.5562960000000 1.0
C      1  0.5907190000000  0.4875860000000  0.4771590000000 1.0
C      1  0.5953630000000  0.4825930000000  0.5261340000000 1.0
C      1  0.5882300000000  0.5264960000000  0.5023060000000 1.0
C      1  0.4319780000000  0.4290520000000  0.5062100000000 1.0
C      1  0.4287420000000  0.5446300000000  0.5525960000000 1.0
C      1  0.4299360000000  0.5306090000000  0.4374510000000 1.0
C      1  0.4810220000000  0.5776610000000  0.5449630000000 1.0
C      1  0.4828470000000  0.4993400000000  0.4105920000000 1.0
C      1  0.4814330000000  0.4251080000000  0.5451420000000 1.0
C      1  0.4828930000000  0.5461270000000  0.4845210000000 1.0
C      1  0.4844580000000  0.4644140000000  0.4689320000000 1.0
C      1  0.4783120000000  0.4975250000000  0.5486100000000 1.0
C      1  0.5408330000000  0.4966970000000  0.5758600000000 1.0
C      1  0.5412580000000  0.5761240000000  0.4592640000000 1.0
C      1  0.5422700000000  0.4330460000000  0.4574680000000 1.0
C      1  0.5590860000000  0.5687620000000  0.5140370000000 1.0
C      1  0.5612230000000  0.4796150000000  0.4340210000000 1.0
C      1  0.5599480000000  0.4526010000000  0.5510050000000 1.0
C      1  0.5117360000000  0.5249140000000  0.5298060000000 1.0
C      1  0.5045860000000  0.5131220000000  0.4607320000000 1.0
C      1  0.5119440000000  0.4590690000000  0.5049670000000 1.0
C      1  0.4046860000000  0.5053310000000  0.5323520000000 1.0
C      1  0.4073560000000  0.5231450000000  0.4817310000000 1.0
C      1  0.4106270000000  0.4693290000000  0.4949910000000 1.0
C      1  0.5345090000000  0.4089300000000  0.4732300000000 1.0
C      1  0.5347300000000  0.5221180000000  0.5897280000000 1.0
C      1  0.5325080000000  0.5698950000000  0.4317700000000 1.0
C      1  0.5577230000000  0.5332110000000  0.5779280000000 1.0
C      1  0.5507720000000  0.5494650000000  0.4250690000000 1.0
C      1  0.5544250000000  0.4142040000000  0.4916140000000 1.0
C      1  0.5852870000000  0.4472950000000  0.4960610000000 1.0
C      1  0.5894080000000  0.5225590000000  0.5528090000000 1.0
C      1  0.5851570000000  0.5293060000000  0.4573360000000 1.0
C      1  0.5059380000000  0.5449560000000  0.5043520000000 1.0
C      1  0.5067300000000  0.4825720000000  0.4587380000000 1.0
C      1  0.5129890000000  0.4722260000000  0.5290430000000 1.0
C      1  0.4872110000000  0.5102310000000  0.5256390000000 1.0
C      1  0.4809490000000  0.5186660000000  0.4758320000000 1.0
C      1  0.4865040000000  0.4706460000000  0.4972220000000 1.0
C      1  0.5281520000000  0.5720400000000  0.5042260000000 1.0
C      1  0.5293350000000  0.4708100000000  0.4342700000000 1.0
C      1  0.5268870000000  0.4600930000000  0.5548390000000 1.0
C      1  0.4315270000000  0.5057280000000  0.4746690000000 1.0
C      1  0.4352240000000  0.4738490000000  0.5084000000000 1.0
C      1  0.4445270000000  0.5155280000000  0.5242720000000 1.0
C      1  0.4223120000000  0.4670140000000  0.4491890000000 1.0
C      1  0.4217190000000  0.4694450000000  0.5564900000000 1.0
C      1  0.4221240000000  0.5624930000000  0.4990740000000 1.0
C      1  0.5818000000000  0.5553540000000  0.5013770000000 1.0
C      1  0.5841790000000  0.4733440000000  0.4515690000000 1.0
C      1  0.5843150000000  0.4687820000000  0.5502740000000 1.0
C      1  0.4126850000000  0.4411120000000  0.4879320000000 1.0
C      1  0.4063430000000  0.5321200000000  0.5360600000000 1.0
C      1  0.4119600000000  0.5397630000000  0.4586100000000 1.0
C      1  0.5088280000000  0.4183020000000  0.5514380000000 1.0
C      1  0.5087430000000  0.5862900000000  0.5441260000000 1.0
C      1  0.5116320000000  0.4953070000000  0.4022800000000 1.0
C      1  0.4793730000000  0.4173770000000  0.5216170000000 1.0
C      1  0.4708860000000  0.5619710000000  0.5662770000000 1.0
C      1  0.4750750000000  0.5247620000000  0.4170040000000 1.0
C      1  0.4767600000000  0.5506670000000  0.4224730000000 1.0
C      1  0.4789460000000  0.4088460000000  0.4968340000000 1.0
C      1  0.4766990000000  0.5371100000000  0.5736340000000 1.0
C      1  0.4455660000000  0.5674200000000  0.5141820000000 1.0
C      1  0.4438240000000  0.4803520000000  0.4342380000000 1.0
C      1  0.4433250000000  0.4517110000000  0.5496050000000 1.0
C      1  0.5554130000000  0.5540000000000  0.4699280000000 1.0
C      1  0.5543700000000  0.4551250000000  0.4713610000000 1.0
C      1  0.5564700000000  0.4980400000000  0.5512270000000 1.0
C      1  0.4978930000000  0.5674450000000  0.4676790000000 1.0
C      1  0.4962830000000  0.4386310000000  0.4585820000000 1.0
C      1  0.4961370000000  0.4947370000000  0.5732260000000 1.0
C      1  0.5241480000000  0.4795080000000  0.4821240000000 1.0
C      1  0.5275900000000  0.4966860000000  0.5233810000000 1.0
C      1  0.5199950000000  0.5237220000000  0.4885980000000 1.0
C      1  0.5120510000000  0.5942110000000  0.5166460000000 1.0
C      1  0.5131950000000  0.4676580000000  0.4092720000000 1.0
C      1  0.5110310000000  0.4396520000000  0.5708670000000 1.0
C      1  0.4863140000000  0.4497860000000  0.5820990000000 1.0
C      1  0.4868030000000  0.5982990000000  0.5032260000000 1.0
C      1  0.4871260000000  0.4539420000000  0.4126400000000 1.0
C      1  0.4486430000000  0.5448560000000  0.5732930000000 1.0
C      1  0.4505670000000  0.5517710000000  0.4358920000000 1.0
C      1  0.4527660000000  0.4170120000000  0.4897980000000 1.0
C      1  0.4526060000000  0.4391300000000  0.4693550000000 1.0
C      1  0.4508110000000  0.5013640000000  0.5485460000000 1.0
C      1  0.4520270000000  0.5595730000000  0.4637760000000 1.0
C      1  0.4338590000000  0.4916420000000  0.5719410000000 1.0
C      1  0.4251910000000  0.5628480000000  0.4708610000000 1.0
C      1  0.4249580000000  0.4417060000000  0.4617880000000 1.0
C      1  0.5473140000000  0.5319590000000  0.4907970000000 1.0
C      1  0.5514480000000  0.4836500000000  0.4774420000000 1.0
C      1  0.5553370000000  0.4908700000000  0.5235190000000 1.0
C      1  0.4804920000000  0.4765830000000  0.5937450000000 1.0
C      1  0.4821440000000  0.5939310000000  0.4745090000000 1.0
C      1  0.4823080000000  0.4305520000000  0.4304450000000 1.0
C      1  0.5817060000000  0.4755620000000  0.5027810000000 1.0
C      1  0.5954700000000  0.5121490000000  0.5261970000000 1.0
C      1  0.5793250000000  0.5113760000000  0.4783460000000 1.0
C      1  0.4587170000000  0.4319550000000  0.4429920000000 1.0
C      1  0.4551650000000  0.4849990000000  0.5883500000000 1.0
C      1  0.4597900000000  0.5822530000000  0.4691010000000 1.0
C      1  0.4480180000000  0.4989390000000  0.5008020000000 1.0
C      1  0.4785830000000  0.5000600000000  0.4989090000000 1.0
END
