TITL C-2441154-10-1264 0.060271517516469 125000 -13639.6398567516 0 0 105 (C1) n - 1
REM
REM in /home/bkarasulu/work/CARBON/AIRSS/Generating-Clusters/ReaxFF-fromJPCA2015/Units_Real/with-SteepDescent/Higher-Symm
REM
REM
REM
REM
REM
REM ./C.cell (1df0a924f5614ab8850e4351716899ee)
REM
REM compiler GCC version 9.2.1 20190827 (Red Hat 9.2.1-1)
REM options -cpp -mtune=generic -march=x86-64 -g -O0 -fpre-include=/usr/include/finclude/math-vector-fortran.h
REM seed 259205449 -754508386 487559617 -1410689950 -466494470 1453386598 -1582515346 -1006020138 -281035883 1279998855 371623334 -1056827938 -1010084994 -362442572 -205969697 -1282652245 -1900942151 -1507093582 1432939714 1961173430 -5003233 197696723 332273693 1689423672 593878022 759327660 995873927 1095024080 -1890385673 866196871 1660839141 -1056850984 -365743693
REM
CELL 1.54180   50.00000   50.00000   50.00000   90.00000   90.00000   90.00000
LATT -1
SFAC C  
C      1  0.4392470000000  0.4548630000000  0.4581780000000 1.0
C      1  0.5662990000000  0.4568660000000  0.5397490000000 1.0
C      1  0.4404680000000  0.4577960000000  0.5430970000000 1.0
C      1  0.5630110000000  0.4612700000000  0.4601390000000 1.0
C      1  0.5680210000000  0.4623650000000  0.5118670000000 1.0
C      1  0.4335280000000  0.4605750000000  0.4864200000000 1.0
C      1  0.5609360000000  0.4485050000000  0.4868520000000 1.0
C      1  0.4416330000000  0.4533870000000  0.5132130000000 1.0
C      1  0.5764440000000  0.5060640000000  0.4693250000000 1.0
C      1  0.4248610000000  0.5039160000000  0.5328650000000 1.0
C      1  0.5736130000000  0.5038480000000  0.5317650000000 1.0
C      1  0.4239250000000  0.5036120000000  0.4670060000000 1.0
C      1  0.4499370000000  0.5507920000000  0.5418090000000 1.0
C      1  0.5522400000000  0.5527500000000  0.4572410000000 1.0
C      1  0.4483460000000  0.5505020000000  0.4568090000000 1.0
C      1  0.5505590000000  0.5507110000000  0.5427420000000 1.0
C      1  0.4690870000000  0.4665710000000  0.5520940000000 1.0
C      1  0.5357690000000  0.4583060000000  0.4468840000000 1.0
C      1  0.4690630000000  0.4688030000000  0.4453420000000 1.0
C      1  0.5267610000000  0.4631820000000  0.5514960000000 1.0
C      1  0.4619310000000  0.4355470000000  0.5087990000000 1.0
C      1  0.5380160000000  0.4315550000000  0.4937810000000 1.0
C      1  0.4802680000000  0.4369230000000  0.4890730000000 1.0
C      1  0.5407410000000  0.4211140000000  0.5205240000000 1.0
C      1  0.4714330000000  0.5516390000000  0.4354850000000 1.0
C      1  0.5291710000000  0.5509660000000  0.5643520000000 1.0
C      1  0.4711490000000  0.5506670000000  0.5645300000000 1.0
C      1  0.5306870000000  0.5514840000000  0.4367650000000 1.0
C      1  0.5486090000000  0.4979220000000  0.5690050000000 1.0
C      1  0.4466150000000  0.5008960000000  0.4312190000000 1.0
C      1  0.5505150000000  0.4991670000000  0.4287630000000 1.0
C      1  0.4505020000000  0.4993550000000  0.5720380000000 1.0
C      1  0.4726030000000  0.5162930000000  0.4269630000000 1.0
C      1  0.5324270000000  0.5220340000000  0.5669420000000 1.0
C      1  0.4696500000000  0.5215050000000  0.5689990000000 1.0
C      1  0.5333510000000  0.5233040000000  0.4294760000000 1.0
C      1  0.5673260000000  0.4844350000000  0.5517620000000 1.0
C      1  0.4312570000000  0.4832440000000  0.4473730000000 1.0
C      1  0.5697230000000  0.4867890000000  0.4483160000000 1.0
C      1  0.4327140000000  0.4852640000000  0.5535510000000 1.0
C      1  0.4887700000000  0.5188660000000  0.4513310000000 1.0
C      1  0.5143350000000  0.5187300000000  0.5432140000000 1.0
C      1  0.4860450000000  0.5174340000000  0.5456930000000 1.0
C      1  0.5166160000000  0.5172470000000  0.4536860000000 1.0
C      1  0.5678580000000  0.5318560000000  0.5276010000000 1.0
C      1  0.4314140000000  0.5316460000000  0.4721950000000 1.0
C      1  0.5703650000000  0.5345250000000  0.4724300000000 1.0
C      1  0.4316160000000  0.5325670000000  0.5281500000000 1.0
C      1  0.4589400000000  0.4303850000000  0.4511920000000 1.0
C      1  0.5511230000000  0.4321120000000  0.5464960000000 1.0
C      1  0.4579170000000  0.4288140000000  0.5501560000000 1.0
C      1  0.5314260000000  0.4116260000000  0.4417580000000 1.0
C      1  0.5435510000000  0.5729940000000  0.4751060000000 1.0
C      1  0.4562840000000  0.5709320000000  0.5234420000000 1.0
C      1  0.5440420000000  0.5719610000000  0.5249930000000 1.0
C      1  0.4563560000000  0.5704230000000  0.4747950000000 1.0
C      1  0.5578200000000  0.4906100000000  0.5118290000000 1.0
C      1  0.4378630000000  0.4881830000000  0.4882200000000 1.0
C      1  0.5536930000000  0.4997540000000  0.4860840000000 1.0
C      1  0.4454120000000  0.4939430000000  0.5149110000000 1.0
C      1  0.5280610000000  0.4816820000000  0.4262980000000 1.0
C      1  0.4722940000000  0.4810990000000  0.5762810000000 1.0
C      1  0.5251000000000  0.4822170000000  0.5724270000000 1.0
C      1  0.4715670000000  0.4873920000000  0.4192590000000 1.0
C      1  0.4656550000000  0.4150900000000  0.5266540000000 1.0
C      1  0.5113410000000  0.4184370000000  0.4647660000000 1.0
C      1  0.4800400000000  0.4188220000000  0.4674760000000 1.0
C      1  0.5133200000000  0.4215680000000  0.5313620000000 1.0
C      1  0.5084730000000  0.4859780000000  0.4778930000000 1.0
C      1  0.4842440000000  0.4779580000000  0.5295280000000 1.0
C      1  0.5112400000000  0.4846150000000  0.5212750000000 1.0
C      1  0.4815450000000  0.4827970000000  0.4680900000000 1.0
C      1  0.5270990000000  0.5085220000000  0.4798150000000 1.0
C      1  0.4736310000000  0.5052380000000  0.5219110000000 1.0
C      1  0.5269250000000  0.5083500000000  0.5198810000000 1.0
C      1  0.4747990000000  0.5099910000000  0.4742550000000 1.0
C      1  0.4751960000000  0.4430100000000  0.4315270000000 1.0
C      1  0.5314960000000  0.4389630000000  0.5681690000000 1.0
C      1  0.4773560000000  0.4387280000000  0.5678160000000 1.0
C      1  0.5280730000000  0.4355800000000  0.4256960000000 1.0
C      1  0.4995540000000  0.4740710000000  0.5840720000000 1.0
C      1  0.5013920000000  0.4768930000000  0.4173840000000 1.0
C      1  0.5023210000000  0.5628860000000  0.5215400000000 1.0
C      1  0.5012690000000  0.5551340000000  0.4722620000000 1.0
C      1  0.4572170000000  0.5541530000000  0.4992890000000 1.0
C      1  0.5427370000000  0.5560040000000  0.4997550000000 1.0
C      1  0.5068390000000  0.4488420000000  0.5367260000000 1.0
C      1  0.5147350000000  0.4465840000000  0.4638970000000 1.0
C      1  0.5001880000000  0.5574550000000  0.5625780000000 1.0
C      1  0.5012750000000  0.5586670000000  0.4446220000000 1.0
C      1  0.4315760000000  0.5397180000000  0.5000300000000 1.0
C      1  0.5674770000000  0.5405320000000  0.5001820000000 1.0
C      1  0.4629340000000  0.5844100000000  0.4989390000000 1.0
C      1  0.5370800000000  0.5836800000000  0.5001830000000 1.0
C      1  0.5035570000000  0.4454680000000  0.5786110000000 1.0
C      1  0.5018940000000  0.4483820000000  0.4196300000000 1.0
C      1  0.4992270000000  0.5434520000000  0.4977340000000 1.0
C      1  0.4926300000000  0.4019130000000  0.5177260000000 1.0
C      1  0.4998630000000  0.3831190000000  0.5006030000000 1.0
C      1  0.5006550000000  0.6116460000000  0.5009620000000 1.0
C      1  0.4837160000000  0.5200870000000  0.4989070000000 1.0
C      1  0.5132040000000  0.4722060000000  0.4984660000000 1.0
C      1  0.5081830000000  0.4470690000000  0.4913860000000 1.0
C      1  0.4967990000000  0.5853060000000  0.5007660000000 1.0
C      1  0.5040080000000  0.6353190000000  0.5010680000000 1.0
END
