TITL C-2441154-10-1380 0.00583668310117122 125000 -8956.1304759735 0 0 64 (C1) n - 1
REM
REM in /home/bkarasulu/work/CARBON/AIRSS/Generating-Clusters/ReaxFF-fromJPCA2015/Units_Real/with-SteepDescent/Higher-Symm
REM
REM
REM
REM
REM
REM ./C.cell (1df0a924f5614ab8850e4351716899ee)
REM
REM compiler GCC version 9.2.1 20190827 (Red Hat 9.2.1-1)
REM options -cpp -mtune=generic -march=x86-64 -g -O0 -fpre-include=/usr/include/finclude/math-vector-fortran.h
REM seed -1586928347 -472322225 2128365260 -341150282 -2010225966 -1667539884 1635909843 1164053592 1911639197 -1721106965 -508036728 443381016 -448162890 99725504 -11026166 987783421 -1198770159 237412613 -1991536919 -674192129 1848205356 2024809298 -946291244 2016404580 -726788888 -506667711 -214487780 -1711123013 246026999 -1075526313 -1382112352 -814272280 -1140552670
REM
CELL 1.54180   50.00000   50.00000   50.00000   90.00000   90.00000   90.00000
LATT -1
SFAC C  
C      1  0.4895770000000  0.5234130000000  0.4348460000000 1.0
C      1  0.5577640000000  0.5237170000000  0.4692910000000 1.0
C      1  0.4781250000000  0.5217410000000  0.5422140000000 1.0
C      1  0.5134360000000  0.5527130000000  0.5373700000000 1.0
C      1  0.4770680000000  0.4752040000000  0.5250480000000 1.0
C      1  0.5001770000000  0.4692070000000  0.4792520000000 1.0
C      1  0.4429600000000  0.4625450000000  0.4933240000000 1.0
C      1  0.4742020000000  0.4404620000000  0.4622570000000 1.0
C      1  0.5406990000000  0.5253330000000  0.4458540000000 1.0
C      1  0.4331670000000  0.4846830000000  0.5098350000000 1.0
C      1  0.5600950000000  0.5422650000000  0.4928570000000 1.0
C      1  0.5188220000000  0.4878260000000  0.4307550000000 1.0
C      1  0.4796570000000  0.4861530000000  0.4671060000000 1.0
C      1  0.4287410000000  0.5128390000000  0.4979000000000 1.0
C      1  0.5229140000000  0.5801950000000  0.5350490000000 1.0
C      1  0.5436740000000  0.5000890000000  0.4300820000000 1.0
C      1  0.4630680000000  0.4400500000000  0.4894320000000 1.0
C      1  0.5543520000000  0.5051390000000  0.5177470000000 1.0
C      1  0.4435600000000  0.5329890000000  0.5134420000000 1.0
C      1  0.5668440000000  0.5288660000000  0.5193010000000 1.0
C      1  0.4810420000000  0.4270290000000  0.5084420000000 1.0
C      1  0.5125210000000  0.5321730000000  0.4488710000000 1.0
C      1  0.4874020000000  0.5006400000000  0.5181860000000 1.0
C      1  0.4942010000000  0.5893880000000  0.5256080000000 1.0
C      1  0.4475330000000  0.5188290000000  0.5374580000000 1.0
C      1  0.5264900000000  0.4592850000000  0.4749850000000 1.0
C      1  0.4951750000000  0.4773940000000  0.4359820000000 1.0
C      1  0.4678500000000  0.5525450000000  0.5032610000000 1.0
C      1  0.5732150000000  0.4892230000000  0.5272490000000 1.0
C      1  0.5033960000000  0.4438600000000  0.4653170000000 1.0
C      1  0.5219280000000  0.4720400000000  0.5693630000000 1.0
C      1  0.5507800000000  0.5205310000000  0.5418560000000 1.0
C      1  0.5237070000000  0.4467380000000  0.5570750000000 1.0
C      1  0.4490180000000  0.5222810000000  0.4494070000000 1.0
C      1  0.5082900000000  0.4295770000000  0.5157420000000 1.0
C      1  0.4746140000000  0.5782560000000  0.5451950000000 1.0
C      1  0.5305400000000  0.4921340000000  0.5091020000000 1.0
C      1  0.4580070000000  0.4590380000000  0.4442970000000 1.0
C      1  0.5306290000000  0.4414360000000  0.5281010000000 1.0
C      1  0.5618240000000  0.4838060000000  0.4461420000000 1.0
C      1  0.5526230000000  0.4699190000000  0.4676610000000 1.0
C      1  0.4947350000000  0.4432900000000  0.5611990000000 1.0
C      1  0.5086270000000  0.5072920000000  0.5002440000000 1.0
C      1  0.4881540000000  0.5748760000000  0.5007030000000 1.0
C      1  0.5123860000000  0.5645520000000  0.4880960000000 1.0
C      1  0.5628000000000  0.4653310000000  0.5261610000000 1.0
C      1  0.4497620000000  0.4744580000000  0.4676490000000 1.0
C      1  0.5384360000000  0.4641350000000  0.5142390000000 1.0
C      1  0.5009430000000  0.5159060000000  0.5614630000000 1.0
C      1  0.5008550000000  0.4897410000000  0.5749520000000 1.0
C      1  0.5246500000000  0.5292020000000  0.5518080000000 1.0
C      1  0.4701750000000  0.5137340000000  0.4699330000000 1.0
C      1  0.5389130000000  0.5605000000000  0.4927150000000 1.0
C      1  0.4808080000000  0.5355340000000  0.4835130000000 1.0
C      1  0.5661280000000  0.4960170000000  0.4706630000000 1.0
C      1  0.5091810000000  0.5333890000000  0.4805140000000 1.0
C      1  0.4660380000000  0.5098090000000  0.4271190000000 1.0
C      1  0.4393340000000  0.4901070000000  0.5378260000000 1.0
C      1  0.4606110000000  0.4723620000000  0.5486720000000 1.0
C      1  0.4806940000000  0.4672130000000  0.5699020000000 1.0
C      1  0.4681520000000  0.4800230000000  0.4259840000000 1.0
C      1  0.4820190000000  0.5503990000000  0.5336200000000 1.0
C      1  0.4303880000000  0.5175710000000  0.4696000000000 1.0
C      1  0.4865210000000  0.4430080000000  0.5311620000000 1.0
END
