TITL C-2441154-10-208 0.134204887119003 125000 -26048.0419295568 0 0 197 (C1) n - 1
REM
REM in /home/bkarasulu/work/CARBON/AIRSS/Generating-Clusters/ReaxFF-fromJPCA2015/Units_Real/with-SteepDescent/Higher-Symm
REM
REM
REM
REM
REM
REM ./C.cell (1df0a924f5614ab8850e4351716899ee)
REM
REM compiler GCC version 9.2.1 20190827 (Red Hat 9.2.1-1)
REM options -cpp -mtune=generic -march=x86-64 -g -O0 -fpre-include=/usr/include/finclude/math-vector-fortran.h
REM seed 209487589 -1970170859 -1231023758 1302369496 2143715606 1404835371 165042167 1864978988 -131612388 -2140829925 -462642305 1999264325 -1709892171 1378160627 1582888179 1068326216 -1083910796 1189339615 -250247489 1642764114 -2008996758 727775204 602053166 962325107 414995764 685498971 -1837245542 -1767929512 1028257700 749381410 -163539509 990442429 2037643620
REM
CELL 1.54180   50.00000   50.00000   50.00000   90.00000   90.00000   90.00000
LATT -1
SFAC C  
C      1  0.5229080000000  0.5131680000000  0.6177240000000 1.0
C      1  0.6169350000000  0.5115170000000  0.5143260000000 1.0
C      1  0.5508990000000  0.5120310000000  0.3949000000000 1.0
C      1  0.4136590000000  0.5128800000000  0.4184250000000 1.0
C      1  0.3954220000000  0.5135450000000  0.5579860000000 1.0
C      1  0.5730960000000  0.4540350000000  0.4298080000000 1.0
C      1  0.4588510000000  0.4577850000000  0.4042580000000 1.0
C      1  0.3928840000000  0.4595700000000  0.5098660000000 1.0
C      1  0.4799340000000  0.4547950000000  0.6019180000000 1.0
C      1  0.5898960000000  0.4615650000000  0.5561420000000 1.0
C      1  0.5647910000000  0.5292340000000  0.4107440000000 1.0
C      1  0.4366140000000  0.5268390000000  0.4118030000000 1.0
C      1  0.3959980000000  0.5288720000000  0.5344900000000 1.0
C      1  0.4998540000000  0.5243470000000  0.6068560000000 1.0
C      1  0.6055860000000  0.5277260000000  0.5337410000000 1.0
C      1  0.4926490000000  0.5655590000000  0.5858120000000 1.0
C      1  0.5807950000000  0.5703450000000  0.5411530000000 1.0
C      1  0.5609050000000  0.5682200000000  0.4342310000000 1.0
C      1  0.4569300000000  0.5690240000000  0.4189800000000 1.0
C      1  0.4112140000000  0.5676930000000  0.5135210000000 1.0
C      1  0.5512370000000  0.4854240000000  0.4550700000000 1.0
C      1  0.4743990000000  0.4910570000000  0.4431330000000 1.0
C      1  0.4345850000000  0.4894050000000  0.5053470000000 1.0
C      1  0.4877500000000  0.4878480000000  0.5553470000000 1.0
C      1  0.5576990000000  0.4893450000000  0.5371760000000 1.0
C      1  0.6023250000000  0.5082620000000  0.4898870000000 1.0
C      1  0.5249320000000  0.5121750000000  0.4029700000000 1.0
C      1  0.4069320000000  0.5128390000000  0.4464130000000 1.0
C      1  0.4223170000000  0.5100740000000  0.5717180000000 1.0
C      1  0.5475980000000  0.5149460000000  0.6022500000000 1.0
C      1  0.5408330000000  0.5644060000000  0.5743820000000 1.0
C      1  0.5858560000000  0.5555090000000  0.4927800000000 1.0
C      1  0.5207930000000  0.5535140000000  0.4148470000000 1.0
C      1  0.4270220000000  0.5570250000000  0.4568570000000 1.0
C      1  0.4341930000000  0.5597320000000  0.5557910000000 1.0
C      1  0.5221050000000  0.5183040000000  0.5551340000000 1.0
C      1  0.5731250000000  0.5078440000000  0.4921240000000 1.0
C      1  0.5151480000000  0.5109560000000  0.4297010000000 1.0
C      1  0.4331430000000  0.5108110000000  0.4632460000000 1.0
C      1  0.4429910000000  0.5101880000000  0.5505040000000 1.0
C      1  0.5816440000000  0.4794540000000  0.5757410000000 1.0
C      1  0.5935020000000  0.4617050000000  0.4497700000000 1.0
C      1  0.4853560000000  0.4682060000000  0.3951810000000 1.0
C      1  0.3904540000000  0.4775280000000  0.4880070000000 1.0
C      1  0.4516430000000  0.4621620000000  0.5943910000000 1.0
C      1  0.5532300000000  0.5139730000000  0.5532480000000 1.0
C      1  0.5663400000000  0.5101530000000  0.4643930000000 1.0
C      1  0.4869980000000  0.5153670000000  0.4338950000000 1.0
C      1  0.4253490000000  0.5126870000000  0.4923390000000 1.0
C      1  0.4653040000000  0.5110950000000  0.5687680000000 1.0
C      1  0.4480640000000  0.5443170000000  0.4334320000000 1.0
C      1  0.4206620000000  0.5444190000000  0.5295290000000 1.0
C      1  0.5030460000000  0.5377290000000  0.5800390000000 1.0
C      1  0.5829090000000  0.5448530000000  0.5238590000000 1.0
C      1  0.5462770000000  0.5451490000000  0.4271570000000 1.0
C      1  0.5456780000000  0.4062780000000  0.5245790000000 1.0
C      1  0.5372380000000  0.4024240000000  0.4700140000000 1.0
C      1  0.4844250000000  0.4042080000000  0.4521270000000 1.0
C      1  0.4434160000000  0.4118770000000  0.5039060000000 1.0
C      1  0.4887350000000  0.4052800000000  0.5455950000000 1.0
C      1  0.4802620000000  0.5341760000000  0.5603640000000 1.0
C      1  0.5558250000000  0.5364910000000  0.5345330000000 1.0
C      1  0.5468930000000  0.5336050000000  0.4597370000000 1.0
C      1  0.4771730000000  0.5401560000000  0.4453870000000 1.0
C      1  0.4379400000000  0.5360520000000  0.5057190000000 1.0
C      1  0.6107520000000  0.4999750000000  0.5376400000000 1.0
C      1  0.5716560000000  0.5012120000000  0.4093250000000 1.0
C      1  0.4333510000000  0.4990960000000  0.4058710000000 1.0
C      1  0.3874190000000  0.5023250000000  0.5337180000000 1.0
C      1  0.4982350000000  0.4987070000000  0.6165680000000 1.0
C      1  0.4852320000000  0.4214270000000  0.4766310000000 1.0
C      1  0.4707350000000  0.4227870000000  0.5036230000000 1.0
C      1  0.4965500000000  0.4242690000000  0.5258230000000 1.0
C      1  0.5238820000000  0.4238400000000  0.5104130000000 1.0
C      1  0.5168980000000  0.4185900000000  0.4813350000000 1.0
C      1  0.5136230000000  0.4938830000000  0.5654620000000 1.0
C      1  0.5567150000000  0.4947630000000  0.5095630000000 1.0
C      1  0.5204520000000  0.4931030000000  0.4525730000000 1.0
C      1  0.4533210000000  0.5011450000000  0.4534190000000 1.0
C      1  0.4472520000000  0.4917900000000  0.5296620000000 1.0
C      1  0.4468170000000  0.5844230000000  0.5408010000000 1.0
C      1  0.5256060000000  0.5879240000000  0.5639330000000 1.0
C      1  0.5660780000000  0.5847910000000  0.4970350000000 1.0
C      1  0.5165680000000  0.5867590000000  0.4370420000000 1.0
C      1  0.4434840000000  0.5856170000000  0.4623370000000 1.0
C      1  0.4613380000000  0.4107600000000  0.4335670000000 1.0
C      1  0.4286970000000  0.4221530000000  0.5270270000000 1.0
C      1  0.4860260000000  0.4110520000000  0.5724380000000 1.0
C      1  0.5706920000000  0.4206500000000  0.5248820000000 1.0
C      1  0.5552140000000  0.4107380000000  0.4503390000000 1.0
C      1  0.5221820000000  0.5601250000000  0.5069560000000 1.0
C      1  0.5103490000000  0.5599540000000  0.4802480000000 1.0
C      1  0.4820630000000  0.5507980000000  0.4801790000000 1.0
C      1  0.4777030000000  0.5547580000000  0.5107540000000 1.0
C      1  0.5014180000000  0.5605950000000  0.5279240000000 1.0
C      1  0.5891350000000  0.4678300000000  0.5067960000000 1.0
C      1  0.5306170000000  0.4699480000000  0.4164820000000 1.0
C      1  0.4300460000000  0.4653700000000  0.4447050000000 1.0
C      1  0.4203470000000  0.4661640000000  0.5475590000000 1.0
C      1  0.5219600000000  0.4723500000000  0.5837010000000 1.0
C      1  0.4399560000000  0.4163960000000  0.4512760000000 1.0
C      1  0.4404270000000  0.4236520000000  0.5552030000000 1.0
C      1  0.5292130000000  0.4265600000000  0.5720220000000 1.0
C      1  0.5775300000000  0.4260740000000  0.4950720000000 1.0
C      1  0.5213580000000  0.4290360000000  0.4202760000000 1.0
C      1  0.5596470000000  0.4784660000000  0.4244960000000 1.0
C      1  0.4397870000000  0.4744430000000  0.4182930000000 1.0
C      1  0.3984210000000  0.4768710000000  0.5320370000000 1.0
C      1  0.5004250000000  0.4742450000000  0.6043690000000 1.0
C      1  0.5972760000000  0.4759460000000  0.5327810000000 1.0
C      1  0.4737010000000  0.5940630000000  0.5450130000000 1.0
C      1  0.5354090000000  0.5961310000000  0.5373640000000 1.0
C      1  0.5466630000000  0.5940880000000  0.4781520000000 1.0
C      1  0.4919900000000  0.5953540000000  0.4484900000000 1.0
C      1  0.4491290000000  0.5936630000000  0.4897350000000 1.0
C      1  0.4544420000000  0.5310380000000  0.5930400000000 1.0
C      1  0.5739510000000  0.5309380000000  0.5746840000000 1.0
C      1  0.5921820000000  0.5262500000000  0.4538140000000 1.0
C      1  0.4845490000000  0.5261070000000  0.3922660000000 1.0
C      1  0.3957270000000  0.5270050000000  0.4828950000000 1.0
C      1  0.4870330000000  0.6054450000000  0.5220460000000 1.0
C      1  0.5161750000000  0.6058880000000  0.5183020000000 1.0
C      1  0.5222530000000  0.6049750000000  0.4897670000000 1.0
C      1  0.4968020000000  0.6046030000000  0.4757490000000 1.0
C      1  0.4755150000000  0.6042660000000  0.4953080000000 1.0
C      1  0.5404350000000  0.4098820000000  0.5518620000000 1.0
C      1  0.5639580000000  0.4068240000000  0.4773810000000 1.0
C      1  0.5033540000000  0.4153600000000  0.4352450000000 1.0
C      1  0.4277390000000  0.4161330000000  0.4760400000000 1.0
C      1  0.4627200000000  0.4050740000000  0.5568830000000 1.0
C      1  0.4006470000000  0.5393520000000  0.4573430000000 1.0
C      1  0.4306080000000  0.5385030000000  0.5803630000000 1.0
C      1  0.5554420000000  0.5412920000000  0.5938760000000 1.0
C      1  0.6045940000000  0.5366440000000  0.4776210000000 1.0
C      1  0.5120350000000  0.5359840000000  0.3933790000000 1.0
C      1  0.4071510000000  0.4357990000000  0.4668580000000 1.0
C      1  0.4352460000000  0.4415880000000  0.5780230000000 1.0
C      1  0.5560740000000  0.4377120000000  0.5776530000000 1.0
C      1  0.5986420000000  0.4458360000000  0.4734570000000 1.0
C      1  0.5053080000000  0.4424680000000  0.3985890000000 1.0
C      1  0.4632220000000  0.5874090000000  0.4412530000000 1.0
C      1  0.4349380000000  0.5850540000000  0.5144700000000 1.0
C      1  0.4962550000000  0.5809280000000  0.5612610000000 1.0
C      1  0.5599980000000  0.5849970000000  0.5253800000000 1.0
C      1  0.5428090000000  0.5857930000000  0.4486860000000 1.0
C      1  0.4657720000000  0.4386610000000  0.4245740000000 1.0
C      1  0.4155960000000  0.4415390000000  0.5097840000000 1.0
C      1  0.4901230000000  0.4386960000000  0.5799880000000 1.0
C      1  0.5705060000000  0.4396110000000  0.5495950000000 1.0
C      1  0.5513860000000  0.4360610000000  0.4362020000000 1.0
C      1  0.5520340000000  0.4576740000000  0.4661060000000 1.0
C      1  0.4830150000000  0.4600380000000  0.4403890000000 1.0
C      1  0.4366570000000  0.4613250000000  0.4953070000000 1.0
C      1  0.4786510000000  0.4588010000000  0.5580300000000 1.0
C      1  0.5474830000000  0.4616760000000  0.5407100000000 1.0
C      1  0.5824080000000  0.5543780000000  0.4477790000000 1.0
C      1  0.4768950000000  0.5541590000000  0.4044100000000 1.0
C      1  0.3968170000000  0.5529530000000  0.4942800000000 1.0
C      1  0.4650470000000  0.5585650000000  0.5926260000000 1.0
C      1  0.5809810000000  0.5568320000000  0.5659830000000 1.0
C      1  0.4379800000000  0.5507850000000  0.4827520000000 1.0
C      1  0.4626320000000  0.5551250000000  0.5626450000000 1.0
C      1  0.5422190000000  0.5545110000000  0.5494940000000 1.0
C      1  0.5651080000000  0.5534140000000  0.4723020000000 1.0
C      1  0.4952840000000  0.5576070000000  0.4280000000000 1.0
C      1  0.5320740000000  0.4773470000000  0.5003210000000 1.0
C      1  0.4996220000000  0.5000230000000  0.4788780000000 1.0
C      1  0.4858220000000  0.4725430000000  0.4823250000000 1.0
C      1  0.4782760000000  0.4713540000000  0.5071420000000 1.0
C      1  0.4956510000000  0.4851470000000  0.5252580000000 1.0
C      1  0.5639630000000  0.4877670000000  0.5947290000000 1.0
C      1  0.6041410000000  0.4861530000000  0.4638100000000 1.0
C      1  0.4868720000000  0.4967830000000  0.3929330000000 1.0
C      1  0.3921000000000  0.4885280000000  0.4638160000000 1.0
C      1  0.4312730000000  0.4820400000000  0.5895600000000 1.0
C      1  0.5413380000000  0.4520170000000  0.5131900000000 1.0
C      1  0.5237860000000  0.4482650000000  0.4661940000000 1.0
C      1  0.4731580000000  0.4520040000000  0.4656040000000 1.0
C      1  0.4590050000000  0.4531390000000  0.5128940000000 1.0
C      1  0.5003100000000  0.4515090000000  0.5395930000000 1.0
C      1  0.5274380000000  0.5292080000000  0.5047490000000 1.0
C      1  0.5226570000000  0.5340860000000  0.4754260000000 1.0
C      1  0.4805360000000  0.5211820000000  0.4867430000000 1.0
C      1  0.4806460000000  0.5265030000000  0.5156170000000 1.0
C      1  0.5083180000000  0.5294570000000  0.5292220000000 1.0
C      1  0.6100540000000  0.4689130000000  0.4866270000000 1.0
C      1  0.5260870000000  0.4590540000000  0.3916630000000 1.0
C      1  0.4014380000000  0.4611900000000  0.4521570000000 1.0
C      1  0.4140690000000  0.4628530000000  0.5759460000000 1.0
C      1  0.5502450000000  0.4615300000000  0.5935170000000 1.0
C      1  0.4500550000000  0.4638210000000  0.5396560000000 1.0
C      1  0.5229370000000  0.4539570000000  0.5580410000000 1.0
C      1  0.5651250000000  0.4523020000000  0.4952620000000 1.0
C      1  0.5129210000000  0.4648480000000  0.4403100000000 1.0
C      1  0.4455250000000  0.4585520000000  0.4671370000000 1.0
C      1  0.5135700000000  0.4985830000000  0.5050050000000 1.0
C      1  0.5108380000000  0.4618280000000  0.4875620000000 1.0
END
