TITL C-2441159-1093-709 0.16498438534705 125000 -24670.3178739291 0 0 192 (C1) n - 1
REM
REM in /home/bkarasulu/work/CARBON/AIRSS/Generating-Clusters/ReaxFF-fromJPCA2015/Units_Real/with-SteepDescent/Higher-Symm
REM
REM
REM
REM
REM
REM ./C.cell (1df0a924f5614ab8850e4351716899ee)
REM
REM compiler GCC version 9.2.1 20190827 (Red Hat 9.2.1-1)
REM options -cpp -mtune=generic -march=x86-64 -g -O0 -fpre-include=/usr/include/finclude/math-vector-fortran.h
REM seed -1826922263 -822267600 -387231045 503366806 734346047 -919337176 897966018 66276775 -963924453 -378917943 -1040513692 1319098938 2007647840 -1951521585 991459666 1445804219 -167914913 1999940534 -495793809 1261204615 -1850011178 198510218 -1784871512 528192730 -286827118 -1737482582 -1196700258 -1060215001 -1281597558 1278945041 1154790040 -1851373741 1202214760
REM
CELL 1.54180   50.00000   50.00000   50.00000   90.00000   90.00000   90.00000
LATT -1
SFAC C  
C      1  0.5588340000000  0.5692640000000  0.5646920000000 1.0
C      1  0.4152550000000  0.5660870000000  0.5153050000000 1.0
C      1  0.5278230000000  0.5627440000000  0.4201150000000 1.0
C      1  0.5477870000000  0.4888230000000  0.4574940000000 1.0
C      1  0.5135740000000  0.4883550000000  0.5632290000000 1.0
C      1  0.4466560000000  0.4722750000000  0.4746470000000 1.0
C      1  0.5150620000000  0.4713880000000  0.6096730000000 1.0
C      1  0.4003600000000  0.4701020000000  0.4546630000000 1.0
C      1  0.5877570000000  0.4695560000000  0.4326790000000 1.0
C      1  0.4659690000000  0.4991610000000  0.4407180000000 1.0
C      1  0.5708370000000  0.5033640000000  0.4974910000000 1.0
C      1  0.4685000000000  0.5055270000000  0.5629500000000 1.0
C      1  0.4274260000000  0.4804130000000  0.4537790000000 1.0
C      1  0.5784060000000  0.4746540000000  0.4605730000000 1.0
C      1  0.4995530000000  0.4780440000000  0.5863770000000 1.0
C      1  0.5623860000000  0.4258070000000  0.5197230000000 1.0
C      1  0.4429410000000  0.4260920000000  0.5438780000000 1.0
C      1  0.4902450000000  0.4260320000000  0.4298770000000 1.0
C      1  0.4334730000000  0.5094080000000  0.5191860000000 1.0
C      1  0.5120730000000  0.5101600000000  0.4333660000000 1.0
C      1  0.5517670000000  0.5090900000000  0.5460700000000 1.0
C      1  0.4397540000000  0.4468670000000  0.4267930000000 1.0
C      1  0.5946460000000  0.4492770000000  0.4775810000000 1.0
C      1  0.4665690000000  0.4473030000000  0.5874140000000 1.0
C      1  0.5391710000000  0.5825550000000  0.5481760000000 1.0
C      1  0.4375530000000  0.5836530000000  0.5108860000000 1.0
C      1  0.5217140000000  0.5828620000000  0.4401140000000 1.0
C      1  0.5728890000000  0.4333890000000  0.4620830000000 1.0
C      1  0.4938870000000  0.4344920000000  0.5867410000000 1.0
C      1  0.4273580000000  0.4359620000000  0.4523520000000 1.0
C      1  0.4890010000000  0.5061300000000  0.5203340000000 1.0
C      1  0.4900480000000  0.5073220000000  0.4815060000000 1.0
C      1  0.5239530000000  0.5082570000000  0.5011850000000 1.0
C      1  0.4754340000000  0.4736900000000  0.4528820000000 1.0
C      1  0.5551810000000  0.4799730000000  0.5043880000000 1.0
C      1  0.4594700000000  0.4842390000000  0.5464490000000 1.0
C      1  0.4766510000000  0.4785330000000  0.5235150000000 1.0
C      1  0.4972470000000  0.4822340000000  0.4702770000000 1.0
C      1  0.5295370000000  0.4847390000000  0.5140430000000 1.0
C      1  0.4934210000000  0.4546060000000  0.5331610000000 1.0
C      1  0.4833450000000  0.4417300000000  0.4801770000000 1.0
C      1  0.5277250000000  0.4463010000000  0.4930900000000 1.0
C      1  0.5915370000000  0.5206200000000  0.4603950000000 1.0
C      1  0.4850720000000  0.5217670000000  0.6033070000000 1.0
C      1  0.4200760000000  0.5209040000000  0.4386500000000 1.0
C      1  0.4751920000000  0.6108870000000  0.5014460000000 1.0
C      1  0.5120540000000  0.6103750000000  0.4735810000000 1.0
C      1  0.5170730000000  0.6193690000000  0.5293040000000 1.0
C      1  0.3882740000000  0.5316840000000  0.5123730000000 1.0
C      1  0.5434870000000  0.5301720000000  0.3981410000000 1.0
C      1  0.5649960000000  0.5323670000000  0.5891610000000 1.0
C      1  0.5185070000000  0.4898200000000  0.4527300000000 1.0
C      1  0.5345960000000  0.4847880000000  0.5417910000000 1.0
C      1  0.4514570000000  0.4878240000000  0.5007910000000 1.0
C      1  0.4474390000000  0.5518350000000  0.5513640000000 1.0
C      1  0.4807530000000  0.5555430000000  0.4273500000000 1.0
C      1  0.5718410000000  0.5541950000000  0.5198530000000 1.0
C      1  0.4662390000000  0.4393330000000  0.4190550000000 1.0
C      1  0.5821460000000  0.4425570000000  0.5062880000000 1.0
C      1  0.4438630000000  0.4387920000000  0.5706860000000 1.0
C      1  0.4061310000000  0.5312580000000  0.5554070000000 1.0
C      1  0.4938580000000  0.5312920000000  0.3905370000000 1.0
C      1  0.5938290000000  0.5325170000000  0.5515760000000 1.0
C      1  0.4409240000000  0.4060990000000  0.4930890000000 1.0
C      1  0.5359690000000  0.4036120000000  0.4554340000000 1.0
C      1  0.5224170000000  0.4048560000000  0.5536580000000 1.0
C      1  0.5554290000000  0.4549820000000  0.4926530000000 1.0
C      1  0.4846310000000  0.4315340000000  0.5471170000000 1.0
C      1  0.4652000000000  0.4272230000000  0.4617400000000 1.0
C      1  0.5936750000000  0.4932320000000  0.5594690000000 1.0
C      1  0.4105130000000  0.4776900000000  0.5581100000000 1.0
C      1  0.5093460000000  0.4933240000000  0.3893290000000 1.0
C      1  0.4568980000000  0.4722370000000  0.5984280000000 1.0
C      1  0.4356230000000  0.4723120000000  0.4112870000000 1.0
C      1  0.6091890000000  0.4737100000000  0.4868450000000 1.0
C      1  0.4827600000000  0.5040000000000  0.3859440000000 1.0
C      1  0.6100330000000  0.4988420000000  0.5358650000000 1.0
C      1  0.4119050000000  0.4982490000000  0.5782370000000 1.0
C      1  0.5006500000000  0.4704210000000  0.4016760000000 1.0
C      1  0.5829770000000  0.4701680000000  0.5468870000000 1.0
C      1  0.4315240000000  0.4850310000000  0.5395750000000 1.0
C      1  0.5144000000000  0.5824910000000  0.5616920000000 1.0
C      1  0.4391210000000  0.5872940000000  0.4821990000000 1.0
C      1  0.5459490000000  0.5872710000000  0.4562310000000 1.0
C      1  0.4629270000000  0.5739340000000  0.5610830000000 1.0
C      1  0.4660350000000  0.5782880000000  0.4384040000000 1.0
C      1  0.5697910000000  0.5761540000000  0.5016050000000 1.0
C      1  0.4674990000000  0.4446910000000  0.5020960000000 1.0
C      1  0.5118590000000  0.4420720000000  0.4699200000000 1.0
C      1  0.5178540000000  0.4469020000000  0.5212150000000 1.0
C      1  0.4355170000000  0.5426070000000  0.4291470000000 1.0
C      1  0.5936530000000  0.5416470000000  0.4791470000000 1.0
C      1  0.4665750000000  0.5412780000000  0.5945110000000 1.0
C      1  0.5168460000000  0.3952270000000  0.4758380000000 1.0
C      1  0.5125310000000  0.3984260000000  0.5267580000000 1.0
C      1  0.4700200000000  0.3972760000000  0.4963780000000 1.0
C      1  0.4045450000000  0.4925100000000  0.4894700000000 1.0
C      1  0.5525540000000  0.4919890000000  0.4278990000000 1.0
C      1  0.5419680000000  0.4899980000000  0.5846490000000 1.0
C      1  0.5448390000000  0.5818620000000  0.4847520000000 1.0
C      1  0.4879250000000  0.5828270000000  0.5464740000000 1.0
C      1  0.4640020000000  0.5825170000000  0.4680190000000 1.0
C      1  0.4528820000000  0.5310380000000  0.4841880000000 1.0
C      1  0.5381850000000  0.5362390000000  0.4652990000000 1.0
C      1  0.5029090000000  0.5404110000000  0.5549340000000 1.0
C      1  0.5915570000000  0.4957480000000  0.4768500000000 1.0
C      1  0.4765300000000  0.4943770000000  0.5917510000000 1.0
C      1  0.4351110000000  0.4964180000000  0.4334270000000 1.0
C      1  0.4506850000000  0.4473790000000  0.5242610000000 1.0
C      1  0.5007830000000  0.4511210000000  0.4431320000000 1.0
C      1  0.5441500000000  0.4460120000000  0.5330540000000 1.0
C      1  0.4659980000000  0.5533460000000  0.4728300000000 1.0
C      1  0.5346530000000  0.5558570000000  0.4855060000000 1.0
C      1  0.4928850000000  0.5574360000000  0.5366400000000 1.0
C      1  0.5282300000000  0.4977590000000  0.6101830000000 1.0
C      1  0.3902240000000  0.4962550000000  0.4521210000000 1.0
C      1  0.5998410000000  0.4930340000000  0.4216200000000 1.0
C      1  0.5000060000000  0.5987390000000  0.4503940000000 1.0
C      1  0.5381270000000  0.6013520000000  0.5234120000000 1.0
C      1  0.4580230000000  0.6009380000000  0.5212050000000 1.0
C      1  0.4739200000000  0.4614950000000  0.4016550000000 1.0
C      1  0.5949650000000  0.4606020000000  0.5240350000000 1.0
C      1  0.4221210000000  0.4573720000000  0.5757660000000 1.0
C      1  0.4262160000000  0.4619470000000  0.5245580000000 1.0
C      1  0.5168890000000  0.4595290000000  0.4204050000000 1.0
C      1  0.5600670000000  0.4555840000000  0.5552650000000 1.0
C      1  0.4045510000000  0.5081340000000  0.5130410000000 1.0
C      1  0.5302120000000  0.5043200000000  0.4090950000000 1.0
C      1  0.5655670000000  0.5054830000000  0.5720790000000 1.0
C      1  0.4881450000000  0.6014040000000  0.5232750000000 1.0
C      1  0.4873630000000  0.5965910000000  0.4804020000000 1.0
C      1  0.5256400000000  0.5978770000000  0.4959470000000 1.0
C      1  0.4648980000000  0.5109860000000  0.4677920000000 1.0
C      1  0.5475580000000  0.5119360000000  0.4807860000000 1.0
C      1  0.4951050000000  0.5120560000000  0.5494540000000 1.0
C      1  0.5203860000000  0.4438370000000  0.5813280000000 1.0
C      1  0.4263770000000  0.4491390000000  0.4787830000000 1.0
C      1  0.5490620000000  0.4441260000000  0.4496620000000 1.0
C      1  0.4208790000000  0.5231550000000  0.5740330000000 1.0
C      1  0.4758260000000  0.5182410000000  0.4094190000000 1.0
C      1  0.5926870000000  0.5187160000000  0.5261530000000 1.0
C      1  0.5188130000000  0.5457440000000  0.3982060000000 1.0
C      1  0.5809500000000  0.5501720000000  0.5693000000000 1.0
C      1  0.3998680000000  0.5482310000000  0.5338510000000 1.0
C      1  0.4922520000000  0.5541440000000  0.4803730000000 1.0
C      1  0.5199010000000  0.5511990000000  0.5080960000000 1.0
C      1  0.4904330000000  0.5525450000000  0.5094260000000 1.0
C      1  0.4405840000000  0.4133200000000  0.4643690000000 1.0
C      1  0.5595840000000  0.4092570000000  0.4715970000000 1.0
C      1  0.4979910000000  0.4145350000000  0.5659970000000 1.0
C      1  0.5686040000000  0.5719710000000  0.4516450000000 1.0
C      1  0.5053500000000  0.5601670000000  0.5776400000000 1.0
C      1  0.4225290000000  0.5735790000000  0.4646500000000 1.0
C      1  0.5518140000000  0.5513350000000  0.4367370000000 1.0
C      1  0.5431690000000  0.5549810000000  0.5831450000000 1.0
C      1  0.4087540000000  0.5605010000000  0.4875470000000 1.0
C      1  0.5055050000000  0.5323700000000  0.4672020000000 1.0
C      1  0.5277330000000  0.5288580000000  0.5203230000000 1.0
C      1  0.4685440000000  0.5285320000000  0.5112990000000 1.0
C      1  0.5279880000000  0.3964690000000  0.5027020000000 1.0
C      1  0.4835420000000  0.3975980000000  0.5213040000000 1.0
C      1  0.4880970000000  0.3953900000000  0.4736040000000 1.0
C      1  0.4224020000000  0.4218520000000  0.5084750000000 1.0
C      1  0.5308100000000  0.4248040000000  0.4351400000000 1.0
C      1  0.5376070000000  0.4240090000000  0.5707530000000 1.0
C      1  0.4056390000000  0.4447270000000  0.5133130000000 1.0
C      1  0.5384570000000  0.4426110000000  0.4112750000000 1.0
C      1  0.5597110000000  0.4405430000000  0.5794080000000 1.0
C      1  0.4287880000000  0.4784850000000  0.5945970000000 1.0
C      1  0.4559030000000  0.4815730000000  0.3941650000000 1.0
C      1  0.6147040000000  0.4780640000000  0.5148910000000 1.0
C      1  0.4792540000000  0.4064080000000  0.4479810000000 1.0
C      1  0.5536980000000  0.4069040000000  0.4999970000000 1.0
C      1  0.4662430000000  0.4098470000000  0.5412880000000 1.0
C      1  0.5409740000000  0.4601810000000  0.5949220000000 1.0
C      1  0.3999000000000  0.4635970000000  0.4868670000000 1.0
C      1  0.5585040000000  0.4629120000000  0.4226910000000 1.0
C      1  0.4766880000000  0.5662740000000  0.5849250000000 1.0
C      1  0.4383630000000  0.5682970000000  0.4409910000000 1.0
C      1  0.5820600000000  0.5680630000000  0.4769440000000 1.0
C      1  0.5928310000000  0.5394820000000  0.5077850000000 1.0
C      1  0.4495710000000  0.5312620000000  0.5714390000000 1.0
C      1  0.4602500000000  0.5400390000000  0.4147590000000 1.0
C      1  0.5136070000000  0.5227850000000  0.6069670000000 1.0
C      1  0.4028390000000  0.5196350000000  0.4633090000000 1.0
C      1  0.5796780000000  0.5151440000000  0.4331270000000 1.0
C      1  0.5528210000000  0.5341850000000  0.5322630000000 1.0
C      1  0.4464680000000  0.5339400000000  0.5293470000000 1.0
C      1  0.4980480000000  0.5342160000000  0.4390600000000 1.0
C      1  0.5655680000000  0.5352690000000  0.4160880000000 1.0
C      1  0.5392240000000  0.5368530000000  0.6032040000000 1.0
C      1  0.3924420000000  0.5380080000000  0.4850260000000 1.0
END
