TITL C-2441158-471-1328 0.0180676056861139 125000 -13664.4055019644 0 0 100 (C1) n - 1
REM
REM in /home/bkarasulu/work/CARBON/AIRSS/Generating-Clusters/ReaxFF-fromJPCA2015/Units_Real/with-SteepDescent/Higher-Symm
REM
REM
REM
REM
REM
REM ./C.cell (1df0a924f5614ab8850e4351716899ee)
REM
REM compiler GCC version 9.2.1 20190827 (Red Hat 9.2.1-1)
REM options -cpp -mtune=generic -march=x86-64 -g -O0 -fpre-include=/usr/include/finclude/math-vector-fortran.h
REM seed -726565481 1249398698 -1924022363 1830391209 1344832542 -645453875 647795552 -60924001 710984903 64262540 -753085078 -1591819805 1323385766 -1201635811 -1070918003 -2047297861 -754342598 447965012 -1251982740 483290656 1836413979 -669170594 -2107011310 1104144311 1426355289 -1883455720 -1203706811 1224331067 -622996577 1932585140 -397281432 -517202190 131030995
REM
CELL 1.54180   50.00000   50.00000   50.00000   90.00000   90.00000   90.00000
LATT -1
SFAC C  
C      1  0.4947870000000  0.4978940000000  0.5360030000000 1.0
C      1  0.5177660000000  0.5110180000000  0.5366630000000 1.0
C      1  0.5375690000000  0.5071290000000  0.5174480000000 1.0
C      1  0.5379380000000  0.5037010000000  0.4883810000000 1.0
C      1  0.5195260000000  0.5060220000000  0.4655830000000 1.0
C      1  0.4911210000000  0.5079960000000  0.4615320000000 1.0
C      1  0.4686220000000  0.4985160000000  0.4764990000000 1.0
C      1  0.4610210000000  0.5119100000000  0.4975760000000 1.0
C      1  0.4687740000000  0.5085420000000  0.5242130000000 1.0
C      1  0.5354610000000  0.4898640000000  0.5737470000000 1.0
C      1  0.5764820000000  0.4915060000000  0.5331780000000 1.0
C      1  0.5781010000000  0.4918250000000  0.4745620000000 1.0
C      1  0.5460320000000  0.4890430000000  0.4323410000000 1.0
C      1  0.4909410000000  0.4900830000000  0.4189760000000 1.0
C      1  0.4403480000000  0.4894270000000  0.4452870000000 1.0
C      1  0.4190590000000  0.4889510000000  0.4947970000000 1.0
C      1  0.4344200000000  0.4890520000000  0.5486930000000 1.0
C      1  0.4807600000000  0.4887950000000  0.5788270000000 1.0
C      1  0.4849430000000  0.4612100000000  0.5764700000000 1.0
C      1  0.5363410000000  0.4621060000000  0.5692760000000 1.0
C      1  0.5739480000000  0.4641830000000  0.5303240000000 1.0
C      1  0.5751670000000  0.4642760000000  0.4749690000000 1.0
C      1  0.5421530000000  0.4618360000000  0.4334220000000 1.0
C      1  0.4881880000000  0.4630630000000  0.4227740000000 1.0
C      1  0.4409870000000  0.4616280000000  0.4508190000000 1.0
C      1  0.4214340000000  0.4610620000000  0.4968210000000 1.0
C      1  0.4383570000000  0.4618630000000  0.5488050000000 1.0
C      1  0.5803570000000  0.5176900000000  0.4819050000000 1.0
C      1  0.5485240000000  0.5170290000000  0.4347780000000 1.0
C      1  0.4956210000000  0.5179510000000  0.4178320000000 1.0
C      1  0.4448750000000  0.5168420000000  0.4403030000000 1.0
C      1  0.4194130000000  0.5166250000000  0.4911300000000 1.0
C      1  0.4316090000000  0.5170450000000  0.5454030000000 1.0
C      1  0.4764030000000  0.5167350000000  0.5775690000000 1.0
C      1  0.5327940000000  0.5178150000000  0.5757330000000 1.0
C      1  0.5746580000000  0.5186160000000  0.5385410000000 1.0
C      1  0.4337410000000  0.5542230000000  0.5047980000000 1.0
C      1  0.4520630000000  0.5539620000000  0.5453980000000 1.0
C      1  0.4921090000000  0.5545110000000  0.5677350000000 1.0
C      1  0.5365000000000  0.5547350000000  0.5546710000000 1.0
C      1  0.5626640000000  0.5537950000000  0.5182550000000 1.0
C      1  0.5583690000000  0.5537200000000  0.4736240000000 1.0
C      1  0.5292440000000  0.5539830000000  0.4416740000000 1.0
C      1  0.4844010000000  0.5545580000000  0.4361990000000 1.0
C      1  0.4451390000000  0.5547450000000  0.4601910000000 1.0
C      1  0.4965970000000  0.5769660000000  0.5424580000000 1.0
C      1  0.5268770000000  0.5748690000000  0.5349570000000 1.0
C      1  0.5429610000000  0.5754090000000  0.5103670000000 1.0
C      1  0.5395890000000  0.5756710000000  0.4803970000000 1.0
C      1  0.5179220000000  0.5756810000000  0.4594210000000 1.0
C      1  0.4888710000000  0.5762610000000  0.4558060000000 1.0
C      1  0.4640690000000  0.5767020000000  0.4744330000000 1.0
C      1  0.4545480000000  0.5754110000000  0.5059580000000 1.0
C      1  0.4672450000000  0.5762240000000  0.5315580000000 1.0
C      1  0.5072740000000  0.4280700000000  0.5434540000000 1.0
C      1  0.5313290000000  0.4248750000000  0.5269030000000 1.0
C      1  0.5306040000000  0.4236470000000  0.4991100000000 1.0
C      1  0.5302530000000  0.4261110000000  0.4716130000000 1.0
C      1  0.5056590000000  0.4263170000000  0.4574120000000 1.0
C      1  0.4774350000000  0.4244800000000  0.4630790000000 1.0
C      1  0.4582710000000  0.4283560000000  0.4851960000000 1.0
C      1  0.4607390000000  0.4256960000000  0.5144450000000 1.0
C      1  0.4795730000000  0.4246540000000  0.5361240000000 1.0
C      1  0.5687990000000  0.4561020000000  0.5024540000000 1.0
C      1  0.5514740000000  0.4496340000000  0.4593380000000 1.0
C      1  0.5128340000000  0.4506740000000  0.4357170000000 1.0
C      1  0.4686680000000  0.4493480000000  0.4433620000000 1.0
C      1  0.4364360000000  0.4471530000000  0.4760730000000 1.0
C      1  0.4380620000000  0.4492480000000  0.5207280000000 1.0
C      1  0.4653470000000  0.4483440000000  0.5560330000000 1.0
C      1  0.5101590000000  0.4476350000000  0.5673210000000 1.0
C      1  0.5482280000000  0.4511270000000  0.5432080000000 1.0
C      1  0.5024970000000  0.5310400000000  0.5789660000000 1.0
C      1  0.5525450000000  0.5312290000000  0.5592840000000 1.0
C      1  0.5783770000000  0.5303240000000  0.5119830000000 1.0
C      1  0.5666930000000  0.5293880000000  0.4593910000000 1.0
C      1  0.5244220000000  0.5307450000000  0.4253470000000 1.0
C      1  0.4709150000000  0.5306460000000  0.4268620000000 1.0
C      1  0.4315770000000  0.5301200000000  0.4629050000000 1.0
C      1  0.4234630000000  0.5298810000000  0.5166500000000 1.0
C      1  0.4517620000000  0.5301950000000  0.5620210000000 1.0
C      1  0.4926860000000  0.5373280000000  0.4615900000000 1.0
C      1  0.4716860000000  0.5487460000000  0.4768770000000 1.0
C      1  0.4598360000000  0.5385490000000  0.4976900000000 1.0
C      1  0.4692150000000  0.5377590000000  0.5255900000000 1.0
C      1  0.4930380000000  0.5477810000000  0.5372040000000 1.0
C      1  0.5176230000000  0.5375020000000  0.5362020000000 1.0
C      1  0.5370350000000  0.5373820000000  0.5147780000000 1.0
C      1  0.5369250000000  0.5375420000000  0.4871070000000 1.0
C      1  0.5204080000000  0.5369620000000  0.4657490000000 1.0
C      1  0.4612240000000  0.4660360000000  0.5107190000000 1.0
C      1  0.4761790000000  0.4635550000000  0.5330570000000 1.0
C      1  0.5010100000000  0.4707650000000  0.5378930000000 1.0
C      1  0.5277030000000  0.4654080000000  0.5274950000000 1.0
C      1  0.5406090000000  0.4627960000000  0.5026860000000 1.0
C      1  0.5331340000000  0.4664870000000  0.4762300000000 1.0
C      1  0.5102590000000  0.4678760000000  0.4603810000000 1.0
C      1  0.4840230000000  0.4631730000000  0.4650880000000 1.0
C      1  0.4688970000000  0.4730770000000  0.4843170000000 1.0
C      1  0.4989250000000  0.4916440000000  0.5038190000000 1.0
END
