TITL C-2441161-5029-689 0.00226293394827438 125000 -1919.18877752774 0 0 15 (C1) n - 1
REM
REM in /home/bkarasulu/work/CARBON/AIRSS/Generating-Clusters/ReaxFF-fromJPCA2015/Units_Real/with-SteepDescent/Higher-Symm
REM
REM
REM
REM
REM
REM ./C.cell (1df0a924f5614ab8850e4351716899ee)
REM
REM compiler GCC version 9.2.1 20190827 (Red Hat 9.2.1-1)
REM options -cpp -mtune=generic -march=x86-64 -g -O0 -fpre-include=/usr/include/finclude/math-vector-fortran.h
REM seed 1993022352 376529135 -131215790 199097452 836843563 -1368926974 -515992338 -326412618 1559069023 223161624 1324913218 -1095469859 -139422972 805253560 -785032368 533110212 619100096 1414247082 -621564655 -1400450821 1169563073 -37850097 -2084002579 -295419459 -1120553420 555426827 921870997 2125520681 -1520220582 1525439592 2063924948 -1514983973 -1275323656
REM
CELL 1.54180   50.00000   50.00000   50.00000   90.00000   90.00000   90.00000
LATT -1
SFAC C  
C      1  0.4744950000000  0.4628430000000  0.5007490000000 1.0
C      1  0.4698250000000  0.5312430000000  0.4762730000000 1.0
C      1  0.5445960000000  0.5111830000000  0.4809220000000 1.0
C      1  0.4884020000000  0.4434540000000  0.5033120000000 1.0
C      1  0.4756580000000  0.5336790000000  0.5032140000000 1.0
C      1  0.5460000000000  0.5106320000000  0.5101450000000 1.0
C      1  0.5227150000000  0.4655240000000  0.4986100000000 1.0
C      1  0.5271810000000  0.5347800000000  0.4819100000000 1.0
C      1  0.4522200000000  0.5103320000000  0.4783470000000 1.0
C      1  0.5122670000000  0.4442790000000  0.5024010000000 1.0
C      1  0.5286690000000  0.5343270000000  0.5117350000000 1.0
C      1  0.4556280000000  0.5090990000000  0.5071410000000 1.0
C      1  0.4562540000000  0.4816700000000  0.4985270000000 1.0
C      1  0.5425140000000  0.4846290000000  0.4951560000000 1.0
C      1  0.5035770000000  0.5423260000000  0.4982200000000 1.0
END
