TITL C-2441163-1170-691 0.0770680562991696 125000 -16622.7837897132 0 0 127 (C1) n - 1
REM
REM in /home/bkarasulu/work/CARBON/AIRSS/Generating-Clusters/ReaxFF-fromJPCA2015/Units_Real/with-SteepDescent/Higher-Symm
REM
REM
REM
REM
REM
REM ./C.cell (1df0a924f5614ab8850e4351716899ee)
REM
REM compiler GCC version 9.2.1 20190827 (Red Hat 9.2.1-1)
REM options -cpp -mtune=generic -march=x86-64 -g -O0 -fpre-include=/usr/include/finclude/math-vector-fortran.h
REM seed -1201210184 -738244201 -523080035 -116294415 -1551469506 -379695569 469801604 1003238967 -531830757 -146286228 -995122604 645720110 -2055266999 -1969603968 1492962168 -1427234147 1676336480 300852754 -1040609827 -434977588 -1762342501 -1538738136 649235814 1392039597 -490264367 -1943943278 -878642575 -906470636 1524742448 -779619058 -1365897769 741146155 -785069692
REM
CELL 1.54180   50.00000   50.00000   50.00000   90.00000   90.00000   90.00000
LATT -1
SFAC C  
C      1  0.4106910000000  0.4716610000000  0.4874700000000 1.0
C      1  0.5926620000000  0.5265070000000  0.4793270000000 1.0
C      1  0.4445540000000  0.5417310000000  0.5739500000000 1.0
C      1  0.5535120000000  0.4538970000000  0.5692600000000 1.0
C      1  0.5549690000000  0.5233480000000  0.5131540000000 1.0
C      1  0.4613750000000  0.4809520000000  0.5226000000000 1.0
C      1  0.4835090000000  0.5628780000000  0.5712330000000 1.0
C      1  0.5100460000000  0.4371930000000  0.5731970000000 1.0
C      1  0.5125100000000  0.4884550000000  0.4471590000000 1.0
C      1  0.4886410000000  0.5210710000000  0.4530580000000 1.0
C      1  0.5321500000000  0.4527660000000  0.5864190000000 1.0
C      1  0.4665100000000  0.5466330000000  0.5896800000000 1.0
C      1  0.5398270000000  0.4254710000000  0.4591410000000 1.0
C      1  0.4611510000000  0.5782370000000  0.4600600000000 1.0
C      1  0.5443930000000  0.5894700000000  0.5054920000000 1.0
C      1  0.4541260000000  0.4090170000000  0.5067450000000 1.0
C      1  0.5085930000000  0.4673720000000  0.5399920000000 1.0
C      1  0.4993140000000  0.5248080000000  0.5394270000000 1.0
C      1  0.4697080000000  0.4679360000000  0.5605180000000 1.0
C      1  0.5214080000000  0.5308720000000  0.5567840000000 1.0
C      1  0.4902410000000  0.5919270000000  0.5023440000000 1.0
C      1  0.5074150000000  0.4073010000000  0.5032820000000 1.0
C      1  0.4913950000000  0.4588110000000  0.5794690000000 1.0
C      1  0.5073080000000  0.5466640000000  0.5774050000000 1.0
C      1  0.5570750000000  0.5533350000000  0.4786880000000 1.0
C      1  0.4512700000000  0.4355480000000  0.4618170000000 1.0
C      1  0.4267010000000  0.5584650000000  0.4592280000000 1.0
C      1  0.5674540000000  0.4408900000000  0.4596770000000 1.0
C      1  0.5044570000000  0.4544530000000  0.4708860000000 1.0
C      1  0.4919660000000  0.5468290000000  0.4673440000000 1.0
C      1  0.5243440000000  0.4961620000000  0.4723080000000 1.0
C      1  0.4796860000000  0.5036990000000  0.4737990000000 1.0
C      1  0.5349370000000  0.5415280000000  0.4205250000000 1.0
C      1  0.4692910000000  0.4569740000000  0.4245950000000 1.0
C      1  0.4956360000000  0.4301580000000  0.4570150000000 1.0
C      1  0.5023710000000  0.5716420000000  0.4561250000000 1.0
C      1  0.5358940000000  0.4797530000000  0.4920440000000 1.0
C      1  0.4683600000000  0.5197280000000  0.4932230000000 1.0
C      1  0.4260620000000  0.4927710000000  0.4437180000000 1.0
C      1  0.5779490000000  0.5126580000000  0.4576320000000 1.0
C      1  0.5109250000000  0.5523520000000  0.5027750000000 1.0
C      1  0.4904950000000  0.4474390000000  0.5090420000000 1.0
C      1  0.4419840000000  0.4227980000000  0.5294260000000 1.0
C      1  0.5560380000000  0.5705780000000  0.5236260000000 1.0
C      1  0.5882640000000  0.4879180000000  0.5146530000000 1.0
C      1  0.4176610000000  0.5169990000000  0.5113550000000 1.0
C      1  0.4803210000000  0.4732520000000  0.4741680000000 1.0
C      1  0.5139190000000  0.5124110000000  0.4934110000000 1.0
C      1  0.4167800000000  0.5057150000000  0.5469190000000 1.0
C      1  0.5812550000000  0.5077320000000  0.5412840000000 1.0
C      1  0.5024630000000  0.4471630000000  0.4193090000000 1.0
C      1  0.4920590000000  0.5624930000000  0.4181530000000 1.0
C      1  0.5332690000000  0.5053970000000  0.5667340000000 1.0
C      1  0.4633780000000  0.4958060000000  0.5669110000000 1.0
C      1  0.4558560000000  0.4628850000000  0.4629910000000 1.0
C      1  0.5303930000000  0.5388980000000  0.4490030000000 1.0
C      1  0.4254870000000  0.4476260000000  0.5328640000000 1.0
C      1  0.5749310000000  0.5354570000000  0.5327080000000 1.0
C      1  0.4798280000000  0.4043450000000  0.4942520000000 1.0
C      1  0.5179830000000  0.5961220000000  0.4939960000000 1.0
C      1  0.5214280000000  0.4549190000000  0.4954250000000 1.0
C      1  0.4839840000000  0.5444050000000  0.4948690000000 1.0
C      1  0.4113210000000  0.5400290000000  0.4731940000000 1.0
C      1  0.5838850000000  0.4590430000000  0.4750270000000 1.0
C      1  0.5461600000000  0.5648130000000  0.5494160000000 1.0
C      1  0.4554500000000  0.4270140000000  0.5537190000000 1.0
C      1  0.5542270000000  0.4921170000000  0.4195350000000 1.0
C      1  0.4574800000000  0.5042820000000  0.4194380000000 1.0
C      1  0.4050280000000  0.5011860000000  0.4892660000000 1.0
C      1  0.6007770000000  0.5001880000000  0.4902960000000 1.0
C      1  0.4514650000000  0.5229670000000  0.5355880000000 1.0
C      1  0.5530610000000  0.4788040000000  0.5345310000000 1.0
C      1  0.4993110000000  0.4883280000000  0.6070430000000 1.0
C      1  0.4947680000000  0.5110560000000  0.6160120000000 1.0
C      1  0.5541630000000  0.5297930000000  0.4630750000000 1.0
C      1  0.4305380000000  0.4740090000000  0.4638370000000 1.0
C      1  0.5532030000000  0.5198390000000  0.4210660000000 1.0
C      1  0.4505280000000  0.4784010000000  0.4269710000000 1.0
C      1  0.5853000000000  0.4594970000000  0.5043160000000 1.0
C      1  0.4234300000000  0.5439370000000  0.5008910000000 1.0
C      1  0.5047130000000  0.4140840000000  0.5330670000000 1.0
C      1  0.4949800000000  0.5831670000000  0.5314760000000 1.0
C      1  0.5012510000000  0.5067240000000  0.5173320000000 1.0
C      1  0.4895140000000  0.4835370000000  0.5277820000000 1.0
C      1  0.5156650000000  0.4279450000000  0.4369210000000 1.0
C      1  0.4815710000000  0.5808650000000  0.4380330000000 1.0
C      1  0.5198200000000  0.5745680000000  0.5424690000000 1.0
C      1  0.4816670000000  0.4181860000000  0.5495710000000 1.0
C      1  0.5688680000000  0.4572710000000  0.5462200000000 1.0
C      1  0.4299640000000  0.5384070000000  0.5496510000000 1.0
C      1  0.5688070000000  0.4416180000000  0.5195570000000 1.0
C      1  0.4468610000000  0.5626130000000  0.5318270000000 1.0
C      1  0.4696170000000  0.4328050000000  0.4398820000000 1.0
C      1  0.5233640000000  0.5651200000000  0.4366910000000 1.0
C      1  0.4637110000000  0.5283150000000  0.4369390000000 1.0
C      1  0.5364850000000  0.4718210000000  0.4387080000000 1.0
C      1  0.5290750000000  0.4854210000000  0.5460340000000 1.0
C      1  0.4738300000000  0.5188720000000  0.5520610000000 1.0
C      1  0.5448010000000  0.4524700000000  0.4572380000000 1.0
C      1  0.4516890000000  0.5513860000000  0.4525240000000 1.0
C      1  0.4180730000000  0.4596690000000  0.5101210000000 1.0
C      1  0.5783360000000  0.5461470000000  0.4959990000000 1.0
C      1  0.4458700000000  0.5645220000000  0.5042570000000 1.0
C      1  0.5435400000000  0.4332610000000  0.5075620000000 1.0
C      1  0.4344190000000  0.4888780000000  0.5637960000000 1.0
C      1  0.5628790000000  0.5107680000000  0.5637990000000 1.0
C      1  0.4834610000000  0.5101410000000  0.4064260000000 1.0
C      1  0.5292290000000  0.4909830000000  0.4038540000000 1.0
C      1  0.4658300000000  0.5821350000000  0.4890670000000 1.0
C      1  0.5319450000000  0.4147800000000  0.4892840000000 1.0
C      1  0.5560180000000  0.4930110000000  0.5097360000000 1.0
C      1  0.4491830000000  0.5069080000000  0.5134040000000 1.0
C      1  0.4718610000000  0.5706500000000  0.5450230000000 1.0
C      1  0.5165040000000  0.4389290000000  0.5443520000000 1.0
C      1  0.5617670000000  0.5397700000000  0.5596920000000 1.0
C      1  0.4408940000000  0.4592750000000  0.5591150000000 1.0
C      1  0.5903020000000  0.4867210000000  0.4664740000000 1.0
C      1  0.4123620000000  0.5107350000000  0.4628500000000 1.0
C      1  0.5255050000000  0.4625230000000  0.4106200000000 1.0
C      1  0.4783030000000  0.5389450000000  0.4101210000000 1.0
C      1  0.5298130000000  0.5693710000000  0.4861370000000 1.0
C      1  0.4610060000000  0.4224560000000  0.4844170000000 1.0
C      1  0.5132230000000  0.4783200000000  0.5843880000000 1.0
C      1  0.4913420000000  0.5266900000000  0.5926460000000 1.0
C      1  0.4679440000000  0.4626720000000  0.5015960000000 1.0
C      1  0.5296390000000  0.5317790000000  0.5042920000000 1.0
C      1  0.5074820000000  0.5021470000000  0.4215210000000 1.0
END
