TITL C-2441169-1362-194 0.0422538247667395 125000 -17136.3871924256 0 0 124 (C1) n - 1
REM
REM in /home/bkarasulu/work/CARBON/AIRSS/Generating-Clusters/ReaxFF-fromJPCA2015/Units_Real/with-SteepDescent/Higher-Symm
REM
REM
REM
REM
REM
REM ./C.cell (1df0a924f5614ab8850e4351716899ee)
REM
REM compiler GCC version 9.2.1 20190827 (Red Hat 9.2.1-1)
REM options -cpp -mtune=generic -march=x86-64 -g -O0 -fpre-include=/usr/include/finclude/math-vector-fortran.h
REM seed -1202218114 -303054941 -554658733 -1070715589 728380210 1822922662 1696446919 -738547333 -1101779381 460624579 -365060192 321523227 -1863932918 -225170067 -85173708 -495578774 -1505174181 142196361 943937809 -720407520 -1409060434 466023332 -1368860996 861326811 1600378978 936757312 573266676 -539084904 980448066 -2097080342 -1712321532 880343432 451140558
REM
CELL 1.54180   50.00000   50.00000   50.00000   90.00000   90.00000   90.00000
LATT -1
SFAC C  
C      1  0.5302170000000  0.5369680000000  0.4599330000000 1.0
C      1  0.5787310000000  0.4646630000000  0.4733250000000 1.0
C      1  0.5769540000000  0.5181410000000  0.4543710000000 1.0
C      1  0.5346650000000  0.4739290000000  0.5789190000000 1.0
C      1  0.4593410000000  0.5365810000000  0.5574300000000 1.0
C      1  0.4793770000000  0.4175760000000  0.4979650000000 1.0
C      1  0.4948290000000  0.5445910000000  0.5746490000000 1.0
C      1  0.5149670000000  0.4532030000000  0.4184670000000 1.0
C      1  0.5048200000000  0.4916310000000  0.5163560000000 1.0
C      1  0.4698910000000  0.4920680000000  0.5414650000000 1.0
C      1  0.4561740000000  0.5688760000000  0.4902660000000 1.0
C      1  0.4523510000000  0.5115700000000  0.4741880000000 1.0
C      1  0.4521240000000  0.4218900000000  0.5062820000000 1.0
C      1  0.5015590000000  0.5457230000000  0.5002110000000 1.0
C      1  0.4426010000000  0.5751330000000  0.5325640000000 1.0
C      1  0.4172850000000  0.5141500000000  0.5414650000000 1.0
C      1  0.4189810000000  0.4876530000000  0.5459380000000 1.0
C      1  0.4762420000000  0.4686500000000  0.4701290000000 1.0
C      1  0.4486110000000  0.5227040000000  0.5793100000000 1.0
C      1  0.4316970000000  0.5039020000000  0.5658550000000 1.0
C      1  0.5754950000000  0.5280990000000  0.5593500000000 1.0
C      1  0.5393970000000  0.4977810000000  0.4875290000000 1.0
C      1  0.5264480000000  0.4775600000000  0.5510090000000 1.0
C      1  0.5574980000000  0.4459930000000  0.4717790000000 1.0
C      1  0.4122760000000  0.4824580000000  0.4830280000000 1.0
C      1  0.4677640000000  0.5315950000000  0.5160540000000 1.0
C      1  0.4480220000000  0.5403160000000  0.4324380000000 1.0
C      1  0.4349560000000  0.4381930000000  0.4901490000000 1.0
C      1  0.4128010000000  0.4770450000000  0.4532020000000 1.0
C      1  0.5969560000000  0.4611460000000  0.4999690000000 1.0
C      1  0.4245900000000  0.4642120000000  0.5304450000000 1.0
C      1  0.5535700000000  0.4362350000000  0.5615300000000 1.0
C      1  0.5393630000000  0.4565350000000  0.4534240000000 1.0
C      1  0.4804440000000  0.4993780000000  0.4356310000000 1.0
C      1  0.5325680000000  0.5656430000000  0.4656390000000 1.0
C      1  0.5110450000000  0.4944030000000  0.4045500000000 1.0
C      1  0.5189510000000  0.4086540000000  0.4904490000000 1.0
C      1  0.4946550000000  0.5493930000000  0.4263220000000 1.0
C      1  0.4226730000000  0.4517010000000  0.4528600000000 1.0
C      1  0.4669990000000  0.4806000000000  0.5684690000000 1.0
C      1  0.5494890000000  0.5179400000000  0.4458680000000 1.0
C      1  0.5774450000000  0.5449670000000  0.4661710000000 1.0
C      1  0.5145180000000  0.4095790000000  0.4626980000000 1.0
C      1  0.5199460000000  0.5187480000000  0.4102230000000 1.0
C      1  0.4874590000000  0.4453360000000  0.4573980000000 1.0
C      1  0.4398510000000  0.4463090000000  0.5477740000000 1.0
C      1  0.4669080000000  0.5453710000000  0.5815130000000 1.0
C      1  0.5609590000000  0.5110840000000  0.5240840000000 1.0
C      1  0.5042540000000  0.4960430000000  0.4535970000000 1.0
C      1  0.4601110000000  0.4346070000000  0.5304240000000 1.0
C      1  0.4747540000000  0.5294240000000  0.4296690000000 1.0
C      1  0.5565730000000  0.5500820000000  0.5455690000000 1.0
C      1  0.5024900000000  0.4613170000000  0.5474690000000 1.0
C      1  0.5271000000000  0.5111230000000  0.5582310000000 1.0
C      1  0.5679010000000  0.5597520000000  0.5188170000000 1.0
C      1  0.5442470000000  0.4389870000000  0.5211920000000 1.0
C      1  0.5372790000000  0.5183940000000  0.5880240000000 1.0
C      1  0.4270610000000  0.5239840000000  0.4663480000000 1.0
C      1  0.4610120000000  0.4891300000000  0.4575550000000 1.0
C      1  0.5478800000000  0.4668690000000  0.5298870000000 1.0
C      1  0.4860710000000  0.5882640000000  0.4585120000000 1.0
C      1  0.4906500000000  0.5118630000000  0.5332900000000 1.0
C      1  0.5168140000000  0.5253110000000  0.4848920000000 1.0
C      1  0.4274870000000  0.5194660000000  0.4374350000000 1.0
C      1  0.4906040000000  0.5885070000000  0.5173490000000 1.0
C      1  0.4611100000000  0.4509510000000  0.5676500000000 1.0
C      1  0.4613490000000  0.4857410000000  0.5149010000000 1.0
C      1  0.4222800000000  0.5197890000000  0.5138860000000 1.0
C      1  0.4114360000000  0.5111750000000  0.4886640000000 1.0
C      1  0.5086750000000  0.4715680000000  0.5921180000000 1.0
C      1  0.4878830000000  0.4562350000000  0.4072280000000 1.0
C      1  0.5151260000000  0.4536540000000  0.4871960000000 1.0
C      1  0.4516700000000  0.4758180000000  0.4168370000000 1.0
C      1  0.5603000000000  0.5657990000000  0.4519470000000 1.0
C      1  0.5629480000000  0.4815620000000  0.5782120000000 1.0
C      1  0.5312150000000  0.4773890000000  0.4157020000000 1.0
C      1  0.4927520000000  0.5097310000000  0.4755110000000 1.0
C      1  0.4825950000000  0.4296510000000  0.5648370000000 1.0
C      1  0.5234460000000  0.4760380000000  0.4684940000000 1.0
C      1  0.5138630000000  0.5963760000000  0.5007350000000 1.0
C      1  0.5655140000000  0.5107920000000  0.5800040000000 1.0
C      1  0.5512750000000  0.4888480000000  0.4375670000000 1.0
C      1  0.4297840000000  0.4906500000000  0.4310290000000 1.0
C      1  0.5028150000000  0.4181500000000  0.5434050000000 1.0
C      1  0.5177520000000  0.5087550000000  0.6053460000000 1.0
C      1  0.5665060000000  0.4622940000000  0.5559670000000 1.0
C      1  0.5037040000000  0.4471750000000  0.5729750000000 1.0
C      1  0.4512520000000  0.5467790000000  0.5332960000000 1.0
C      1  0.5398400000000  0.5266970000000  0.5365830000000 1.0
C      1  0.4784340000000  0.4844960000000  0.4051340000000 1.0
C      1  0.4391090000000  0.4311800000000  0.4610060000000 1.0
C      1  0.5726480000000  0.5440360000000  0.4945480000000 1.0
C      1  0.4617190000000  0.5877290000000  0.5124610000000 1.0
C      1  0.5318680000000  0.4859060000000  0.5120620000000 1.0
C      1  0.4620930000000  0.4480990000000  0.4195040000000 1.0
C      1  0.4810690000000  0.5750360000000  0.4324450000000 1.0
C      1  0.5339980000000  0.5779080000000  0.5127490000000 1.0
C      1  0.5360830000000  0.5716080000000  0.5581490000000 1.0
C      1  0.4833560000000  0.4535850000000  0.5264920000000 1.0
C      1  0.5324050000000  0.4241010000000  0.5427840000000 1.0
C      1  0.4223500000000  0.4619650000000  0.5015490000000 1.0
C      1  0.5318520000000  0.5910460000000  0.5378990000000 1.0
C      1  0.5468830000000  0.5584690000000  0.4278550000000 1.0
C      1  0.5001370000000  0.4075970000000  0.5158030000000 1.0
C      1  0.5894440000000  0.5405040000000  0.5174890000000 1.0
C      1  0.5660520000000  0.5022230000000  0.4981350000000 1.0
C      1  0.5057950000000  0.5628670000000  0.5236070000000 1.0
C      1  0.4888710000000  0.4917620000000  0.5841450000000 1.0
C      1  0.5763140000000  0.4868380000000  0.4540060000000 1.0
C      1  0.5879530000000  0.4865340000000  0.5084430000000 1.0
C      1  0.4744120000000  0.5462550000000  0.4926710000000 1.0
C      1  0.4985800000000  0.5164560000000  0.5654100000000 1.0
C      1  0.5086920000000  0.5625620000000  0.5569960000000 1.0
C      1  0.4529750000000  0.5690610000000  0.4396410000000 1.0
C      1  0.4498720000000  0.5105090000000  0.5044130000000 1.0
C      1  0.5393310000000  0.4349620000000  0.4933470000000 1.0
C      1  0.5875810000000  0.5172760000000  0.5351880000000 1.0
C      1  0.4642930000000  0.4329430000000  0.4446960000000 1.0
C      1  0.5113300000000  0.5857840000000  0.4729720000000 1.0
C      1  0.4840940000000  0.4858130000000  0.4953950000000 1.0
C      1  0.5170390000000  0.4396500000000  0.4452140000000 1.0
C      1  0.4911330000000  0.4452060000000  0.5000260000000 1.0
C      1  0.4567850000000  0.5834500000000  0.4651710000000 1.0
C      1  0.5236120000000  0.5459750000000  0.4155940000000 1.0
END
