TITL C-2441166-8118-117 0.0106656561465417 125000 -8304.41025836243 0 0 59 (C1) n - 1
REM
REM in /home/bkarasulu/work/CARBON/AIRSS/Generating-Clusters/ReaxFF-fromJPCA2015/Units_Real/with-SteepDescent/Higher-Symm
REM
REM
REM
REM
REM
REM ./C.cell (1df0a924f5614ab8850e4351716899ee)
REM
REM compiler GCC version 9.2.1 20190827 (Red Hat 9.2.1-1)
REM options -cpp -mtune=generic -march=x86-64 -g -O0 -fpre-include=/usr/include/finclude/math-vector-fortran.h
REM seed -919662076 1725365508 -923628097 -516466560 -1433693371 -1287075144 -1814214980 -146830627 -1625619382 1360962060 -1602802874 -76571713 -825047911 -2014190090 322525371 452294890 -1362252998 -1646065703 -1152113883 1614740660 -345616197 -948181800 895178953 -912648732 -1054310543 2005494954 -1369469448 2121558303 842228814 -1784361620 1065702193 759716166 -994080197
REM
CELL 1.54180   50.00000   50.00000   50.00000   90.00000   90.00000   90.00000
LATT -1
SFAC C  
C      1  0.5039340000000  0.4562610000000  0.5435060000000 1.0
C      1  0.4560830000000  0.4582980000000  0.4752310000000 1.0
C      1  0.5326660000000  0.4548920000000  0.4749200000000 1.0
C      1  0.4967100000000  0.5508510000000  0.5418870000000 1.0
C      1  0.5434060000000  0.5511290000000  0.4841250000000 1.0
C      1  0.4542890000000  0.5521900000000  0.4793450000000 1.0
C      1  0.4695620000000  0.5200530000000  0.5504120000000 1.0
C      1  0.4737620000000  0.5276010000000  0.4488690000000 1.0
C      1  0.5642730000000  0.5245230000000  0.5051600000000 1.0
C      1  0.5309750000000  0.4831540000000  0.5536620000000 1.0
C      1  0.5299820000000  0.4805860000000  0.4400710000000 1.0
C      1  0.4482300000000  0.4759240000000  0.5119050000000 1.0
C      1  0.5376340000000  0.5504520000000  0.4561180000000 1.0
C      1  0.5245150000000  0.5476490000000  0.5343730000000 1.0
C      1  0.4518410000000  0.5450130000000  0.5079440000000 1.0
C      1  0.4789490000000  0.4594870000000  0.4574030000000 1.0
C      1  0.4778450000000  0.4567550000000  0.5537560000000 1.0
C      1  0.5407750000000  0.4576550000000  0.5025880000000 1.0
C      1  0.5142430000000  0.5174560000000  0.5711810000000 1.0
C      1  0.4334930000000  0.5107830000000  0.4775790000000 1.0
C      1  0.5557290000000  0.5280300000000  0.4511870000000 1.0
C      1  0.4845310000000  0.4744860000000  0.5763810000000 1.0
C      1  0.5657310000000  0.4893760000000  0.4768800000000 1.0
C      1  0.4462320000000  0.4858580000000  0.4461610000000 1.0
C      1  0.5358800000000  0.5170820000000  0.5022080000000 1.0
C      1  0.4860180000000  0.5039440000000  0.5334430000000 1.0
C      1  0.4851030000000  0.5097380000000  0.4681330000000 1.0
C      1  0.4745310000000  0.4975060000000  0.4896330000000 1.0
C      1  0.5119690000000  0.4941660000000  0.5339570000000 1.0
C      1  0.5244190000000  0.4992640000000  0.4842850000000 1.0
C      1  0.4350590000000  0.4819320000000  0.4707910000000 1.0
C      1  0.5497010000000  0.4723930000000  0.4580720000000 1.0
C      1  0.5111410000000  0.4886090000000  0.5746230000000 1.0
C      1  0.5691730000000  0.5184740000000  0.4759690000000 1.0
C      1  0.4464840000000  0.5309460000000  0.4605700000000 1.0
C      1  0.4906980000000  0.5337420000000  0.5649030000000 1.0
C      1  0.4843260000000  0.5039420000000  0.4282410000000 1.0
C      1  0.5674000000000  0.5003970000000  0.5227600000000 1.0
C      1  0.4462950000000  0.5018150000000  0.5520130000000 1.0
C      1  0.5095780000000  0.4916920000000  0.4264680000000 1.0
C      1  0.4346480000000  0.4985830000000  0.5252300000000 1.0
C      1  0.5524490000000  0.5036910000000  0.5472820000000 1.0
C      1  0.5620740000000  0.4783520000000  0.5036910000000 1.0
C      1  0.4581320000000  0.4780850000000  0.5638910000000 1.0
C      1  0.4709820000000  0.4783600000000  0.4339570000000 1.0
C      1  0.4356870000000  0.5203020000000  0.5057220000000 1.0
C      1  0.5354580000000  0.5269110000000  0.5525690000000 1.0
C      1  0.5269120000000  0.5248880000000  0.4441870000000 1.0
C      1  0.4639070000000  0.4526060000000  0.5024130000000 1.0
C      1  0.5026270000000  0.4509790000000  0.4726090000000 1.0
C      1  0.5159120000000  0.4503750000000  0.5187940000000 1.0
C      1  0.5247590000000  0.5549940000000  0.5051150000000 1.0
C      1  0.4813780000000  0.5520440000000  0.4699250000000 1.0
C      1  0.4786470000000  0.5523730000000  0.5178820000000 1.0
C      1  0.4721260000000  0.4908970000000  0.5126920000000 1.0
C      1  0.5113510000000  0.5086150000000  0.4627900000000 1.0
C      1  0.5245400000000  0.4945860000000  0.5114440000000 1.0
C      1  0.4957940000000  0.5553000000000  0.4949520000000 1.0
C      1  0.4929610000000  0.4472590000000  0.4995900000000 1.0
END
