TITL C-2441166-8118-232 0.0565556442350925 125000 -22626.2289106006 0 0 162 (C1) n - 1
REM
REM in /home/bkarasulu/work/CARBON/AIRSS/Generating-Clusters/ReaxFF-fromJPCA2015/Units_Real/with-SteepDescent/Higher-Symm
REM
REM
REM
REM
REM
REM ./C.cell (1df0a924f5614ab8850e4351716899ee)
REM
REM compiler GCC version 9.2.1 20190827 (Red Hat 9.2.1-1)
REM options -cpp -mtune=generic -march=x86-64 -g -O0 -fpre-include=/usr/include/finclude/math-vector-fortran.h
REM seed -1214430528 -482926014 -934611227 -1421668913 1009124600 -327889987 -1897050968 -151146814 -1797221279 -1210537642 -468997996 -1307325381 -2014454659 -2002919191 284983792 -828911607 -117845764 -711187690 1430594730 -1229056646 2094776045 1313224930 -641181518 1548111495 131253783 2043183888 842069252 81347479 1988405442 1058753690 1800963164 -1806325721 -1382668118
REM
CELL 1.54180   50.00000   50.00000   50.00000   90.00000   90.00000   90.00000
LATT -1
SFAC C  
C      1  0.4066200000000  0.5011580000000  0.4514890000000 1.0
C      1  0.4027700000000  0.5411850000000  0.4796610000000 1.0
C      1  0.4030160000000  0.5408270000000  0.5086530000000 1.0
C      1  0.3997750000000  0.5040260000000  0.5453640000000 1.0
C      1  0.4035150000000  0.4755150000000  0.5510980000000 1.0
C      1  0.4116550000000  0.4599280000000  0.5109830000000 1.0
C      1  0.4024460000000  0.4766050000000  0.4639500000000 1.0
C      1  0.4418820000000  0.4960230000000  0.5812630000000 1.0
C      1  0.4371000000000  0.4311200000000  0.5477860000000 1.0
C      1  0.4461240000000  0.4166420000000  0.4812900000000 1.0
C      1  0.4349190000000  0.4677970000000  0.4204250000000 1.0
C      1  0.4461620000000  0.5321600000000  0.4299660000000 1.0
C      1  0.4425970000000  0.5725620000000  0.4873580000000 1.0
C      1  0.4505420000000  0.5652370000000  0.5444960000000 1.0
C      1  0.4743780000000  0.4547280000000  0.4141970000000 1.0
C      1  0.4783280000000  0.5541140000000  0.4101480000000 1.0
C      1  0.4686010000000  0.6032150000000  0.4775790000000 1.0
C      1  0.4795400000000  0.5775660000000  0.5703570000000 1.0
C      1  0.4788930000000  0.4923370000000  0.6054830000000 1.0
C      1  0.4756940000000  0.4242500000000  0.5641020000000 1.0
C      1  0.4804260000000  0.3979280000000  0.4671630000000 1.0
C      1  0.5222190000000  0.5606780000000  0.4258860000000 1.0
C      1  0.5239020000000  0.5981670000000  0.4905150000000 1.0
C      1  0.5178690000000  0.5629160000000  0.5742550000000 1.0
C      1  0.5233110000000  0.4759520000000  0.5945910000000 1.0
C      1  0.5204500000000  0.4167870000000  0.5521700000000 1.0
C      1  0.5232110000000  0.4132930000000  0.4578670000000 1.0
C      1  0.5182310000000  0.4678540000000  0.4065230000000 1.0
C      1  0.5039390000000  0.4034040000000  0.5293610000000 1.0
C      1  0.5059760000000  0.4202860000000  0.4336790000000 1.0
C      1  0.5010800000000  0.4962850000000  0.3969920000000 1.0
C      1  0.5063830000000  0.5803510000000  0.4394340000000 1.0
C      1  0.5057290000000  0.6011570000000  0.5166570000000 1.0
C      1  0.5010580000000  0.5462580000000  0.5939330000000 1.0
C      1  0.5052060000000  0.4529090000000  0.5910840000000 1.0
C      1  0.5858020000000  0.5396110000000  0.4571880000000 1.0
C      1  0.5798930000000  0.5550760000000  0.5004400000000 1.0
C      1  0.5782130000000  0.5356510000000  0.5446230000000 1.0
C      1  0.5804250000000  0.4897180000000  0.5544540000000 1.0
C      1  0.5823900000000  0.4440710000000  0.5209900000000 1.0
C      1  0.5856680000000  0.4489380000000  0.4705090000000 1.0
C      1  0.5781450000000  0.4884300000000  0.4461010000000 1.0
C      1  0.5488960000000  0.4878890000000  0.5898130000000 1.0
C      1  0.5490150000000  0.4242870000000  0.5506390000000 1.0
C      1  0.5488230000000  0.4150570000000  0.4696100000000 1.0
C      1  0.5492320000000  0.4679890000000  0.4156030000000 1.0
C      1  0.5483670000000  0.5480190000000  0.4243040000000 1.0
C      1  0.5523610000000  0.5903550000000  0.4879680000000 1.0
C      1  0.5459120000000  0.5632720000000  0.5647050000000 1.0
C      1  0.4501780000000  0.4431580000000  0.4227800000000 1.0
C      1  0.4616060000000  0.5311170000000  0.4056500000000 1.0
C      1  0.4628410000000  0.5980440000000  0.4493550000000 1.0
C      1  0.4650940000000  0.5906690000000  0.5492420000000 1.0
C      1  0.4599290000000  0.5126990000000  0.5972590000000 1.0
C      1  0.4498230000000  0.4366790000000  0.5722280000000 1.0
C      1  0.4650240000000  0.3983010000000  0.4919330000000 1.0
C      1  0.4413770000000  0.4324740000000  0.5046390000000 1.0
C      1  0.4649090000000  0.4508150000000  0.4660230000000 1.0
C      1  0.4582040000000  0.5041340000000  0.4426850000000 1.0
C      1  0.4607280000000  0.5500930000000  0.4660740000000 1.0
C      1  0.4605940000000  0.5538320000000  0.5194530000000 1.0
C      1  0.4590380000000  0.5237460000000  0.5541750000000 1.0
C      1  0.4672930000000  0.4781670000000  0.5525460000000 1.0
C      1  0.5023490000000  0.4692910000000  0.4866540000000 1.0
C      1  0.5010170000000  0.4926470000000  0.4667450000000 1.0
C      1  0.5012480000000  0.5229650000000  0.4728100000000 1.0
C      1  0.5014560000000  0.5360000000000  0.4996310000000 1.0
C      1  0.5024200000000  0.5228270000000  0.5259550000000 1.0
C      1  0.5037490000000  0.4948330000000  0.5334440000000 1.0
C      1  0.5035390000000  0.4716440000000  0.5156070000000 1.0
C      1  0.5314720000000  0.4580850000000  0.4523130000000 1.0
C      1  0.5319820000000  0.5094130000000  0.4403810000000 1.0
C      1  0.5326410000000  0.5561890000000  0.4695780000000 1.0
C      1  0.5295610000000  0.5607540000000  0.5247600000000 1.0
C      1  0.5294980000000  0.5182310000000  0.5613950000000 1.0
C      1  0.5309360000000  0.4631450000000  0.5529360000000 1.0
C      1  0.5310800000000  0.4385440000000  0.5042100000000 1.0
C      1  0.5514390000000  0.4493370000000  0.5665890000000 1.0
C      1  0.5456050000000  0.4130610000000  0.5014350000000 1.0
C      1  0.5511430000000  0.4462500000000  0.4354660000000 1.0
C      1  0.5452700000000  0.5184320000000  0.4150580000000 1.0
C      1  0.5523940000000  0.5744640000000  0.4622970000000 1.0
C      1  0.5478970000000  0.5799820000000  0.5366480000000 1.0
C      1  0.5452650000000  0.5197740000000  0.5861880000000 1.0
C      1  0.5992750000000  0.5334990000000  0.5034750000000 1.0
C      1  0.5981620000000  0.5194020000000  0.5294730000000 1.0
C      1  0.5993800000000  0.4894560000000  0.5330100000000 1.0
C      1  0.5978090000000  0.4664960000000  0.5139050000000 1.0
C      1  0.5995970000000  0.4693410000000  0.4830870000000 1.0
C      1  0.6000630000000  0.4938120000000  0.4653310000000 1.0
C      1  0.5997340000000  0.5226160000000  0.4746920000000 1.0
C      1  0.4510570000000  0.5586800000000  0.4396380000000 1.0
C      1  0.4539600000000  0.5946870000000  0.5025830000000 1.0
C      1  0.4518610000000  0.5477070000000  0.5697270000000 1.0
C      1  0.4554890000000  0.4655390000000  0.5794740000000 1.0
C      1  0.4505660000000  0.4158720000000  0.5267910000000 1.0
C      1  0.4544840000000  0.4279100000000  0.4503330000000 1.0
C      1  0.4533100000000  0.4902850000000  0.4157190000000 1.0
C      1  0.4155700000000  0.4521840000000  0.5369650000000 1.0
C      1  0.4181200000000  0.4654450000000  0.4846490000000 1.0
C      1  0.4126450000000  0.4771870000000  0.4379170000000 1.0
C      1  0.4188530000000  0.5258020000000  0.4606190000000 1.0
C      1  0.4159320000000  0.5639000000000  0.4933910000000 1.0
C      1  0.4132130000000  0.5209490000000  0.5268750000000 1.0
C      1  0.4154190000000  0.4957920000000  0.5698210000000 1.0
C      1  0.4510670000000  0.5290760000000  0.5074930000000 1.0
C      1  0.4413090000000  0.5127360000000  0.5291880000000 1.0
C      1  0.4542210000000  0.4844770000000  0.5263850000000 1.0
C      1  0.4544660000000  0.4609440000000  0.5078620000000 1.0
C      1  0.4478650000000  0.4707530000000  0.4798710000000 1.0
C      1  0.4544950000000  0.4993960000000  0.4738930000000 1.0
C      1  0.4435380000000  0.5255950000000  0.4766310000000 1.0
C      1  0.4757890000000  0.5784500000000  0.4292880000000 1.0
C      1  0.4754280000000  0.5983610000000  0.5225640000000 1.0
C      1  0.4710760000000  0.5403400000000  0.5914800000000 1.0
C      1  0.4793270000000  0.4647700000000  0.5982920000000 1.0
C      1  0.4753870000000  0.4016040000000  0.5201060000000 1.0
C      1  0.4786940000000  0.4118410000000  0.4422470000000 1.0
C      1  0.4724520000000  0.5035030000000  0.3979270000000 1.0
C      1  0.5295070000000  0.4583660000000  0.5243300000000 1.0
C      1  0.5306840000000  0.4558350000000  0.4821570000000 1.0
C      1  0.5228660000000  0.4849810000000  0.4499420000000 1.0
C      1  0.5304020000000  0.5282090000000  0.4625160000000 1.0
C      1  0.5281230000000  0.5507890000000  0.4975910000000 1.0
C      1  0.5283640000000  0.5342430000000  0.5370980000000 1.0
C      1  0.5297340000000  0.4921200000000  0.5493580000000 1.0
C      1  0.4834660000000  0.5594950000000  0.5033690000000 1.0
C      1  0.4847110000000  0.5341790000000  0.5465830000000 1.0
C      1  0.4894190000000  0.4913310000000  0.5595200000000 1.0
C      1  0.4809910000000  0.4533640000000  0.5213610000000 1.0
C      1  0.4886500000000  0.4449440000000  0.4775130000000 1.0
C      1  0.4841760000000  0.4914150000000  0.4441930000000 1.0
C      1  0.4861970000000  0.5389240000000  0.4539680000000 1.0
C      1  0.5650490000000  0.4232820000000  0.5262020000000 1.0
C      1  0.5689500000000  0.4315610000000  0.4559780000000 1.0
C      1  0.5638930000000  0.4917840000000  0.4207550000000 1.0
C      1  0.5690930000000  0.5575390000000  0.4428850000000 1.0
C      1  0.5668430000000  0.5788460000000  0.5102410000000 1.0
C      1  0.5634790000000  0.5416560000000  0.5688560000000 1.0
C      1  0.5686170000000  0.4727020000000  0.5751290000000 1.0
C      1  0.5145400000000  0.5191460000000  0.4055320000000 1.0
C      1  0.5090890000000  0.5900110000000  0.4668680000000 1.0
C      1  0.5239110000000  0.6017350000000  0.5380090000000 1.0
C      1  0.5177340000000  0.5237280000000  0.5995060000000 1.0
C      1  0.5049860000000  0.4278580000000  0.5741760000000 1.0
C      1  0.5172620000000  0.4010320000000  0.5043210000000 1.0
C      1  0.5128860000000  0.4398820000000  0.4130880000000 1.0
C      1  0.5597420000000  0.4920170000000  0.4698190000000 1.0
C      1  0.5509820000000  0.5169800000000  0.4780320000000 1.0
C      1  0.5561550000000  0.5340700000000  0.4996160000000 1.0
C      1  0.5557340000000  0.5246830000000  0.5270240000000 1.0
C      1  0.5566820000000  0.4965070000000  0.5344560000000 1.0
C      1  0.5511020000000  0.4765250000000  0.5149020000000 1.0
C      1  0.5524010000000  0.4732250000000  0.4889880000000 1.0
C      1  0.4817330000000  0.4395620000000  0.5424690000000 1.0
C      1  0.5020580000000  0.4149260000000  0.4795330000000 1.0
C      1  0.4920520000000  0.4712080000000  0.4281910000000 1.0
C      1  0.4984740000000  0.5404120000000  0.4248820000000 1.0
C      1  0.4878730000000  0.5800500000000  0.4842270000000 1.0
C      1  0.4955920000000  0.5601300000000  0.5545950000000 1.0
C      1  0.5026160000000  0.4982540000000  0.5896470000000 1.0
C      1  0.4699910000000  0.5029770000000  0.5023400000000 1.0
END
