TITL C-2441162-9305-1477 0.0349060212910879 125000 -14033.2714938481 0 0 105 (C1) n - 1
REM
REM in /home/bkarasulu/work/CARBON/AIRSS/Generating-Clusters/ReaxFF-fromJPCA2015/Units_Real/with-SteepDescent/Higher-Symm
REM
REM
REM
REM
REM
REM ./C.cell (1df0a924f5614ab8850e4351716899ee)
REM
REM compiler GCC version 9.2.1 20190827 (Red Hat 9.2.1-1)
REM options -cpp -mtune=generic -march=x86-64 -g -O0 -fpre-include=/usr/include/finclude/math-vector-fortran.h
REM seed -631474212 -160897774 -572450990 313444848 -1643195212 -1694632600 -1238600903 49176680 540021982 -1012062063 1756195528 -1005388563 657068912 556273394 -798192268 70892544 832488117 -314991402 1269534987 2021976240 -177739205 1368736799 324822038 -1830934814 198898339 -1339490633 292188497 1650626166 -1325121875 906570915 -11219701 1775884707 -45300587
REM
CELL 1.54180   50.00000   50.00000   50.00000   90.00000   90.00000   90.00000
LATT -1
SFAC C  
C      1  0.4369860000000  0.5241810000000  0.4483600000000 1.0
C      1  0.4339550000000  0.4403690000000  0.5027240000000 1.0
C      1  0.4360570000000  0.5346020000000  0.5483840000000 1.0
C      1  0.5649300000000  0.5242460000000  0.4524370000000 1.0
C      1  0.5655100000000  0.4468820000000  0.4971850000000 1.0
C      1  0.5644750000000  0.5334660000000  0.5482670000000 1.0
C      1  0.4392740000000  0.4731840000000  0.4533310000000 1.0
C      1  0.4334940000000  0.5597120000000  0.5026510000000 1.0
C      1  0.4354290000000  0.4650290000000  0.5485510000000 1.0
C      1  0.5642660000000  0.4755380000000  0.4524390000000 1.0
C      1  0.5658930000000  0.5529150000000  0.4971070000000 1.0
C      1  0.5643940000000  0.4668890000000  0.5480610000000 1.0
C      1  0.4513780000000  0.5121640000000  0.5219790000000 1.0
C      1  0.4626610000000  0.5114440000000  0.4808230000000 1.0
C      1  0.4547530000000  0.4738900000000  0.4985800000000 1.0
C      1  0.5472970000000  0.5130760000000  0.5192170000000 1.0
C      1  0.5443010000000  0.5137650000000  0.4738880000000 1.0
C      1  0.5441100000000  0.4708510000000  0.4973860000000 1.0
C      1  0.4518400000000  0.4872780000000  0.5220870000000 1.0
C      1  0.4648870000000  0.4875320000000  0.4815660000000 1.0
C      1  0.4526030000000  0.5261510000000  0.4994200000000 1.0
C      1  0.5471190000000  0.4864670000000  0.5193020000000 1.0
C      1  0.5430980000000  0.4855320000000  0.4735480000000 1.0
C      1  0.5445860000000  0.5287990000000  0.4976340000000 1.0
C      1  0.4459710000000  0.4446910000000  0.4511000000000 1.0
C      1  0.4468370000000  0.4841850000000  0.5698910000000 1.0
C      1  0.4468180000000  0.5683740000000  0.4786210000000 1.0
C      1  0.5542420000000  0.4476040000000  0.4506320000000 1.0
C      1  0.5528720000000  0.4835150000000  0.5678510000000 1.0
C      1  0.5550310000000  0.5683050000000  0.4753120000000 1.0
C      1  0.4453940000000  0.5516780000000  0.4517220000000 1.0
C      1  0.4462900000000  0.5168710000000  0.5689170000000 1.0
C      1  0.4467900000000  0.4300220000000  0.4789830000000 1.0
C      1  0.5547500000000  0.5519760000000  0.4507830000000 1.0
C      1  0.5528120000000  0.5167490000000  0.5678290000000 1.0
C      1  0.5547810000000  0.4313330000000  0.4755380000000 1.0
C      1  0.5781930000000  0.4822450000000  0.5264750000000 1.0
C      1  0.5836410000000  0.5300120000000  0.4991110000000 1.0
C      1  0.5831280000000  0.4851270000000  0.4739410000000 1.0
C      1  0.4210490000000  0.4829780000000  0.5270450000000 1.0
C      1  0.4221570000000  0.5310580000000  0.4988820000000 1.0
C      1  0.4212390000000  0.4853950000000  0.4730250000000 1.0
C      1  0.5777400000000  0.5177620000000  0.5264660000000 1.0
C      1  0.5833150000000  0.4698750000000  0.4990810000000 1.0
C      1  0.5834410000000  0.5145560000000  0.4739970000000 1.0
C      1  0.4219700000000  0.5179910000000  0.5275130000000 1.0
C      1  0.4212710000000  0.4688810000000  0.4991890000000 1.0
C      1  0.4223820000000  0.5141100000000  0.4713970000000 1.0
C      1  0.5320880000000  0.5474710000000  0.4322330000000 1.0
C      1  0.5336930000000  0.4188470000000  0.4939270000000 1.0
C      1  0.5314810000000  0.5361010000000  0.5737730000000 1.0
C      1  0.4662370000000  0.5486760000000  0.4309690000000 1.0
C      1  0.4679170000000  0.4172530000000  0.4951480000000 1.0
C      1  0.4679900000000  0.5356120000000  0.5752570000000 1.0
C      1  0.5323320000000  0.4541470000000  0.4323190000000 1.0
C      1  0.5334730000000  0.5802610000000  0.4935060000000 1.0
C      1  0.5316810000000  0.4641320000000  0.5739240000000 1.0
C      1  0.4670640000000  0.4518610000000  0.4320370000000 1.0
C      1  0.4677830000000  0.5819140000000  0.4949320000000 1.0
C      1  0.4681250000000  0.4644680000000  0.5752630000000 1.0
C      1  0.5239390000000  0.4382280000000  0.5580880000000 1.0
C      1  0.5364080000000  0.5755830000000  0.5213800000000 1.0
C      1  0.5259000000000  0.4814860000000  0.4191000000000 1.0
C      1  0.4748790000000  0.4408130000000  0.5594320000000 1.0
C      1  0.4699960000000  0.5776190000000  0.5248000000000 1.0
C      1  0.4727870000000  0.4820220000000  0.4192280000000 1.0
C      1  0.5237600000000  0.5619230000000  0.5578870000000 1.0
C      1  0.5368590000000  0.4234810000000  0.5221180000000 1.0
C      1  0.5298620000000  0.5213120000000  0.4207960000000 1.0
C      1  0.4751220000000  0.5591550000000  0.5597400000000 1.0
C      1  0.4703560000000  0.4219200000000  0.5247030000000 1.0
C      1  0.4724930000000  0.5228840000000  0.4186050000000 1.0
C      1  0.4781630000000  0.5248050000000  0.5305660000000 1.0
C      1  0.4775500000000  0.5189350000000  0.4611760000000 1.0
C      1  0.4768960000000  0.4600060000000  0.5083190000000 1.0
C      1  0.5219180000000  0.5240890000000  0.5307090000000 1.0
C      1  0.5182650000000  0.5144230000000  0.4640740000000 1.0
C      1  0.5185210000000  0.4637570000000  0.5065020000000 1.0
C      1  0.4781250000000  0.4753840000000  0.5311420000000 1.0
C      1  0.4694010000000  0.4812440000000  0.4585970000000 1.0
C      1  0.4765290000000  0.5399340000000  0.5076570000000 1.0
C      1  0.5221070000000  0.4763580000000  0.5309780000000 1.0
C      1  0.5146100000000  0.4867970000000  0.4650850000000 1.0
C      1  0.5189790000000  0.5365050000000  0.5062490000000 1.0
C      1  0.4856430000000  0.5457680000000  0.4548600000000 1.0
C      1  0.4858950000000  0.4407360000000  0.4875420000000 1.0
C      1  0.4855130000000  0.5169720000000  0.5591040000000 1.0
C      1  0.5143560000000  0.5411410000000  0.4553960000000 1.0
C      1  0.5136220000000  0.4404460000000  0.4925130000000 1.0
C      1  0.5135500000000  0.5182720000000  0.5583610000000 1.0
C      1  0.4853650000000  0.4549640000000  0.4549260000000 1.0
C      1  0.4857150000000  0.5591280000000  0.4880480000000 1.0
C      1  0.4857060000000  0.4831130000000  0.5592620000000 1.0
C      1  0.5133200000000  0.4611370000000  0.4526920000000 1.0
C      1  0.5136710000000  0.5581210000000  0.4891850000000 1.0
C      1  0.5137340000000  0.4818030000000  0.5583330000000 1.0
C      1  0.4467970000000  0.5618230000000  0.5300010000000 1.0
C      1  0.4542510000000  0.5051650000000  0.4258150000000 1.0
C      1  0.5460040000000  0.5005560000000  0.4288090000000 1.0
C      1  0.4472810000000  0.4377180000000  0.5293510000000 1.0
C      1  0.5476690000000  0.5615640000000  0.5422680000000 1.0
C      1  0.5478510000000  0.4384240000000  0.5424290000000 1.0
C      1  0.4967800000000  0.4310700000000  0.5474510000000 1.0
C      1  0.4987150000000  0.4942010000000  0.4179770000000 1.0
C      1  0.4965500000000  0.5692150000000  0.5472320000000 1.0
END
