TITL C-2441157-2117-1030 0.0735477433415932 125000 -21450.733045634 0 0 155 (C1) n - 1
REM
REM in /home/bkarasulu/work/CARBON/AIRSS/Generating-Clusters/ReaxFF-fromJPCA2015/Units_Real/with-SteepDescent/Higher-Symm
REM
REM
REM
REM
REM
REM ./C.cell (1df0a924f5614ab8850e4351716899ee)
REM
REM compiler GCC version 9.2.1 20190827 (Red Hat 9.2.1-1)
REM options -cpp -mtune=generic -march=x86-64 -g -O0 -fpre-include=/usr/include/finclude/math-vector-fortran.h
REM seed 1630305531 1429445190 286504938 1137297413 723420442 300046361 195617183 1109436944 1597576434 2111369145 -1965891689 -128414701 -105740220 700949684 -246883895 1079310905 -349831365 -1044663238 1077847997 1929435084 -1850410432 -1368203521 1600822422 -24331939 1040575781 1434010485 -1855262664 -737020112 -1049753569 -1728048428 674334033 -1168810289 -786843956
REM
CELL 1.54180   50.00000   50.00000   50.00000   90.00000   90.00000   90.00000
LATT -1
SFAC C  
C      1  0.4865490000000  0.4925500000000  0.5970260000000 1.0
C      1  0.5086620000000  0.5064960000000  0.4078640000000 1.0
C      1  0.5873700000000  0.4371450000000  0.5263820000000 1.0
C      1  0.4242130000000  0.5567710000000  0.4748730000000 1.0
C      1  0.5366420000000  0.4183620000000  0.4972400000000 1.0
C      1  0.4631300000000  0.5762220000000  0.4987290000000 1.0
C      1  0.4137290000000  0.5257220000000  0.4393880000000 1.0
C      1  0.5701550000000  0.4829350000000  0.5663000000000 1.0
C      1  0.5613680000000  0.4894170000000  0.4782000000000 1.0
C      1  0.4336160000000  0.5089750000000  0.5188280000000 1.0
C      1  0.4916140000000  0.4351590000000  0.5888430000000 1.0
C      1  0.5112870000000  0.5675030000000  0.4113300000000 1.0
C      1  0.4589320000000  0.4284310000000  0.4341630000000 1.0
C      1  0.5425000000000  0.5672580000000  0.5688940000000 1.0
C      1  0.5274430000000  0.4251120000000  0.5724850000000 1.0
C      1  0.4741550000000  0.5759820000000  0.4254680000000 1.0
C      1  0.4256730000000  0.4297250000000  0.5061840000000 1.0
C      1  0.5708520000000  0.5702580000000  0.4924610000000 1.0
C      1  0.5569060000000  0.4299540000000  0.5679200000000 1.0
C      1  0.4441780000000  0.5706710000000  0.4299120000000 1.0
C      1  0.4919280000000  0.5285940000000  0.4287050000000 1.0
C      1  0.5167980000000  0.4663200000000  0.5656530000000 1.0
C      1  0.5169140000000  0.4468710000000  0.5867580000000 1.0
C      1  0.4884700000000  0.5550300000000  0.4161470000000 1.0
C      1  0.4549560000000  0.5136260000000  0.4632900000000 1.0
C      1  0.5223110000000  0.4929860000000  0.5323620000000 1.0
C      1  0.5906140000000  0.4655350000000  0.5372080000000 1.0
C      1  0.4019860000000  0.5384560000000  0.4639000000000 1.0
C      1  0.5180520000000  0.5571120000000  0.5356860000000 1.0
C      1  0.4845090000000  0.4378860000000  0.4882460000000 1.0
C      1  0.4244920000000  0.5555320000000  0.5281630000000 1.0
C      1  0.5765480000000  0.4437840000000  0.4731940000000 1.0
C      1  0.5199730000000  0.4663530000000  0.5170140000000 1.0
C      1  0.4962210000000  0.5347610000000  0.5056890000000 1.0
C      1  0.5002270000000  0.5081590000000  0.4679940000000 1.0
C      1  0.4973820000000  0.5004080000000  0.5455830000000 1.0
C      1  0.4662700000000  0.5785500000000  0.5498230000000 1.0
C      1  0.5342130000000  0.4209600000000  0.4515940000000 1.0
C      1  0.4918740000000  0.5567460000000  0.4632980000000 1.0
C      1  0.5078700000000  0.4432990000000  0.5298050000000 1.0
C      1  0.4595210000000  0.5118030000000  0.4104750000000 1.0
C      1  0.5384680000000  0.4934920000000  0.5925380000000 1.0
C      1  0.4800450000000  0.5804480000000  0.4532120000000 1.0
C      1  0.5201280000000  0.4216410000000  0.5442020000000 1.0
C      1  0.5375080000000  0.5242270000000  0.5940530000000 1.0
C      1  0.4564640000000  0.4845940000000  0.4031630000000 1.0
C      1  0.4583370000000  0.5879320000000  0.4718060000000 1.0
C      1  0.5420840000000  0.4143330000000  0.5261090000000 1.0
C      1  0.5353670000000  0.5137710000000  0.5158660000000 1.0
C      1  0.4666560000000  0.4833200000000  0.4802730000000 1.0
C      1  0.4909070000000  0.4748800000000  0.5553900000000 1.0
C      1  0.5034420000000  0.5328190000000  0.4534860000000 1.0
C      1  0.4250330000000  0.4581580000000  0.5480850000000 1.0
C      1  0.5779900000000  0.5412590000000  0.4535330000000 1.0
C      1  0.3945260000000  0.4901530000000  0.5258490000000 1.0
C      1  0.6003470000000  0.5089330000000  0.4812410000000 1.0
C      1  0.5888300000000  0.4930510000000  0.4581210000000 1.0
C      1  0.4058540000000  0.5149100000000  0.5355080000000 1.0
C      1  0.5608490000000  0.5109080000000  0.4155570000000 1.0
C      1  0.4400380000000  0.4892880000000  0.5883400000000 1.0
C      1  0.5398620000000  0.4421990000000  0.4322080000000 1.0
C      1  0.4585320000000  0.5590670000000  0.5704680000000 1.0
C      1  0.5172570000000  0.4584820000000  0.4253190000000 1.0
C      1  0.4805190000000  0.5401220000000  0.5715960000000 1.0
C      1  0.4297440000000  0.5469760000000  0.4292310000000 1.0
C      1  0.5671680000000  0.4556330000000  0.5732780000000 1.0
C      1  0.4509870000000  0.4451000000000  0.5462400000000 1.0
C      1  0.5521970000000  0.5558880000000  0.4547420000000 1.0
C      1  0.4667970000000  0.4009100000000  0.5174290000000 1.0
C      1  0.5325170000000  0.5985930000000  0.4847380000000 1.0
C      1  0.4618040000000  0.4177860000000  0.4759670000000 1.0
C      1  0.5375900000000  0.5825520000000  0.5290940000000 1.0
C      1  0.5359750000000  0.5242830000000  0.4062630000000 1.0
C      1  0.4632880000000  0.4730550000000  0.5959210000000 1.0
C      1  0.5487090000000  0.5364190000000  0.5700280000000 1.0
C      1  0.4618490000000  0.4546800000000  0.4319060000000 1.0
C      1  0.4817350000000  0.4984800000000  0.3972450000000 1.0
C      1  0.5132810000000  0.4841790000000  0.6014860000000 1.0
C      1  0.4412600000000  0.4713620000000  0.4858800000000 1.0
C      1  0.5533530000000  0.5491460000000  0.5041350000000 1.0
C      1  0.5962250000000  0.5024250000000  0.5105050000000 1.0
C      1  0.3977250000000  0.4985690000000  0.4978580000000 1.0
C      1  0.4321370000000  0.4841610000000  0.5607770000000 1.0
C      1  0.5785050000000  0.5162900000000  0.4386170000000 1.0
C      1  0.5114100000000  0.6005290000000  0.5312430000000 1.0
C      1  0.4854480000000  0.3971390000000  0.4694720000000 1.0
C      1  0.4463830000000  0.5177870000000  0.5912020000000 1.0
C      1  0.5546270000000  0.4827210000000  0.4128950000000 1.0
C      1  0.4719280000000  0.5094680000000  0.5341400000000 1.0
C      1  0.5197620000000  0.4894300000000  0.4610190000000 1.0
C      1  0.5085770000000  0.6042830000000  0.5027330000000 1.0
C      1  0.4897360000000  0.3963180000000  0.4982840000000 1.0
C      1  0.5447790000000  0.5020990000000  0.4573300000000 1.0
C      1  0.4459270000000  0.5025790000000  0.5435170000000 1.0
C      1  0.5670160000000  0.4976290000000  0.5065350000000 1.0
C      1  0.4255080000000  0.4897310000000  0.4990540000000 1.0
C      1  0.4657170000000  0.4220010000000  0.5368480000000 1.0
C      1  0.5345400000000  0.5736830000000  0.4695650000000 1.0
C      1  0.4064680000000  0.4617060000000  0.5254140000000 1.0
C      1  0.5952070000000  0.5367900000000  0.4782390000000 1.0
C      1  0.4365290000000  0.5397060000000  0.5743870000000 1.0
C      1  0.5640750000000  0.4599220000000  0.4292950000000 1.0
C      1  0.5054010000000  0.5514270000000  0.5602330000000 1.0
C      1  0.4896490000000  0.4560660000000  0.4395350000000 1.0
C      1  0.5138370000000  0.5773030000000  0.5707350000000 1.0
C      1  0.4881350000000  0.4254830000000  0.4348860000000 1.0
C      1  0.4276140000000  0.5034830000000  0.4537850000000 1.0
C      1  0.5655900000000  0.4764560000000  0.5251270000000 1.0
C      1  0.5533750000000  0.5911070000000  0.5027250000000 1.0
C      1  0.4447750000000  0.4105140000000  0.5012820000000 1.0
C      1  0.5690000000000  0.5159460000000  0.5598570000000 1.0
C      1  0.4416080000000  0.4707900000000  0.4238820000000 1.0
C      1  0.5365780000000  0.5304680000000  0.4611130000000 1.0
C      1  0.4709590000000  0.4645700000000  0.5360960000000 1.0
C      1  0.3970740000000  0.5281130000000  0.4905550000000 1.0
C      1  0.6040670000000  0.4723330000000  0.5117700000000 1.0
C      1  0.4920200000000  0.5809430000000  0.4990660000000 1.0
C      1  0.5069620000000  0.4199720000000  0.4961700000000 1.0
C      1  0.4666530000000  0.5198310000000  0.4367380000000 1.0
C      1  0.5392180000000  0.4849140000000  0.5627550000000 1.0
C      1  0.5818490000000  0.4636000000000  0.4514420000000 1.0
C      1  0.4195330000000  0.5362770000000  0.5503870000000 1.0
C      1  0.4421980000000  0.4296230000000  0.4573740000000 1.0
C      1  0.5584140000000  0.5695210000000  0.5461410000000 1.0
C      1  0.5052600000000  0.4093330000000  0.4514160000000 1.0
C      1  0.4940440000000  0.5904310000000  0.5519200000000 1.0
C      1  0.5253420000000  0.4818280000000  0.4121080000000 1.0
C      1  0.4754700000000  0.5192920000000  0.5910340000000 1.0
C      1  0.4772980000000  0.4894830000000  0.5069600000000 1.0
C      1  0.5406730000000  0.5285530000000  0.4909510000000 1.0
C      1  0.5526110000000  0.4230720000000  0.4733860000000 1.0
C      1  0.4508370000000  0.5711880000000  0.5257350000000 1.0
C      1  0.4258110000000  0.4530550000000  0.4675660000000 1.0
C      1  0.5760090000000  0.5477170000000  0.5274620000000 1.0
C      1  0.4497090000000  0.5313320000000  0.5060900000000 1.0
C      1  0.5482530000000  0.4625780000000  0.4835820000000 1.0
C      1  0.5936910000000  0.5549980000000  0.5016410000000 1.0
C      1  0.4097400000000  0.4484330000000  0.4996950000000 1.0
C      1  0.5933020000000  0.4478760000000  0.4993060000000 1.0
C      1  0.4100790000000  0.5508630000000  0.5036200000000 1.0
C      1  0.5823870000000  0.5211220000000  0.5369650000000 1.0
C      1  0.4244770000000  0.4758870000000  0.4468650000000 1.0
C      1  0.5088600000000  0.5611310000000  0.4856840000000 1.0
C      1  0.4818130000000  0.4423340000000  0.5217830000000 1.0
C      1  0.4353310000000  0.5793260000000  0.4569590000000 1.0
C      1  0.5657350000000  0.4226460000000  0.5400610000000 1.0
C      1  0.5298350000000  0.5504640000000  0.4076960000000 1.0
C      1  0.4691290000000  0.4458100000000  0.5933150000000 1.0
C      1  0.5186160000000  0.4672760000000  0.4796050000000 1.0
C      1  0.4723810000000  0.5367240000000  0.5219150000000 1.0
C      1  0.5475480000000  0.4591570000000  0.5124530000000 1.0
C      1  0.4499950000000  0.5392420000000  0.4790560000000 1.0
C      1  0.5170030000000  0.5336190000000  0.5226550000000 1.0
C      1  0.4901720000000  0.4615420000000  0.4716300000000 1.0
C      1  0.4951310000000  0.5083620000000  0.4951230000000 1.0
END
