TITL C-2441154-10-839 0.0249248510393156 125000 -13550.5109032037 0 0 92 (C1) n - 1
REM
REM in /home/bkarasulu/work/CARBON/AIRSS/Generating-Clusters/ReaxFF-fromJPCA2015/Units_Real/with-SteepDescent/Higher-Symm
REM
REM
REM
REM
REM
REM ./C.cell (1df0a924f5614ab8850e4351716899ee)
REM
REM compiler GCC version 9.2.1 20190827 (Red Hat 9.2.1-1)
REM options -cpp -mtune=generic -march=x86-64 -g -O0 -fpre-include=/usr/include/finclude/math-vector-fortran.h
REM seed 263660266 -820688896 1344541553 931587306 -2015288877 223642341 382065818 1813088464 -1443072713 -1331430917 376571904 -1927595030 921398727 1016991460 1118494555 484249071 1995262753 -465238721 459925523 -2071744202 -811888933 -1320034667 784471180 1562835904 1963667131 -1518075918 992781878 -821824301 1000298164 1125653724 621991321 -681333082 973572283
REM
CELL 1.54180   50.00000   50.00000   50.00000   90.00000   90.00000   90.00000
LATT -1
SFAC C  
C      1  0.4420050000000  0.4951950000000  0.4244650000000 1.0
C      1  0.4638780000000  0.4905200000000  0.5872160000000 1.0
C      1  0.5783370000000  0.5059550000000  0.4874490000000 1.0
C      1  0.4419520000000  0.5066640000000  0.5747510000000 1.0
C      1  0.4675830000000  0.5010780000000  0.4190340000000 1.0
C      1  0.5783510000000  0.4926280000000  0.5128100000000 1.0
C      1  0.5326620000000  0.5687430000000  0.5343510000000 1.0
C      1  0.5151090000000  0.5662140000000  0.4548670000000 1.0
C      1  0.4505630000000  0.5689050000000  0.5116690000000 1.0
C      1  0.5306250000000  0.4302130000000  0.4678150000000 1.0
C      1  0.5146400000000  0.4290120000000  0.5447470000000 1.0
C      1  0.4503460000000  0.4288010000000  0.4880610000000 1.0
C      1  0.5098440000000  0.5134860000000  0.5234340000000 1.0
C      1  0.5174360000000  0.5137040000000  0.4793860000000 1.0
C      1  0.4741920000000  0.5129960000000  0.4936460000000 1.0
C      1  0.5151470000000  0.4845390000000  0.4744890000000 1.0
C      1  0.5160360000000  0.4839110000000  0.5194060000000 1.0
C      1  0.4746120000000  0.4837550000000  0.4988150000000 1.0
C      1  0.5204240000000  0.4241130000000  0.4952590000000 1.0
C      1  0.4793340000000  0.4236240000000  0.4868220000000 1.0
C      1  0.4987680000000  0.4186450000000  0.5228340000000 1.0
C      1  0.5235020000000  0.5747740000000  0.5072700000000 1.0
C      1  0.4768990000000  0.5774110000000  0.5189350000000 1.0
C      1  0.4969270000000  0.5743150000000  0.4757730000000 1.0
C      1  0.4706890000000  0.5699620000000  0.4650180000000 1.0
C      1  0.4832590000000  0.5709440000000  0.5456260000000 1.0
C      1  0.5456020000000  0.5686050000000  0.4914350000000 1.0
C      1  0.4730670000000  0.4267130000000  0.5326250000000 1.0
C      1  0.4828550000000  0.4275460000000  0.4579610000000 1.0
C      1  0.5462860000000  0.4287970000000  0.5079550000000 1.0
C      1  0.5545820000000  0.5501170000000  0.5339060000000 1.0
C      1  0.5025350000000  0.5479660000000  0.4368560000000 1.0
C      1  0.4431350000000  0.5476580000000  0.5298580000000 1.0
C      1  0.5535670000000  0.4479130000000  0.4658610000000 1.0
C      1  0.5035270000000  0.4501220000000  0.5624220000000 1.0
C      1  0.4419280000000  0.4503610000000  0.4700960000000 1.0
C      1  0.5333090000000  0.4786220000000  0.4956030000000 1.0
C      1  0.4889390000000  0.4708910000000  0.4768230000000 1.0
C      1  0.4910100000000  0.4689940000000  0.5175730000000 1.0
C      1  0.5321300000000  0.5198300000000  0.5058180000000 1.0
C      1  0.4905090000000  0.5300600000000  0.5100200000000 1.0
C      1  0.4907110000000  0.5170450000000  0.4694830000000 1.0
C      1  0.4881230000000  0.5001690000000  0.4397990000000 1.0
C      1  0.4486470000000  0.4945760000000  0.5471200000000 1.0
C      1  0.5549360000000  0.5072900000000  0.5207960000000 1.0
C      1  0.4852950000000  0.5040120000000  0.5692880000000 1.0
C      1  0.4426670000000  0.5058820000000  0.4511720000000 1.0
C      1  0.5549070000000  0.4910560000000  0.4800060000000 1.0
C      1  0.4266650000000  0.5264650000000  0.5178270000000 1.0
C      1  0.5524430000000  0.5296870000000  0.5553210000000 1.0
C      1  0.5222720000000  0.5274470000000  0.4278710000000 1.0
C      1  0.4256820000000  0.4723120000000  0.4818700000000 1.0
C      1  0.5524390000000  0.4683090000000  0.4438330000000 1.0
C      1  0.5219160000000  0.4720270000000  0.5706810000000 1.0
C      1  0.5295400000000  0.4740730000000  0.4263160000000 1.0
C      1  0.4226330000000  0.4747420000000  0.5107410000000 1.0
C      1  0.5488280000000  0.4761370000000  0.5598380000000 1.0
C      1  0.5294480000000  0.5242990000000  0.5720600000000 1.0
C      1  0.4226840000000  0.5237720000000  0.4890780000000 1.0
C      1  0.5488010000000  0.5218500000000  0.4398890000000 1.0
C      1  0.5138050000000  0.4994440000000  0.5748320000000 1.0
C      1  0.5568330000000  0.4955270000000  0.4511590000000 1.0
C      1  0.4252760000000  0.4996250000000  0.4735160000000 1.0
C      1  0.5150640000000  0.4999990000000  0.4249120000000 1.0
C      1  0.5571690000000  0.5024090000000  0.5492030000000 1.0
C      1  0.4284080000000  0.4990820000000  0.5262590000000 1.0
C      1  0.4639460000000  0.4488250000000  0.4508860000000 1.0
C      1  0.4759400000000  0.4478360000000  0.5538510000000 1.0
C      1  0.5644410000000  0.4467430000000  0.4934200000000 1.0
C      1  0.4640500000000  0.5495390000000  0.5503870000000 1.0
C      1  0.4739940000000  0.5499040000000  0.4442770000000 1.0
C      1  0.5634110000000  0.5515840000000  0.5058230000000 1.0
C      1  0.5427180000000  0.4331640000000  0.5363850000000 1.0
C      1  0.5097990000000  0.4315680000000  0.4474020000000 1.0
C      1  0.4480570000000  0.4303910000000  0.5167880000000 1.0
C      1  0.5419360000000  0.5637630000000  0.4643760000000 1.0
C      1  0.5108890000000  0.5669890000000  0.5532820000000 1.0
C      1  0.4482430000000  0.5661700000000  0.4829630000000 1.0
C      1  0.4358390000000  0.5432650000000  0.4733120000000 1.0
C      1  0.5089110000000  0.5438990000000  0.5694110000000 1.0
C      1  0.5588440000000  0.5412620000000  0.4591020000000 1.0
C      1  0.4356080000000  0.4544480000000  0.5269630000000 1.0
C      1  0.5079700000000  0.4551200000000  0.4301440000000 1.0
C      1  0.5590360000000  0.4566770000000  0.5408830000000 1.0
C      1  0.5723760000000  0.5344540000000  0.4841010000000 1.0
C      1  0.4513430000000  0.5336100000000  0.4521880000000 1.0
C      1  0.4826200000000  0.5326960000000  0.5648410000000 1.0
C      1  0.5727470000000  0.4639410000000  0.5156720000000 1.0
C      1  0.4540640000000  0.4657200000000  0.5467410000000 1.0
C      1  0.4824110000000  0.4679320000000  0.4378680000000 1.0
C      1  0.4949270000000  0.4485980000000  0.4955270000000 1.0
C      1  0.4968110000000  0.5628210000000  0.5029220000000 1.0
END
