TITL C-2441166-8118-723 0.00598235379813548 125000 -14780.701354546 0 0 100 (C1) n - 1
REM
REM in /home/bkarasulu/work/CARBON/AIRSS/Generating-Clusters/ReaxFF-fromJPCA2015/Units_Real/with-SteepDescent/Higher-Symm
REM
REM
REM
REM
REM
REM ./C.cell (1df0a924f5614ab8850e4351716899ee)
REM
REM compiler GCC version 9.2.1 20190827 (Red Hat 9.2.1-1)
REM options -cpp -mtune=generic -march=x86-64 -g -O0 -fpre-include=/usr/include/finclude/math-vector-fortran.h
REM seed 252312156 -83044233 83039952 -742258486 442755891 1543927714 614819767 -722110508 -1603362678 1569560065 725674145 -798543581 -1525038087 -785817054 -406788038 689615985 1770175587 -1486352557 -313903992 -434108866 -557870637 -966530338 793528540 77905151 1798428474 1817064176 523607972 1757098767 -529723845 -748726802 -957764128 1281039116 -1275258318
REM
CELL 1.54180   50.00000   50.00000   50.00000   90.00000   90.00000   90.00000
LATT -1
SFAC C  
C      1  0.5330500000000  0.4907860000000  0.5814510000000 1.0
C      1  0.5751020000000  0.4902590000000  0.5464510000000 1.0
C      1  0.5869900000000  0.4903930000000  0.4931690000000 1.0
C      1  0.5654000000000  0.4912470000000  0.4442380000000 1.0
C      1  0.5207530000000  0.4900750000000  0.4146060000000 1.0
C      1  0.4659850000000  0.4894830000000  0.4194280000000 1.0
C      1  0.4271560000000  0.4909270000000  0.4539980000000 1.0
C      1  0.4139950000000  0.4908980000000  0.5063320000000 1.0
C      1  0.4339640000000  0.4909990000000  0.5554390000000 1.0
C      1  0.4785780000000  0.4906160000000  0.5852260000000 1.0
C      1  0.5123970000000  0.4827090000000  0.4597580000000 1.0
C      1  0.4837570000000  0.4845340000000  0.4618240000000 1.0
C      1  0.4682730000000  0.4705340000000  0.4803200000000 1.0
C      1  0.4561440000000  0.4872090000000  0.4997690000000 1.0
C      1  0.4708420000000  0.4836650000000  0.5202780000000 1.0
C      1  0.4847650000000  0.4806400000000  0.5395770000000 1.0
C      1  0.5120170000000  0.4884360000000  0.5429600000000 1.0
C      1  0.5348200000000  0.4873850000000  0.5272720000000 1.0
C      1  0.5426590000000  0.4832500000000  0.4998170000000 1.0
C      1  0.5273510000000  0.4811770000000  0.4797720000000 1.0
C      1  0.4634650000000  0.5277780000000  0.5222690000000 1.0
C      1  0.4803340000000  0.5174120000000  0.5418840000000 1.0
C      1  0.5089610000000  0.5185450000000  0.5447990000000 1.0
C      1  0.5359690000000  0.5177490000000  0.5281810000000 1.0
C      1  0.5469860000000  0.5165090000000  0.5012690000000 1.0
C      1  0.5363760000000  0.5274760000000  0.4772990000000 1.0
C      1  0.5171820000000  0.5158300000000  0.4584160000000 1.0
C      1  0.4866180000000  0.5136090000000  0.4576080000000 1.0
C      1  0.4687800000000  0.5279720000000  0.4727980000000 1.0
C      1  0.4551570000000  0.5183480000000  0.4959670000000 1.0
C      1  0.5550570000000  0.5271220000000  0.5502410000000 1.0
C      1  0.5750650000000  0.5271960000000  0.5096800000000 1.0
C      1  0.5630490000000  0.5297830000000  0.4662220000000 1.0
C      1  0.5296970000000  0.5274430000000  0.4332010000000 1.0
C      1  0.4858260000000  0.5254040000000  0.4253360000000 1.0
C      1  0.4515010000000  0.5311890000000  0.4499740000000 1.0
C      1  0.4251750000000  0.5274320000000  0.4887090000000 1.0
C      1  0.4363580000000  0.5306350000000  0.5328530000000 1.0
C      1  0.4680090000000  0.5268340000000  0.5673340000000 1.0
C      1  0.5135460000000  0.5280200000000  0.5742060000000 1.0
C      1  0.5488450000000  0.5571070000000  0.5503010000000 1.0
C      1  0.5760100000000  0.5555240000000  0.5168830000000 1.0
C      1  0.5616190000000  0.5593330000000  0.4710160000000 1.0
C      1  0.5317190000000  0.5573820000000  0.4340280000000 1.0
C      1  0.4935370000000  0.5519860000000  0.4218820000000 1.0
C      1  0.4574520000000  0.5604350000000  0.4513160000000 1.0
C      1  0.4227200000000  0.5554470000000  0.4826610000000 1.0
C      1  0.4387820000000  0.5598720000000  0.5277000000000 1.0
C      1  0.4624270000000  0.5552150000000  0.5668200000000 1.0
C      1  0.5061910000000  0.5573130000000  0.5740950000000 1.0
C      1  0.5260860000000  0.4351230000000  0.4594450000000 1.0
C      1  0.4977440000000  0.4339620000000  0.4504220000000 1.0
C      1  0.4703500000000  0.4322780000000  0.4597470000000 1.0
C      1  0.4584520000000  0.4422790000000  0.4860400000000 1.0
C      1  0.4562940000000  0.4361160000000  0.5178060000000 1.0
C      1  0.4739000000000  0.4353070000000  0.5403320000000 1.0
C      1  0.5028600000000  0.4356950000000  0.5477570000000 1.0
C      1  0.5299710000000  0.4359350000000  0.5367720000000 1.0
C      1  0.5458960000000  0.4356120000000  0.5119500000000 1.0
C      1  0.5442250000000  0.4353890000000  0.4825190000000 1.0
C      1  0.5684530000000  0.4490050000000  0.4728350000000 1.0
C      1  0.5397940000000  0.4489800000000  0.4377060000000 1.0
C      1  0.4956670000000  0.4485200000000  0.4249770000000 1.0
C      1  0.4527960000000  0.4470580000000  0.4420610000000 1.0
C      1  0.4283140000000  0.4498900000000  0.4806620000000 1.0
C      1  0.4321660000000  0.4486760000000  0.5265560000000 1.0
C      1  0.4598670000000  0.4490860000000  0.5628960000000 1.0
C      1  0.5044800000000  0.4491200000000  0.5736880000000 1.0
C      1  0.5468460000000  0.4492330000000  0.5569420000000 1.0
C      1  0.5712550000000  0.4488470000000  0.5183860000000 1.0
C      1  0.5307360000000  0.4618120000000  0.5778470000000 1.0
C      1  0.5706990000000  0.4613040000000  0.5448640000000 1.0
C      1  0.5833890000000  0.4613110000000  0.4946310000000 1.0
C      1  0.5641770000000  0.4621720000000  0.4469600000000 1.0
C      1  0.5210980000000  0.4610930000000  0.4184730000000 1.0
C      1  0.4689280000000  0.4604870000000  0.4217930000000 1.0
C      1  0.4296900000000  0.4614810000000  0.4545770000000 1.0
C      1  0.4169600000000  0.4616100000000  0.5043590000000 1.0
C      1  0.4357870000000  0.4619610000000  0.5529160000000 1.0
C      1  0.4789490000000  0.4615430000000  0.5812910000000 1.0
C      1  0.4833300000000  0.5724520000000  0.5618620000000 1.0
C      1  0.5233900000000  0.5668000000000  0.5551280000000 1.0
C      1  0.5518390000000  0.5716400000000  0.5250260000000 1.0
C      1  0.5637110000000  0.5725720000000  0.4977870000000 1.0
C      1  0.5377790000000  0.5715740000000  0.4593910000000 1.0
C      1  0.5129290000000  0.5781500000000  0.4452630000000 1.0
C      1  0.4840050000000  0.5706110000000  0.4399920000000 1.0
C      1  0.4448070000000  0.5722590000000  0.4746540000000 1.0
C      1  0.4351120000000  0.5710420000000  0.5013920000000 1.0
C      1  0.4599910000000  0.5710120000000  0.5440270000000 1.0
C      1  0.4222930000000  0.5049580000000  0.5321980000000 1.0
C      1  0.4538820000000  0.5025820000000  0.5748280000000 1.0
C      1  0.5069170000000  0.5033860000000  0.5874790000000 1.0
C      1  0.5569240000000  0.5034290000000  0.5661860000000 1.0
C      1  0.5855440000000  0.5024950000000  0.5202120000000 1.0
C      1  0.5778740000000  0.5044860000000  0.4670710000000 1.0
C      1  0.5445460000000  0.5037800000000  0.4257240000000 1.0
C      1  0.4923490000000  0.5007110000000  0.4120220000000 1.0
C      1  0.4457400000000  0.5054190000000  0.4368960000000 1.0
C      1  0.4147980000000  0.5026380000000  0.4790250000000 1.0
END
