TITL C-2441158-471-592 0.101139406688042 125000 -18643.3000295468 0 0 144 (C1) n - 1
REM
REM in /home/bkarasulu/work/CARBON/AIRSS/Generating-Clusters/ReaxFF-fromJPCA2015/Units_Real/with-SteepDescent/Higher-Symm
REM
REM
REM
REM
REM
REM ./C.cell (1df0a924f5614ab8850e4351716899ee)
REM
REM compiler GCC version 9.2.1 20190827 (Red Hat 9.2.1-1)
REM options -cpp -mtune=generic -march=x86-64 -g -O0 -fpre-include=/usr/include/finclude/math-vector-fortran.h
REM seed 1566890894 261282138 -402747747 -506530104 891949276 51437892 235375579 2017474635 776014267 114607566 505811450 -531008304 763779618 -337886857 -802462647 1852940523 -1541314926 1516816889 -1388277021 292420467 1394596170 84408499 1090217602 -1152741553 1728493253 961837037 287360057 890564739 -1218445978 -504917415 -1739226777 -1910324421 989069652
REM
CELL 1.54180   50.00000   50.00000   50.00000   90.00000   90.00000   90.00000
LATT -1
SFAC C  
C      1  0.5059010000000  0.5357830000000  0.5601830000000 1.0
C      1  0.4928840000000  0.4797800000000  0.5644480000000 1.0
C      1  0.5068960000000  0.4401180000000  0.5353830000000 1.0
C      1  0.4920870000000  0.4360580000000  0.4802020000000 1.0
C      1  0.5063160000000  0.4645390000000  0.4397320000000 1.0
C      1  0.4909970000000  0.5191310000000  0.4343100000000 1.0
C      1  0.5063650000000  0.5618390000000  0.4666530000000 1.0
C      1  0.4918290000000  0.5645920000000  0.5202150000000 1.0
C      1  0.4106710000000  0.4819090000000  0.4819800000000 1.0
C      1  0.5910820000000  0.5000010000000  0.4772820000000 1.0
C      1  0.4078890000000  0.5229390000000  0.4858130000000 1.0
C      1  0.5915230000000  0.5232990000000  0.4983250000000 1.0
C      1  0.4095780000000  0.5167380000000  0.5184390000000 1.0
C      1  0.5897020000000  0.4993650000000  0.5272620000000 1.0
C      1  0.4107280000000  0.4792560000000  0.5134060000000 1.0
C      1  0.5918930000000  0.4764600000000  0.5024710000000 1.0
C      1  0.4682230000000  0.5532110000000  0.5066840000000 1.0
C      1  0.5287150000000  0.5379070000000  0.5436330000000 1.0
C      1  0.4684320000000  0.4922960000000  0.5528330000000 1.0
C      1  0.5297580000000  0.4559630000000  0.5368880000000 1.0
C      1  0.4680870000000  0.4476970000000  0.4928570000000 1.0
C      1  0.5290710000000  0.4631140000000  0.4560630000000 1.0
C      1  0.4696210000000  0.5051520000000  0.4443380000000 1.0
C      1  0.5309650000000  0.5468020000000  0.4660990000000 1.0
C      1  0.4202680000000  0.4812970000000  0.5651160000000 1.0
C      1  0.5813070000000  0.4404900000000  0.5346200000000 1.0
C      1  0.4205100000000  0.4325430000000  0.4813270000000 1.0
C      1  0.5793490000000  0.4638280000000  0.4436330000000 1.0
C      1  0.4199690000000  0.5177220000000  0.4347950000000 1.0
C      1  0.5813410000000  0.5569410000000  0.4637510000000 1.0
C      1  0.4199980000000  0.5666080000000  0.5185060000000 1.0
C      1  0.5785480000000  0.5379260000000  0.5561050000000 1.0
C      1  0.4960970000000  0.5260970000000  0.4845070000000 1.0
C      1  0.5118370000000  0.5291140000000  0.5077910000000 1.0
C      1  0.4950320000000  0.5135370000000  0.5256050000000 1.0
C      1  0.5120430000000  0.4918240000000  0.5293650000000 1.0
C      1  0.4934690000000  0.4751910000000  0.5151080000000 1.0
C      1  0.5097590000000  0.4716480000000  0.4916710000000 1.0
C      1  0.4950350000000  0.4880710000000  0.4732210000000 1.0
C      1  0.5131330000000  0.5093640000000  0.4688980000000 1.0
C      1  0.5735650000000  0.5594050000000  0.5105890000000 1.0
C      1  0.4345750000000  0.5451490000000  0.5554840000000 1.0
C      1  0.5652290000000  0.4921690000000  0.5656460000000 1.0
C      1  0.4344870000000  0.4445240000000  0.5451810000000 1.0
C      1  0.5749430000000  0.4399440000000  0.4886250000000 1.0
C      1  0.4346740000000  0.4544160000000  0.4438550000000 1.0
C      1  0.5727940000000  0.5089780000000  0.4407030000000 1.0
C      1  0.4347800000000  0.5558670000000  0.4547760000000 1.0
C      1  0.5073870000000  0.5648610000000  0.4371410000000 1.0
C      1  0.4880960000000  0.5907380000000  0.5085440000000 1.0
C      1  0.5071540000000  0.5655690000000  0.5643130000000 1.0
C      1  0.4913690000000  0.4926740000000  0.5902830000000 1.0
C      1  0.5082320000000  0.4363320000000  0.5653740000000 1.0
C      1  0.4884800000000  0.4099280000000  0.4915480000000 1.0
C      1  0.5071700000000  0.4351960000000  0.4356100000000 1.0
C      1  0.4878850000000  0.5074470000000  0.4078710000000 1.0
C      1  0.4525680000000  0.4863970000000  0.5279940000000 1.0
C      1  0.5412330000000  0.4796700000000  0.4950650000000 1.0
C      1  0.4553380000000  0.4738000000000  0.4853380000000 1.0
C      1  0.5400960000000  0.5047570000000  0.4800550000000 1.0
C      1  0.4521640000000  0.5140990000000  0.4812630000000 1.0
C      1  0.5399960000000  0.5196010000000  0.5043870000000 1.0
C      1  0.4555120000000  0.5239380000000  0.5095630000000 1.0
C      1  0.5403970000000  0.4951940000000  0.5193960000000 1.0
C      1  0.5252700000000  0.5837100000000  0.5473400000000 1.0
C      1  0.4716800000000  0.5201640000000  0.5897600000000 1.0
C      1  0.5280930000000  0.4530580000000  0.5820540000000 1.0
C      1  0.4717850000000  0.4097040000000  0.5194540000000 1.0
C      1  0.5255800000000  0.4166500000000  0.4523370000000 1.0
C      1  0.4710540000000  0.4807120000000  0.4084090000000 1.0
C      1  0.5258510000000  0.5414570000000  0.4218860000000 1.0
C      1  0.4715070000000  0.5911220000000  0.4810110000000 1.0
C      1  0.5550910000000  0.5409010000000  0.4240780000000 1.0
C      1  0.4428280000000  0.5786040000000  0.4733340000000 1.0
C      1  0.5519260000000  0.5752510000000  0.5426630000000 1.0
C      1  0.4432620000000  0.5264230000000  0.5781490000000 1.0
C      1  0.5560160000000  0.4619530000000  0.5755270000000 1.0
C      1  0.4432570000000  0.4216430000000  0.5266140000000 1.0
C      1  0.5519410000000  0.4258090000000  0.4567410000000 1.0
C      1  0.4425900000000  0.4732200000000  0.4214680000000 1.0
C      1  0.4787290000000  0.5684990000000  0.5689410000000 1.0
C      1  0.5241280000000  0.5019650000000  0.5954200000000 1.0
C      1  0.4795600000000  0.4317690000000  0.5679730000000 1.0
C      1  0.5276360000000  0.4023080000000  0.5001090000000 1.0
C      1  0.4786900000000  0.4323780000000  0.4308890000000 1.0
C      1  0.5271840000000  0.4979730000000  0.4013690000000 1.0
C      1  0.4790640000000  0.5687550000000  0.4329930000000 1.0
C      1  0.5273210000000  0.5980150000000  0.4998060000000 1.0
C      1  0.5529090000000  0.5657210000000  0.4661510000000 1.0
C      1  0.4487510000000  0.5721190000000  0.5230250000000 1.0
C      1  0.5501270000000  0.5351560000000  0.5630350000000 1.0
C      1  0.4487250000000  0.4767960000000  0.5726520000000 1.0
C      1  0.5508250000000  0.4354450000000  0.5324660000000 1.0
C      1  0.4493420000000  0.4272660000000  0.4770890000000 1.0
C      1  0.5509040000000  0.4667170000000  0.4363840000000 1.0
C      1  0.4494920000000  0.5218730000000  0.4301450000000 1.0
C      1  0.4547940000000  0.4340850000000  0.4496450000000 1.0
C      1  0.5402770000000  0.4823970000000  0.4155400000000 1.0
C      1  0.4549040000000  0.5501770000000  0.4351240000000 1.0
C      1  0.5401490000000  0.5840400000000  0.4833470000000 1.0
C      1  0.4543380000000  0.5658570000000  0.5505630000000 1.0
C      1  0.5459170000000  0.5111820000000  0.5797670000000 1.0
C      1  0.4547130000000  0.4496540000000  0.5659080000000 1.0
C      1  0.5400410000000  0.4160490000000  0.5158530000000 1.0
C      1  0.5950640000000  0.4473800000000  0.5094770000000 1.0
C      1  0.4144600000000  0.4580020000000  0.4660250000000 1.0
C      1  0.5928870000000  0.4891480000000  0.4482170000000 1.0
C      1  0.4133580000000  0.5342930000000  0.4591350000000 1.0
C      1  0.5940180000000  0.5520580000000  0.4894600000000 1.0
C      1  0.4134360000000  0.5414960000000  0.5342590000000 1.0
C      1  0.5905130000000  0.5115870000000  0.5538690000000 1.0
C      1  0.4145390000000  0.4657490000000  0.5398030000000 1.0
C      1  0.4234730000000  0.4279540000000  0.5088360000000 1.0
C      1  0.5771810000000  0.4382930000000  0.4590590000000 1.0
C      1  0.4225170000000  0.4906980000000  0.4284390000000 1.0
C      1  0.5785110000000  0.5396820000000  0.4392810000000 1.0
C      1  0.4230500000000  0.5719870000000  0.4910940000000 1.0
C      1  0.5770990000000  0.5634590000000  0.5396180000000 1.0
C      1  0.4232930000000  0.5086190000000  0.5713900000000 1.0
C      1  0.5769840000000  0.4529580000000  0.5593750000000 1.0
C      1  0.5179290000000  0.5224150000000  0.4442550000000 1.0
C      1  0.4817630000000  0.5501720000000  0.4788580000000 1.0
C      1  0.5184030000000  0.5532690000000  0.5214080000000 1.0
C      1  0.4824070000000  0.5219510000000  0.5496070000000 1.0
C      1  0.5186470000000  0.4774680000000  0.5518890000000 1.0
C      1  0.4824770000000  0.4500820000000  0.5224550000000 1.0
C      1  0.5185420000000  0.4474250000000  0.4780530000000 1.0
C      1  0.4816320000000  0.4787430000000  0.4497550000000 1.0
C      1  0.4785970000000  0.5474760000000  0.5883640000000 1.0
C      1  0.5155010000000  0.4750930000000  0.5985360000000 1.0
C      1  0.4792310000000  0.4125250000000  0.5467320000000 1.0
C      1  0.5122540000000  0.4007310000000  0.4770080000000 1.0
C      1  0.4784990000000  0.4537690000000  0.4117250000000 1.0
C      1  0.5124140000000  0.5209100000000  0.3999760000000 1.0
C      1  0.4782390000000  0.5889560000000  0.4535940000000 1.0
C      1  0.5118780000000  0.6002330000000  0.5227910000000 1.0
C      1  0.4367820000000  0.5093980000000  0.5272440000000 1.0
C      1  0.5641920000000  0.4871840000000  0.5354180000000 1.0
C      1  0.4390900000000  0.4707500000000  0.5089900000000 1.0
C      1  0.5668980000000  0.4683110000000  0.4882850000000 1.0
C      1  0.4369760000000  0.4915210000000  0.4723250000000 1.0
C      1  0.5654500000000  0.5109470000000  0.4684850000000 1.0
C      1  0.4343910000000  0.5328540000000  0.4922240000000 1.0
C      1  0.5661380000000  0.5310770000000  0.5115460000000 1.0
END
