TITL C-2441160-1326-1433 0.185601097527049 125000 -24212.0460899655 0 0 193 (C1) n - 1
REM
REM in /home/bkarasulu/work/CARBON/AIRSS/Generating-Clusters/ReaxFF-fromJPCA2015/Units_Real/with-SteepDescent/Higher-Symm
REM
REM
REM
REM
REM
REM ./C.cell (1df0a924f5614ab8850e4351716899ee)
REM
REM compiler GCC version 9.2.1 20190827 (Red Hat 9.2.1-1)
REM options -cpp -mtune=generic -march=x86-64 -g -O0 -fpre-include=/usr/include/finclude/math-vector-fortran.h
REM seed 1408927414 282443784 -1202357312 798113692 -1511596942 -1116968400 -1090479737 -241802965 1744114912 -506729438 -67971506 1474147883 628049037 1846049456 711344028 -1208384524 903164136 -1835613480 1005590902 -50949557 2126176708 2054719037 136893807 -996906515 257273348 -1666187908 -587838579 1511958080 -54615469 -1065113361 -1715279173 482675179 490549742
REM
CELL 1.54180   50.00000   50.00000   50.00000   90.00000   90.00000   90.00000
LATT -1
SFAC C  
C      1  0.4286430000000  0.4811270000000  0.4226760000000 1.0
C      1  0.5704540000000  0.5180180000000  0.5774800000000 1.0
C      1  0.5687230000000  0.4062110000000  0.4839210000000 1.0
C      1  0.4304190000000  0.5950290000000  0.5153940000000 1.0
C      1  0.4199940000000  0.4874460000000  0.4978860000000 1.0
C      1  0.5828320000000  0.5146650000000  0.5059440000000 1.0
C      1  0.4358860000000  0.5693530000000  0.4424670000000 1.0
C      1  0.5639440000000  0.4308750000000  0.5585000000000 1.0
C      1  0.4145390000000  0.5742340000000  0.5020930000000 1.0
C      1  0.5850200000000  0.4260180000000  0.4977620000000 1.0
C      1  0.5176920000000  0.5232160000000  0.4766810000000 1.0
C      1  0.4834470000000  0.4777370000000  0.5257710000000 1.0
C      1  0.4387760000000  0.4720290000000  0.5103570000000 1.0
C      1  0.5666520000000  0.5343370000000  0.4937470000000 1.0
C      1  0.4151850000000  0.4313070000000  0.5079270000000 1.0
C      1  0.5781360000000  0.5612550000000  0.4870760000000 1.0
C      1  0.5201720000000  0.4458110000000  0.5933980000000 1.0
C      1  0.4794180000000  0.5509540000000  0.4093530000000 1.0
C      1  0.4604580000000  0.4040010000000  0.4416920000000 1.0
C      1  0.5357810000000  0.5966460000000  0.5600620000000 1.0
C      1  0.5269740000000  0.4991490000000  0.3927460000000 1.0
C      1  0.4723670000000  0.4991950000000  0.6073480000000 1.0
C      1  0.5585740000000  0.4721520000000  0.4760110000000 1.0
C      1  0.4403020000000  0.5316330000000  0.5251700000000 1.0
C      1  0.4774080000000  0.4615700000000  0.5812140000000 1.0
C      1  0.5252080000000  0.5408960000000  0.4192980000000 1.0
C      1  0.5442280000000  0.5302670000000  0.5446910000000 1.0
C      1  0.4539350000000  0.4659240000000  0.4574830000000 1.0
C      1  0.5184040000000  0.6078080000000  0.5388140000000 1.0
C      1  0.4794680000000  0.3932470000000  0.4613130000000 1.0
C      1  0.4574840000000  0.6011840000000  0.5077000000000 1.0
C      1  0.5421130000000  0.4007980000000  0.4919760000000 1.0
C      1  0.5398320000000  0.5530130000000  0.4572780000000 1.0
C      1  0.4621820000000  0.4479860000000  0.5437580000000 1.0
C      1  0.4966750000000  0.5845790000000  0.5717390000000 1.0
C      1  0.5012360000000  0.4166570000000  0.4282710000000 1.0
C      1  0.4464030000000  0.5383330000000  0.5852930000000 1.0
C      1  0.5531150000000  0.4642060000000  0.4140580000000 1.0
C      1  0.4542540000000  0.4749340000000  0.5348830000000 1.0
C      1  0.5472450000000  0.5264620000000  0.4679220000000 1.0
C      1  0.4472730000000  0.4335250000000  0.4199180000000 1.0
C      1  0.5481270000000  0.5585660000000  0.5890000000000 1.0
C      1  0.5051990000000  0.5500670000000  0.4733350000000 1.0
C      1  0.4952400000000  0.4507150000000  0.5286970000000 1.0
C      1  0.5277500000000  0.5914870000000  0.4341850000000 1.0
C      1  0.4693780000000  0.4119510000000  0.5659310000000 1.0
C      1  0.3941560000000  0.5030340000000  0.4608050000000 1.0
C      1  0.6096460000000  0.4966570000000  0.5378920000000 1.0
C      1  0.5537300000000  0.5420770000000  0.5180170000000 1.0
C      1  0.4468330000000  0.4573810000000  0.4877670000000 1.0
C      1  0.5066800000000  0.4070490000000  0.4556190000000 1.0
C      1  0.4918840000000  0.5942760000000  0.5443430000000 1.0
C      1  0.4698120000000  0.4916610000000  0.4515550000000 1.0
C      1  0.5255850000000  0.4938070000000  0.5400850000000 1.0
C      1  0.4018810000000  0.5513850000000  0.5129190000000 1.0
C      1  0.5976480000000  0.4488150000000  0.4868130000000 1.0
C      1  0.4945920000000  0.4142450000000  0.5710300000000 1.0
C      1  0.5039060000000  0.5848070000000  0.4270110000000 1.0
C      1  0.4400390000000  0.4306520000000  0.5392730000000 1.0
C      1  0.5628370000000  0.5678180000000  0.4492710000000 1.0
C      1  0.4731540000000  0.5299810000000  0.4280440000000 1.0
C      1  0.5278930000000  0.4674280000000  0.5746640000000 1.0
C      1  0.5684810000000  0.4125940000000  0.5361020000000 1.0
C      1  0.4308840000000  0.5880930000000  0.4633590000000 1.0
C      1  0.5496620000000  0.5174770000000  0.5980810000000 1.0
C      1  0.4508080000000  0.4839510000000  0.4029990000000 1.0
C      1  0.5352730000000  0.4248030000000  0.5571070000000 1.0
C      1  0.4655760000000  0.5710220000000  0.4460770000000 1.0
C      1  0.5238160000000  0.4358580000000  0.4235640000000 1.0
C      1  0.4754100000000  0.5647340000000  0.5764600000000 1.0
C      1  0.4674000000000  0.4291910000000  0.4702730000000 1.0
C      1  0.5303140000000  0.5706570000000  0.5313660000000 1.0
C      1  0.3876940000000  0.5109130000000  0.4888300000000 1.0
C      1  0.6124800000000  0.4878080000000  0.5098620000000 1.0
C      1  0.4950830000000  0.4548820000000  0.6035930000000 1.0
C      1  0.5055800000000  0.5453420000000  0.3987840000000 1.0
C      1  0.5231420000000  0.5718960000000  0.5751870000000 1.0
C      1  0.4787940000000  0.4355050000000  0.4239660000000 1.0
C      1  0.4988260000000  0.4808880000000  0.4562240000000 1.0
C      1  0.4981620000000  0.5294220000000  0.5420040000000 1.0
C      1  0.5607470000000  0.4283290000000  0.4500520000000 1.0
C      1  0.4382840000000  0.5738640000000  0.5502640000000 1.0
C      1  0.5471280000000  0.4499740000000  0.4644850000000 1.0
C      1  0.4514230000000  0.5535730000000  0.5344780000000 1.0
C      1  0.4053040000000  0.5345770000000  0.4900370000000 1.0
C      1  0.5939930000000  0.4653200000000  0.5098800000000 1.0
C      1  0.4999660000000  0.6027120000000  0.4701170000000 1.0
C      1  0.4996560000000  0.3972710000000  0.5300850000000 1.0
C      1  0.4799040000000  0.4809650000000  0.4094610000000 1.0
C      1  0.5195660000000  0.5183290000000  0.5900970000000 1.0
C      1  0.5431440000000  0.6038500000000  0.4864010000000 1.0
C      1  0.4581590000000  0.3947950000000  0.5146430000000 1.0
C      1  0.5991080000000  0.5525240000000  0.5375300000000 1.0
C      1  0.3988600000000  0.4507960000000  0.4655390000000 1.0
C      1  0.4752790000000  0.4474110000000  0.4503930000000 1.0
C      1  0.5223100000000  0.5485560000000  0.5498960000000 1.0
C      1  0.5043370000000  0.5980640000000  0.4978920000000 1.0
C      1  0.4966400000000  0.4022820000000  0.5023190000000 1.0
C      1  0.4788330000000  0.4881740000000  0.5685900000000 1.0
C      1  0.5234050000000  0.5145350000000  0.4317880000000 1.0
C      1  0.4142690000000  0.4442670000000  0.5364600000000 1.0
C      1  0.5875720000000  0.5554840000000  0.4587720000000 1.0
C      1  0.5990330000000  0.5234120000000  0.5317030000000 1.0
C      1  0.4029130000000  0.4763450000000  0.4534180000000 1.0
C      1  0.6050990000000  0.5048500000000  0.4874160000000 1.0
C      1  0.3958730000000  0.4947850000000  0.5121000000000 1.0
C      1  0.4656420000000  0.4373740000000  0.4969140000000 1.0
C      1  0.5344820000000  0.5612390000000  0.5057020000000 1.0
C      1  0.4926700000000  0.5224280000000  0.6008610000000 1.0
C      1  0.5062690000000  0.4765630000000  0.3969990000000 1.0
C      1  0.4431750000000  0.4200520000000  0.5135610000000 1.0
C      1  0.5544130000000  0.5773790000000  0.4902590000000 1.0
C      1  0.4123490000000  0.5324690000000  0.5318630000000 1.0
C      1  0.5861080000000  0.4685330000000  0.4692430000000 1.0
C      1  0.5548010000000  0.4785860000000  0.5776550000000 1.0
C      1  0.4459990000000  0.5245060000000  0.4227020000000 1.0
C      1  0.4137390000000  0.5532010000000  0.4516920000000 1.0
C      1  0.5865560000000  0.4484480000000  0.5492320000000 1.0
C      1  0.4240240000000  0.4816210000000  0.5802920000000 1.0
C      1  0.5773100000000  0.5162330000000  0.4179010000000 1.0
C      1  0.4535640000000  0.5975030000000  0.4794410000000 1.0
C      1  0.5465680000000  0.4034950000000  0.5198970000000 1.0
C      1  0.4111460000000  0.5045000000000  0.5654520000000 1.0
C      1  0.5893390000000  0.4937890000000  0.4337650000000 1.0
C      1  0.4224220000000  0.4360960000000  0.4801750000000 1.0
C      1  0.5733340000000  0.5652620000000  0.5280600000000 1.0
C      1  0.5662960000000  0.4697110000000  0.5167120000000 1.0
C      1  0.4337470000000  0.5320590000000  0.4819540000000 1.0
C      1  0.5470120000000  0.5053690000000  0.4460070000000 1.0
C      1  0.4553020000000  0.4976260000000  0.5555880000000 1.0
C      1  0.5094830000000  0.4307400000000  0.4730330000000 1.0
C      1  0.4888000000000  0.5708770000000  0.5265700000000 1.0
C      1  0.4436170000000  0.4143050000000  0.4622360000000 1.0
C      1  0.5547400000000  0.5854600000000  0.5393160000000 1.0
C      1  0.5029860000000  0.5682920000000  0.5006370000000 1.0
C      1  0.4956920000000  0.4326400000000  0.5010630000000 1.0
C      1  0.6003920000000  0.4928450000000  0.4614640000000 1.0
C      1  0.3991860000000  0.5075540000000  0.5386430000000 1.0
C      1  0.5383470000000  0.4898840000000  0.4873540000000 1.0
C      1  0.4608700000000  0.5163590000000  0.5134480000000 1.0
C      1  0.5618640000000  0.4827150000000  0.4362200000000 1.0
C      1  0.4376920000000  0.5180060000000  0.5658390000000 1.0
C      1  0.4168360000000  0.4642970000000  0.5571380000000 1.0
C      1  0.5840160000000  0.5342430000000  0.4396560000000 1.0
C      1  0.4321600000000  0.4552540000000  0.4351890000000 1.0
C      1  0.5612070000000  0.5430130000000  0.5667460000000 1.0
C      1  0.5567330000000  0.4880580000000  0.6052320000000 1.0
C      1  0.4448090000000  0.5127670000000  0.3953870000000 1.0
C      1  0.5472110000000  0.4060560000000  0.4639060000000 1.0
C      1  0.4512600000000  0.5961120000000  0.5361840000000 1.0
C      1  0.4614910000000  0.5009840000000  0.4913910000000 1.0
C      1  0.5349680000000  0.5042770000000  0.5139620000000 1.0
C      1  0.5216160000000  0.4631370000000  0.5388280000000 1.0
C      1  0.4788580000000  0.5440750000000  0.4610780000000 1.0
C      1  0.4614040000000  0.4406280000000  0.5715770000000 1.0
C      1  0.5430400000000  0.5629790000000  0.4274170000000 1.0
C      1  0.4738330000000  0.3890750000000  0.4906290000000 1.0
C      1  0.5262110000000  0.6119210000000  0.5106840000000 1.0
C      1  0.5062730000000  0.5087540000000  0.4543200000000 1.0
C      1  0.4976610000000  0.4986440000000  0.5477280000000 1.0
C      1  0.4739990000000  0.5418000000000  0.5939800000000 1.0
C      1  0.5254550000000  0.4585640000000  0.4051700000000 1.0
C      1  0.5032630000000  0.5171660000000  0.3928470000000 1.0
C      1  0.4976180000000  0.4827330000000  0.6102770000000 1.0
C      1  0.5193300000000  0.4219210000000  0.5792350000000 1.0
C      1  0.4793120000000  0.5778210000000  0.4196100000000 1.0
C      1  0.4477730000000  0.4898570000000  0.5963520000000 1.0
C      1  0.5530970000000  0.5050630000000  0.4031480000000 1.0
C      1  0.5894300000000  0.4284430000000  0.5264520000000 1.0
C      1  0.4097120000000  0.5727770000000  0.4736640000000 1.0
C      1  0.4875430000000  0.5080040000000  0.4152630000000 1.0
C      1  0.5157250000000  0.4902490000000  0.5895660000000 1.0
C      1  0.5246870000000  0.4099100000000  0.5362130000000 1.0
C      1  0.4748900000000  0.5921290000000  0.4629870000000 1.0
C      1  0.4078880000000  0.5246320000000  0.4468780000000 1.0
C      1  0.5940590000000  0.4764200000000  0.5530200000000 1.0
C      1  0.4818800000000  0.5322500000000  0.5037990000000 1.0
C      1  0.5237560000000  0.4665730000000  0.4950150000000 1.0
C      1  0.4455250000000  0.5658410000000  0.5768520000000 1.0
C      1  0.5547470000000  0.4361130000000  0.4229800000000 1.0
C      1  0.5633540000000  0.4972240000000  0.5228890000000 1.0
C      1  0.4366390000000  0.5028590000000  0.4771820000000 1.0
C      1  0.5403700000000  0.4560700000000  0.5169360000000 1.0
C      1  0.4610260000000  0.5437760000000  0.4840630000000 1.0
C      1  0.4309510000000  0.5070550000000  0.4403570000000 1.0
C      1  0.5700220000000  0.4947530000000  0.5576890000000 1.0
C      1  0.4728460000000  0.3977170000000  0.5397830000000 1.0
C      1  0.5270110000000  0.6030140000000  0.4616020000000 1.0
C      1  0.4777660000000  0.5506790000000  0.5448330000000 1.0
C      1  0.5194020000000  0.4508770000000  0.4543110000000 1.0
C      1  0.4986270000000  0.4727360000000  0.4838830000000 1.0
C      1  0.5081960000000  0.5272210000000  0.5143740000000 1.0
C      1  0.4815260000000  0.4848460000000  0.4985060000000 1.0
END
