TITL C-2441156-4686-989 0.0447008883724411 125000 -22850.7228521521 0 0 161 (C1) n - 1
REM
REM in /home/bkarasulu/work/CARBON/AIRSS/Generating-Clusters/ReaxFF-fromJPCA2015/Units_Real/with-SteepDescent/Higher-Symm
REM
REM
REM
REM
REM
REM ./C.cell (1df0a924f5614ab8850e4351716899ee)
REM
REM compiler GCC version 9.2.1 20190827 (Red Hat 9.2.1-1)
REM options -cpp -mtune=generic -march=x86-64 -g -O0 -fpre-include=/usr/include/finclude/math-vector-fortran.h
REM seed 696273157 -648342487 -1625403589 -1268011899 -2020390135 84829186 -468422065 -1654218042 -952329000 -1242395737 496715158 -1923165789 -1248855760 -734039870 -518098949 -2011547312 627642131 -1131503571 1575065194 -1476042735 -1547836041 1478582280 -1167292475 1531618098 1524177451 155901118 -552409562 -1897898610 -864865747 -643275808 917223416 -92710422 -686936636
REM
CELL 1.54180   50.00000   50.00000   50.00000   90.00000   90.00000   90.00000
LATT -1
SFAC C  
C      1  0.4611120000000  0.4722110000000  0.4672230000000 1.0
C      1  0.4863150000000  0.4728410000000  0.4526100000000 1.0
C      1  0.5142810000000  0.4735210000000  0.4605770000000 1.0
C      1  0.5358500000000  0.4758230000000  0.4776910000000 1.0
C      1  0.5470150000000  0.4711970000000  0.5063090000000 1.0
C      1  0.5350550000000  0.4729150000000  0.5338590000000 1.0
C      1  0.5126740000000  0.4561910000000  0.5399700000000 1.0
C      1  0.4898630000000  0.4722690000000  0.5409950000000 1.0
C      1  0.4620110000000  0.4737270000000  0.5364390000000 1.0
C      1  0.4499900000000  0.4713070000000  0.5110720000000 1.0
C      1  0.4603280000000  0.4549860000000  0.4896600000000 1.0
C      1  0.5966750000000  0.5373830000000  0.5136790000000 1.0
C      1  0.5742750000000  0.5381640000000  0.5631090000000 1.0
C      1  0.5265450000000  0.5368030000000  0.5951520000000 1.0
C      1  0.4751240000000  0.5397730000000  0.5923820000000 1.0
C      1  0.4274130000000  0.5414350000000  0.5635300000000 1.0
C      1  0.4104000000000  0.5401850000000  0.5108180000000 1.0
C      1  0.4086160000000  0.5353700000000  0.4570700000000 1.0
C      1  0.4477960000000  0.5394110000000  0.4162430000000 1.0
C      1  0.5013140000000  0.5402570000000  0.4076690000000 1.0
C      1  0.5507880000000  0.5489500000000  0.4222860000000 1.0
C      1  0.5879390000000  0.5355140000000  0.4600260000000 1.0
C      1  0.5222870000000  0.4620500000000  0.5957520000000 1.0
C      1  0.4662970000000  0.4622620000000  0.5926190000000 1.0
C      1  0.4248130000000  0.4627620000000  0.5603800000000 1.0
C      1  0.4025380000000  0.4615560000000  0.5096070000000 1.0
C      1  0.4114160000000  0.4601040000000  0.4541610000000 1.0
C      1  0.4510790000000  0.4640860000000  0.4138340000000 1.0
C      1  0.5034830000000  0.4636090000000  0.4012300000000 1.0
C      1  0.5501630000000  0.4596060000000  0.4238070000000 1.0
C      1  0.5935280000000  0.4577480000000  0.4630190000000 1.0
C      1  0.5942670000000  0.4577770000000  0.5166890000000 1.0
C      1  0.5701900000000  0.4613910000000  0.5672370000000 1.0
C      1  0.4986000000000  0.5550170000000  0.5509210000000 1.0
C      1  0.4688270000000  0.5698150000000  0.5463250000000 1.0
C      1  0.4565510000000  0.5578940000000  0.5232920000000 1.0
C      1  0.4368430000000  0.5543310000000  0.4822030000000 1.0
C      1  0.4546700000000  0.5678160000000  0.4600740000000 1.0
C      1  0.4763510000000  0.5535120000000  0.4499110000000 1.0
C      1  0.5097840000000  0.5809180000000  0.4332930000000 1.0
C      1  0.5453610000000  0.5635270000000  0.4675250000000 1.0
C      1  0.5575350000000  0.5703150000000  0.4985910000000 1.0
C      1  0.5469980000000  0.5582720000000  0.5269470000000 1.0
C      1  0.5233810000000  0.5683800000000  0.5412620000000 1.0
C      1  0.4660230000000  0.4406850000000  0.4220610000000 1.0
C      1  0.4941040000000  0.4392080000000  0.4127900000000 1.0
C      1  0.5388360000000  0.4368400000000  0.4360740000000 1.0
C      1  0.5846590000000  0.4340160000000  0.4611100000000 1.0
C      1  0.5803730000000  0.4345430000000  0.5065770000000 1.0
C      1  0.5552840000000  0.4369060000000  0.5674260000000 1.0
C      1  0.5300530000000  0.4379520000000  0.5829610000000 1.0
C      1  0.4634250000000  0.4386030000000  0.5766610000000 1.0
C      1  0.4408830000000  0.4390650000000  0.5592950000000 1.0
C      1  0.4144860000000  0.4390850000000  0.5119290000000 1.0
C      1  0.4261490000000  0.4433670000000  0.4669490000000 1.0
C      1  0.5215180000000  0.5650210000000  0.5882930000000 1.0
C      1  0.4922580000000  0.5600950000000  0.5794700000000 1.0
C      1  0.4423960000000  0.5661010000000  0.5635080000000 1.0
C      1  0.4323290000000  0.5662600000000  0.5090780000000 1.0
C      1  0.4117230000000  0.5634750000000  0.4663570000000 1.0
C      1  0.4417620000000  0.5636780000000  0.4288120000000 1.0
C      1  0.4898710000000  0.5606120000000  0.4258670000000 1.0
C      1  0.5364900000000  0.5743870000000  0.4201450000000 1.0
C      1  0.5666340000000  0.5515320000000  0.4492880000000 1.0
C      1  0.5826640000000  0.5582960000000  0.5025040000000 1.0
C      1  0.5690760000000  0.5631210000000  0.5478770000000 1.0
C      1  0.4278990000000  0.4148240000000  0.5153080000000 1.0
C      1  0.4496100000000  0.4318000000000  0.4722740000000 1.0
C      1  0.4618660000000  0.4262640000000  0.4458570000000 1.0
C      1  0.5128930000000  0.4246390000000  0.4299160000000 1.0
C      1  0.5449200000000  0.4315650000000  0.4653640000000 1.0
C      1  0.5702830000000  0.4224760000000  0.4784880000000 1.0
C      1  0.5540980000000  0.4407830000000  0.5162750000000 1.0
C      1  0.5524610000000  0.4251140000000  0.5405460000000 1.0
C      1  0.5109450000000  0.4315540000000  0.5595090000000 1.0
C      1  0.4846880000000  0.4226060000000  0.5673960000000 1.0
C      1  0.4432670000000  0.4199790000000  0.5388020000000 1.0
C      1  0.5310250000000  0.4735970000000  0.4078880000000 1.0
C      1  0.5797630000000  0.4663310000000  0.4386400000000 1.0
C      1  0.5985150000000  0.4696710000000  0.4903790000000 1.0
C      1  0.5862820000000  0.4701530000000  0.5447140000000 1.0
C      1  0.5485030000000  0.4751820000000  0.5885770000000 1.0
C      1  0.4936620000000  0.4701990000000  0.6024510000000 1.0
C      1  0.4403710000000  0.4753240000000  0.5828920000000 1.0
C      1  0.4089680000000  0.4731110000000  0.5373290000000 1.0
C      1  0.4010240000000  0.4721720000000  0.4788220000000 1.0
C      1  0.4265900000000  0.4724900000000  0.4279870000000 1.0
C      1  0.4755130000000  0.4736120000000  0.3985500000000 1.0
C      1  0.5402520000000  0.3976460000000  0.5351850000000 1.0
C      1  0.5143530000000  0.4027740000000  0.5473690000000 1.0
C      1  0.4859090000000  0.4009090000000  0.5490370000000 1.0
C      1  0.4627530000000  0.4010240000000  0.5320980000000 1.0
C      1  0.4505540000000  0.3969770000000  0.5062480000000 1.0
C      1  0.4589180000000  0.4041450000000  0.4803030000000 1.0
C      1  0.4762720000000  0.4050730000000  0.4573310000000 1.0
C      1  0.5048360000000  0.4055830000000  0.4502780000000 1.0
C      1  0.5277060000000  0.4080990000000  0.4682450000000 1.0
C      1  0.5494590000000  0.3941160000000  0.4823390000000 1.0
C      1  0.5448250000000  0.3937440000000  0.5081110000000 1.0
C      1  0.4286460000000  0.4981480000000  0.4265810000000 1.0
C      1  0.4813710000000  0.5008480000000  0.4064400000000 1.0
C      1  0.5381100000000  0.5030180000000  0.4156670000000 1.0
C      1  0.5952590000000  0.4894760000000  0.4384520000000 1.0
C      1  0.5903340000000  0.4975160000000  0.4948390000000 1.0
C      1  0.5779210000000  0.4983500000000  0.5483710000000 1.0
C      1  0.5487860000000  0.5017960000000  0.5885060000000 1.0
C      1  0.4856830000000  0.4984460000000  0.6032630000000 1.0
C      1  0.4376560000000  0.5034140000000  0.5780690000000 1.0
C      1  0.4159260000000  0.5008670000000  0.5292850000000 1.0
C      1  0.4141830000000  0.4979300000000  0.4750030000000 1.0
C      1  0.4600800000000  0.4984260000000  0.5532500000000 1.0
C      1  0.4369680000000  0.4974290000000  0.5100670000000 1.0
C      1  0.4428000000000  0.4944450000000  0.4661030000000 1.0
C      1  0.4896090000000  0.4930330000000  0.4329020000000 1.0
C      1  0.5156250000000  0.4987260000000  0.4433470000000 1.0
C      1  0.5575150000000  0.5052240000000  0.4388600000000 1.0
C      1  0.5496320000000  0.4982660000000  0.4664180000000 1.0
C      1  0.5649900000000  0.4959420000000  0.5079720000000 1.0
C      1  0.5473560000000  0.4955270000000  0.5467770000000 1.0
C      1  0.5038310000000  0.4918680000000  0.5572410000000 1.0
C      1  0.4817110000000  0.4958890000000  0.5738360000000 1.0
C      1  0.5890100000000  0.5250380000000  0.5421150000000 1.0
C      1  0.5528130000000  0.5267710000000  0.5848620000000 1.0
C      1  0.4973200000000  0.5257480000000  0.6032080000000 1.0
C      1  0.4463520000000  0.5298870000000  0.5846610000000 1.0
C      1  0.4125750000000  0.5292720000000  0.5370530000000 1.0
C      1  0.4054310000000  0.5250360000000  0.4849370000000 1.0
C      1  0.4261970000000  0.5243580000000  0.4312750000000 1.0
C      1  0.4752630000000  0.5289870000000  0.4031070000000 1.0
C      1  0.5297420000000  0.5314840000000  0.4104430000000 1.0
C      1  0.5859430000000  0.5163320000000  0.4368480000000 1.0
C      1  0.5989380000000  0.5250190000000  0.4865370000000 1.0
C      1  0.5266780000000  0.5400180000000  0.4714790000000 1.0
C      1  0.5415790000000  0.5196970000000  0.4843540000000 1.0
C      1  0.5496200000000  0.5203100000000  0.5123740000000 1.0
C      1  0.5322920000000  0.5162170000000  0.5352200000000 1.0
C      1  0.5043440000000  0.5202710000000  0.5447510000000 1.0
C      1  0.4762780000000  0.5172820000000  0.5369340000000 1.0
C      1  0.4634970000000  0.5324490000000  0.5169830000000 1.0
C      1  0.4479280000000  0.5210160000000  0.4974990000000 1.0
C      1  0.4605630000000  0.5147110000000  0.4735040000000 1.0
C      1  0.4807460000000  0.5287870000000  0.4585820000000 1.0
C      1  0.5088600000000  0.5243450000000  0.4561990000000 1.0
C      1  0.4869210000000  0.5998820000000  0.4774950000000 1.0
C      1  0.5081270000000  0.5981540000000  0.4571910000000 1.0
C      1  0.5350390000000  0.5928320000000  0.4660660000000 1.0
C      1  0.5479800000000  0.6012180000000  0.4909480000000 1.0
C      1  0.5385450000000  0.6050940000000  0.5158130000000 1.0
C      1  0.5286740000000  0.5992130000000  0.5422380000000 1.0
C      1  0.5015570000000  0.6036490000000  0.5458470000000 1.0
C      1  0.4738610000000  0.6022110000000  0.5454870000000 1.0
C      1  0.4581200000000  0.6023830000000  0.5222400000000 1.0
C      1  0.4436910000000  0.5953730000000  0.5003120000000 1.0
C      1  0.4590560000000  0.5941510000000  0.4754880000000 1.0
C      1  0.4992530000000  0.4258630000000  0.5023510000000 1.0
C      1  0.4998660000000  0.4768700000000  0.5000600000000 1.0
C      1  0.5017330000000  0.5274580000000  0.5014070000000 1.0
C      1  0.5001630000000  0.4501320000000  0.4998170000000 1.0
C      1  0.5007520000000  0.5019420000000  0.5007280000000 1.0
C      1  0.5001030000000  0.5527420000000  0.5004520000000 1.0
C      1  0.4982460000000  0.5810870000000  0.4992580000000 1.0
END
