TITL C-2441154-10-364 0.144579550576767 125000 -24007.3263233539 0 0 187 (C1) n - 1
REM
REM in /home/bkarasulu/work/CARBON/AIRSS/Generating-Clusters/ReaxFF-fromJPCA2015/Units_Real/with-SteepDescent/Higher-Symm
REM
REM
REM
REM
REM
REM ./C.cell (1df0a924f5614ab8850e4351716899ee)
REM
REM compiler GCC version 9.2.1 20190827 (Red Hat 9.2.1-1)
REM options -cpp -mtune=generic -march=x86-64 -g -O0 -fpre-include=/usr/include/finclude/math-vector-fortran.h
REM seed 1762642278 114632550 1401134739 -1238498369 1937308858 1526372853 -442257045 -457393048 -1247519273 846084682 -1328343344 -326951850 928368507 -188406959 -1774401177 -362515036 -101095555 -1559918994 -883203058 1482168508 147344226 1480085987 692681510 -443505584 392551654 -1964408023 899928781 -631845713 1913493959 649662845 1084485612 -1408471215 -1478909703
REM
CELL 1.54180   50.00000   50.00000   50.00000   90.00000   90.00000   90.00000
LATT -1
SFAC C  
C      1  0.4190110000000  0.4289640000000  0.4578830000000 1.0
C      1  0.4535700000000  0.4301510000000  0.4195010000000 1.0
C      1  0.5039020000000  0.4280010000000  0.4094390000000 1.0
C      1  0.5526120000000  0.4296760000000  0.4255340000000 1.0
C      1  0.5848340000000  0.4298880000000  0.4662360000000 1.0
C      1  0.5892660000000  0.4295750000000  0.5181750000000 1.0
C      1  0.5666130000000  0.4287840000000  0.5655610000000 1.0
C      1  0.5213780000000  0.4298100000000  0.5904610000000 1.0
C      1  0.4702690000000  0.4307500000000  0.5864400000000 1.0
C      1  0.4286900000000  0.4305000000000  0.5555470000000 1.0
C      1  0.4065360000000  0.4288100000000  0.5074630000000 1.0
C      1  0.4527140000000  0.5935110000000  0.4672360000000 1.0
C      1  0.4802040000000  0.6013780000000  0.4504420000000 1.0
C      1  0.5071020000000  0.5913330000000  0.4525060000000 1.0
C      1  0.5340410000000  0.6012560000000  0.4633570000000 1.0
C      1  0.5496740000000  0.5944420000000  0.4871950000000 1.0
C      1  0.5503290000000  0.6011140000000  0.5171680000000 1.0
C      1  0.5301050000000  0.5873560000000  0.5372100000000 1.0
C      1  0.5053660000000  0.5937510000000  0.5488700000000 1.0
C      1  0.4778200000000  0.6003330000000  0.5420830000000 1.0
C      1  0.4653640000000  0.5933940000000  0.5174200000000 1.0
C      1  0.4459510000000  0.5980570000000  0.4966310000000 1.0
C      1  0.6159200000000  0.4930870000000  0.4849870000000 1.0
C      1  0.6000630000000  0.4897870000000  0.5522370000000 1.0
C      1  0.5602320000000  0.4923410000000  0.6006420000000 1.0
C      1  0.4962240000000  0.4911500000000  0.6178940000000 1.0
C      1  0.4319400000000  0.4908820000000  0.5956640000000 1.0
C      1  0.3946910000000  0.4911370000000  0.5433870000000 1.0
C      1  0.3873620000000  0.4934040000000  0.4735710000000 1.0
C      1  0.4071010000000  0.4951890000000  0.4237570000000 1.0
C      1  0.4753160000000  0.4935210000000  0.3874350000000 1.0
C      1  0.5294240000000  0.4938750000000  0.3831700000000 1.0
C      1  0.5881480000000  0.4917260000000  0.4277350000000 1.0
C      1  0.5222060000000  0.5427260000000  0.5859090000000 1.0
C      1  0.4713010000000  0.5387540000000  0.5878850000000 1.0
C      1  0.4270600000000  0.5418760000000  0.5627970000000 1.0
C      1  0.4092810000000  0.5432030000000  0.5080010000000 1.0
C      1  0.4246620000000  0.5448650000000  0.4616170000000 1.0
C      1  0.4513610000000  0.5404210000000  0.4207850000000 1.0
C      1  0.4965510000000  0.5431290000000  0.4146360000000 1.0
C      1  0.5512040000000  0.5383810000000  0.4242030000000 1.0
C      1  0.5827210000000  0.5440610000000  0.4647130000000 1.0
C      1  0.5871440000000  0.5380550000000  0.5155160000000 1.0
C      1  0.5672770000000  0.5434280000000  0.5612730000000 1.0
C      1  0.5648820000000  0.5550320000000  0.5114860000000 1.0
C      1  0.5453290000000  0.5688380000000  0.5557900000000 1.0
C      1  0.5051260000000  0.5687520000000  0.5698590000000 1.0
C      1  0.4770130000000  0.5594940000000  0.5674640000000 1.0
C      1  0.4475580000000  0.5686980000000  0.5248470000000 1.0
C      1  0.4341080000000  0.5722950000000  0.4995610000000 1.0
C      1  0.4549410000000  0.5601490000000  0.4631710000000 1.0
C      1  0.4677340000000  0.5613790000000  0.4347550000000 1.0
C      1  0.5138430000000  0.5686290000000  0.4320920000000 1.0
C      1  0.5416990000000  0.5585470000000  0.4452280000000 1.0
C      1  0.5657680000000  0.5683380000000  0.4861450000000 1.0
C      1  0.4832230000000  0.5006830000000  0.5572770000000 1.0
C      1  0.4594170000000  0.5035750000000  0.5395250000000 1.0
C      1  0.4477380000000  0.5080090000000  0.5092930000000 1.0
C      1  0.4432450000000  0.4982930000000  0.4737520000000 1.0
C      1  0.4632190000000  0.5059080000000  0.4556760000000 1.0
C      1  0.5079320000000  0.5018750000000  0.4424650000000 1.0
C      1  0.5360540000000  0.4977780000000  0.4500370000000 1.0
C      1  0.5490540000000  0.5068320000000  0.4765910000000 1.0
C      1  0.5579990000000  0.4980110000000  0.5123090000000 1.0
C      1  0.5431250000000  0.5058030000000  0.5367360000000 1.0
C      1  0.5134870000000  0.4964280000000  0.5600630000000 1.0
C      1  0.5866920000000  0.5390480000000  0.5800850000000 1.0
C      1  0.5292260000000  0.5401680000000  0.6123340000000 1.0
C      1  0.4625660000000  0.5395260000000  0.6139930000000 1.0
C      1  0.4041800000000  0.5332290000000  0.5771140000000 1.0
C      1  0.3828060000000  0.5371690000000  0.5120920000000 1.0
C      1  0.3998340000000  0.5457080000000  0.4489790000000 1.0
C      1  0.4363500000000  0.5336970000000  0.3966570000000 1.0
C      1  0.5012630000000  0.5420750000000  0.3865630000000 1.0
C      1  0.5653930000000  0.5368230000000  0.4000980000000 1.0
C      1  0.6071840000000  0.5401830000000  0.4534750000000 1.0
C      1  0.6146400000000  0.5390210000000  0.5205450000000 1.0
C      1  0.4805080000000  0.4185230000000  0.4229050000000 1.0
C      1  0.5263030000000  0.4179940000000  0.4250770000000 1.0
C      1  0.5623150000000  0.4193210000000  0.4506230000000 1.0
C      1  0.5790760000000  0.4191480000000  0.4930190000000 1.0
C      1  0.5702940000000  0.4196580000000  0.5376320000000 1.0
C      1  0.5392370000000  0.4193690000000  0.5697650000000 1.0
C      1  0.4960300000000  0.4196990000000  0.5794880000000 1.0
C      1  0.4539460000000  0.4198240000000  0.5645230000000 1.0
C      1  0.4255880000000  0.4203680000000  0.5286760000000 1.0
C      1  0.4216640000000  0.4191280000000  0.4844230000000 1.0
C      1  0.4426630000000  0.4203010000000  0.4447780000000 1.0
C      1  0.6098860000000  0.4802310000000  0.5314060000000 1.0
C      1  0.5815060000000  0.4803270000000  0.5880930000000 1.0
C      1  0.5199770000000  0.4790220000000  0.6187220000000 1.0
C      1  0.4534030000000  0.4793360000000  0.6076410000000 1.0
C      1  0.4034660000000  0.4798330000000  0.5661450000000 1.0
C      1  0.3820100000000  0.4803280000000  0.4966260000000 1.0
C      1  0.4061990000000  0.4698180000000  0.4327380000000 1.0
C      1  0.4508810000000  0.4809900000000  0.3934110000000 1.0
C      1  0.5205670000000  0.4677640000000  0.3805500000000 1.0
C      1  0.5725010000000  0.4822980000000  0.4098090000000 1.0
C      1  0.6117150000000  0.4833610000000  0.4602140000000 1.0
C      1  0.4708310000000  0.4602310000000  0.5917560000000 1.0
C      1  0.4300190000000  0.4609350000000  0.5599270000000 1.0
C      1  0.3981060000000  0.4569880000000  0.5064760000000 1.0
C      1  0.4149060000000  0.4574960000000  0.4556890000000 1.0
C      1  0.4507960000000  0.4590320000000  0.4136800000000 1.0
C      1  0.5019540000000  0.4581260000000  0.4062980000000 1.0
C      1  0.5509970000000  0.4604120000000  0.4208230000000 1.0
C      1  0.5864220000000  0.4601540000000  0.4603960000000 1.0
C      1  0.5931860000000  0.4593370000000  0.5148730000000 1.0
C      1  0.5697520000000  0.4574620000000  0.5704940000000 1.0
C      1  0.5223890000000  0.4585370000000  0.5967710000000 1.0
C      1  0.5374720000000  0.5048370000000  0.6090420000000 1.0
C      1  0.4717540000000  0.5048740000000  0.6113540000000 1.0
C      1  0.4106390000000  0.5023800000000  0.5837810000000 1.0
C      1  0.3897100000000  0.5028020000000  0.5187280000000 1.0
C      1  0.3973500000000  0.5095800000000  0.4514120000000 1.0
C      1  0.4326650000000  0.5034420000000  0.4084320000000 1.0
C      1  0.5012080000000  0.5080680000000  0.3861170000000 1.0
C      1  0.5546080000000  0.5042760000000  0.4000240000000 1.0
C      1  0.5967880000000  0.5057030000000  0.4472270000000 1.0
C      1  0.6133760000000  0.5044690000000  0.5120430000000 1.0
C      1  0.5877970000000  0.5038310000000  0.5692900000000 1.0
C      1  0.5579890000000  0.4677700000000  0.4490180000000 1.0
C      1  0.5783510000000  0.4637920000000  0.4884170000000 1.0
C      1  0.5621690000000  0.4709720000000  0.5238660000000 1.0
C      1  0.5521170000000  0.4682790000000  0.5509290000000 1.0
C      1  0.5070100000000  0.4703220000000  0.5750580000000 1.0
C      1  0.4606040000000  0.4682080000000  0.5657990000000 1.0
C      1  0.4371390000000  0.4693270000000  0.5320220000000 1.0
C      1  0.4263110000000  0.4657020000000  0.5063390000000 1.0
C      1  0.4386990000000  0.4719960000000  0.4645920000000 1.0
C      1  0.4760590000000  0.4665970000000  0.4246930000000 1.0
C      1  0.5211850000000  0.4673600000000  0.4265530000000 1.0
C      1  0.4486240000000  0.4094280000000  0.4897110000000 1.0
C      1  0.4622240000000  0.4102970000000  0.4639610000000 1.0
C      1  0.4876180000000  0.4091410000000  0.4500560000000 1.0
C      1  0.5166820000000  0.4088050000000  0.4519350000000 1.0
C      1  0.5403230000000  0.4095100000000  0.4685760000000 1.0
C      1  0.5513150000000  0.4091480000000  0.4956090000000 1.0
C      1  0.5459360000000  0.4094190000000  0.5243980000000 1.0
C      1  0.5256860000000  0.4093970000000  0.5454550000000 1.0
C      1  0.4971280000000  0.4096760000000  0.5515710000000 1.0
C      1  0.4697650000000  0.4097340000000  0.5414790000000 1.0
C      1  0.4514800000000  0.4100900000000  0.5186820000000 1.0
C      1  0.4625090000000  0.5468000000000  0.5245680000000 1.0
C      1  0.4633650000000  0.5315890000000  0.5046460000000 1.0
C      1  0.4717470000000  0.5455410000000  0.4824550000000 1.0
C      1  0.4817170000000  0.5240130000000  0.4668740000000 1.0
C      1  0.5056930000000  0.5267800000000  0.4567020000000 1.0
C      1  0.5245210000000  0.5461530000000  0.4656140000000 1.0
C      1  0.5333520000000  0.5298390000000  0.4867440000000 1.0
C      1  0.5392680000000  0.5443200000000  0.5102920000000 1.0
C      1  0.5274320000000  0.5277100000000  0.5290150000000 1.0
C      1  0.5046110000000  0.5358930000000  0.5357020000000 1.0
C      1  0.4811300000000  0.5445380000000  0.5426280000000 1.0
C      1  0.5545310000000  0.5830940000000  0.5734670000000 1.0
C      1  0.5098320000000  0.5838950000000  0.5921280000000 1.0
C      1  0.4583670000000  0.5871010000000  0.5644920000000 1.0
C      1  0.4316770000000  0.5735120000000  0.5544370000000 1.0
C      1  0.4086330000000  0.5815560000000  0.4977980000000 1.0
C      1  0.4277500000000  0.5891190000000  0.4520850000000 1.0
C      1  0.4704600000000  0.5901590000000  0.4246940000000 1.0
C      1  0.5188100000000  0.5874070000000  0.4121590000000 1.0
C      1  0.5541820000000  0.5884690000000  0.4460630000000 1.0
C      1  0.5897490000000  0.5820560000000  0.4785390000000 1.0
C      1  0.5745580000000  0.5968450000000  0.5278180000000 1.0
C      1  0.5367000000000  0.4595090000000  0.4653570000000 1.0
C      1  0.5495530000000  0.4587130000000  0.4887170000000 1.0
C      1  0.5388190000000  0.4548120000000  0.5134690000000 1.0
C      1  0.5281890000000  0.4580620000000  0.5385450000000 1.0
C      1  0.5040520000000  0.4546800000000  0.5511480000000 1.0
C      1  0.4778070000000  0.4592240000000  0.5449210000000 1.0
C      1  0.4628270000000  0.4625030000000  0.5225500000000 1.0
C      1  0.4535720000000  0.4549490000000  0.4972000000000 1.0
C      1  0.4625710000000  0.4584900000000  0.4713560000000 1.0
C      1  0.4832580000000  0.4606380000000  0.4521410000000 1.0
C      1  0.5118160000000  0.4589740000000  0.4522020000000 1.0
C      1  0.4770190000000  0.5127100000000  0.5826180000000 1.0
C      1  0.4439010000000  0.5208500000000  0.5524740000000 1.0
C      1  0.4195590000000  0.5170990000000  0.5123150000000 1.0
C      1  0.4222070000000  0.5166540000000  0.4673160000000 1.0
C      1  0.4521990000000  0.5130280000000  0.4300870000000 1.0
C      1  0.4973550000000  0.5134480000000  0.4174980000000 1.0
C      1  0.5447630000000  0.5117400000000  0.4269600000000 1.0
C      1  0.5743520000000  0.5163460000000  0.4636560000000 1.0
C      1  0.5835630000000  0.5113440000000  0.5104470000000 1.0
C      1  0.5649250000000  0.5150390000000  0.5542080000000 1.0
C      1  0.5250560000000  0.5143870000000  0.5800450000000 1.0
END
