TITL C-2441161-5029-1277 0.0414995674590675 125000 -11921.4406954406 0 0 87 (C1) n - 1
REM
REM in /home/bkarasulu/work/CARBON/AIRSS/Generating-Clusters/ReaxFF-fromJPCA2015/Units_Real/with-SteepDescent/Higher-Symm
REM
REM
REM
REM
REM
REM ./C.cell (1df0a924f5614ab8850e4351716899ee)
REM
REM compiler GCC version 9.2.1 20190827 (Red Hat 9.2.1-1)
REM options -cpp -mtune=generic -march=x86-64 -g -O0 -fpre-include=/usr/include/finclude/math-vector-fortran.h
REM seed 491093163 1566089781 1101300814 -36541183 334603936 -1935979401 1682529539 -1395907475 -1776911188 -705721192 -1975557035 1688211148 821856189 -768184765 648515985 -1267919162 -612452903 -161849021 374466637 -277511425 -1586109463 197548674 -1748652863 -1072636676 1235862886 563755346 1449353986 -1652115230 530488046 539720410 -1632539074 -371325863 -937835010
REM
CELL 1.54180   50.00000   50.00000   50.00000   90.00000   90.00000   90.00000
LATT -1
SFAC C  
C      1  0.5268980000000  0.4360990000000  0.4649810000000 1.0
C      1  0.4590720000000  0.4590040000000  0.4385690000000 1.0
C      1  0.4998570000000  0.4677620000000  0.5865760000000 1.0
C      1  0.4493570000000  0.4480940000000  0.5175690000000 1.0
C      1  0.4393430000000  0.4750950000000  0.5104590000000 1.0
C      1  0.4950380000000  0.5408610000000  0.5692620000000 1.0
C      1  0.4730920000000  0.4639920000000  0.5762390000000 1.0
C      1  0.5423230000000  0.5641210000000  0.4901950000000 1.0
C      1  0.5457320000000  0.4451490000000  0.5100670000000 1.0
C      1  0.4700980000000  0.5424360000000  0.5494500000000 1.0
C      1  0.5736790000000  0.5032380000000  0.5310010000000 1.0
C      1  0.4610810000000  0.5620270000000  0.4772800000000 1.0
C      1  0.4977640000000  0.5155540000000  0.5186900000000 1.0
C      1  0.4669050000000  0.4607830000000  0.5352000000000 1.0
C      1  0.5059450000000  0.4743720000000  0.5392830000000 1.0
C      1  0.4636670000000  0.4863740000000  0.4903420000000 1.0
C      1  0.5469170000000  0.5283940000000  0.5698660000000 1.0
C      1  0.4895350000000  0.5553000000000  0.4817350000000 1.0
C      1  0.4704330000000  0.5178280000000  0.5311810000000 1.0
C      1  0.5074740000000  0.4968240000000  0.5872660000000 1.0
C      1  0.5308400000000  0.5524960000000  0.5360520000000 1.0
C      1  0.4222000000000  0.5184160000000  0.5148740000000 1.0
C      1  0.5040160000000  0.4868140000000  0.4210200000000 1.0
C      1  0.4550880000000  0.4854690000000  0.5677760000000 1.0
C      1  0.4956810000000  0.5739820000000  0.5253270000000 1.0
C      1  0.4205320000000  0.4926870000000  0.4711820000000 1.0
C      1  0.5251090000000  0.4832720000000  0.4378360000000 1.0
C      1  0.5095830000000  0.4458170000000  0.5701700000000 1.0
C      1  0.4513240000000  0.4471940000000  0.4645410000000 1.0
C      1  0.4602260000000  0.5138560000000  0.4825170000000 1.0
C      1  0.5511770000000  0.4853030000000  0.5270410000000 1.0
C      1  0.4693370000000  0.5647850000000  0.5275540000000 1.0
C      1  0.4175260000000  0.4928550000000  0.5007270000000 1.0
C      1  0.4975500000000  0.4286530000000  0.5159310000000 1.0
C      1  0.5692170000000  0.5014680000000  0.4726520000000 1.0
C      1  0.4974780000000  0.4348480000000  0.4591470000000 1.0
C      1  0.5307500000000  0.5087740000000  0.5793770000000 1.0
C      1  0.4278860000000  0.5253490000000  0.5406320000000 1.0
C      1  0.5385060000000  0.5488480000000  0.4658310000000 1.0
C      1  0.5220460000000  0.5770800000000  0.5104950000000 1.0
C      1  0.4824870000000  0.5217180000000  0.4242390000000 1.0
C      1  0.4708940000000  0.4295650000000  0.5068830000000 1.0
C      1  0.4996680000000  0.5287180000000  0.4884900000000 1.0
C      1  0.5728430000000  0.5208020000000  0.5068290000000 1.0
C      1  0.4609450000000  0.4881580000000  0.4338430000000 1.0
C      1  0.5230480000000  0.5466450000000  0.5649750000000 1.0
C      1  0.4437230000000  0.5323930000000  0.5624110000000 1.0
C      1  0.5695270000000  0.4923580000000  0.4460180000000 1.0
C      1  0.5161220000000  0.5491960000000  0.4496880000000 1.0
C      1  0.4378310000000  0.5162490000000  0.4638700000000 1.0
C      1  0.5110570000000  0.4807170000000  0.4887100000000 1.0
C      1  0.4858270000000  0.5183040000000  0.5838410000000 1.0
C      1  0.5548360000000  0.5157500000000  0.4157590000000 1.0
C      1  0.5331100000000  0.4728160000000  0.5462470000000 1.0
C      1  0.5720330000000  0.4752720000000  0.4835090000000 1.0
C      1  0.4573810000000  0.5120950000000  0.5788630000000 1.0
C      1  0.4850320000000  0.4823430000000  0.4721450000000 1.0
C      1  0.5242810000000  0.4298640000000  0.5256000000000 1.0
C      1  0.4904810000000  0.5467650000000  0.4372230000000 1.0
C      1  0.5677660000000  0.4644220000000  0.4565670000000 1.0
C      1  0.5035390000000  0.4581540000000  0.4149860000000 1.0
C      1  0.4955080000000  0.5781850000000  0.4997790000000 1.0
C      1  0.4534280000000  0.5568530000000  0.5047190000000 1.0
C      1  0.5292160000000  0.4530390000000  0.4882750000000 1.0
C      1  0.5472530000000  0.4459230000000  0.4463400000000 1.0
C      1  0.5653680000000  0.4677280000000  0.5115490000000 1.0
C      1  0.5009840000000  0.4874680000000  0.5146440000000 1.0
C      1  0.4871560000000  0.4973520000000  0.4411350000000 1.0
C      1  0.4632220000000  0.5519790000000  0.4499960000000 1.0
C      1  0.4764720000000  0.4367550000000  0.4789430000000 1.0
C      1  0.4314300000000  0.4664730000000  0.4702300000000 1.0
C      1  0.5162830000000  0.5086820000000  0.4767720000000 1.0
C      1  0.5431870000000  0.5155770000000  0.5061160000000 1.0
C      1  0.4568940000000  0.4886390000000  0.5385420000000 1.0
C      1  0.4549590000000  0.5135330000000  0.4206020000000 1.0
C      1  0.5318620000000  0.4441070000000  0.5514850000000 1.0
C      1  0.4855350000000  0.4463450000000  0.4349210000000 1.0
C      1  0.5680260000000  0.5268820000000  0.5476180000000 1.0
C      1  0.5640860000000  0.5511330000000  0.5041700000000 1.0
C      1  0.4435580000000  0.5321860000000  0.4403880000000 1.0
C      1  0.5438770000000  0.5180270000000  0.4766130000000 1.0
C      1  0.4854800000000  0.4505400000000  0.5528020000000 1.0
C      1  0.5437170000000  0.5054120000000  0.4377670000000 1.0
C      1  0.5612770000000  0.5512800000000  0.5328540000000 1.0
C      1  0.5316700000000  0.4579370000000  0.4247410000000 1.0
C      1  0.4529180000000  0.5276070000000  0.5083700000000 1.0
C      1  0.5239190000000  0.5267810000000  0.5240400000000 1.0
END
