TITL C-2441160-1326-330 0.00740693701992737 125000 -1825.96191317505 0 0 18 (C3) n - 1
REM
REM in /home/bkarasulu/work/CARBON/AIRSS/Generating-Clusters/ReaxFF-fromJPCA2015/Units_Real/with-SteepDescent/Higher-Symm
REM
REM
REM
REM
REM
REM ./C.cell (1df0a924f5614ab8850e4351716899ee)
REM
REM compiler GCC version 9.2.1 20190827 (Red Hat 9.2.1-1)
REM options -cpp -mtune=generic -march=x86-64 -g -O0 -fpre-include=/usr/include/finclude/math-vector-fortran.h
REM seed -751154626 188717933 -887384724 832688305 411518778 497120290 -1064585677 -241838228 -856616725 -81035849 403250823 -1003559351 751714772 -1192429850 100593746 63385857 161394473 -1031628242 601974936 546601504 1990606501 -1499024076 1435260324 385232388 -675350364 -925446316 104056168 -1322809590 -463969594 469987071 1318381465 757840192 -1224563056
REM
CELL 1.54180   50.00000   50.00000   50.00000   90.00000   90.00000   90.00000
LATT -1
SFAC C  
C      1  0.5165960000000  0.4887840000000  0.4407150000000 1.0
C      1  0.4887680000000  0.4896370000000  0.4413820000000 1.0
C      1  0.5023660000000  0.5140230000000  0.4407550000000 1.0
C      1  0.4873980000000  0.5478640000000  0.5159730000000 1.0
C      1  0.5534820000000  0.4851330000000  0.5160810000000 1.0
C      1  0.4660690000000  0.4591770000000  0.5159710000000 1.0
C      1  0.5036290000000  0.5507940000000  0.4935470000000 1.0
C      1  0.5479740000000  0.4696110000000  0.4935900000000 1.0
C      1  0.4554300000000  0.4717900000000  0.4935470000000 1.0
C      1  0.4925410000000  0.5267550000000  0.5392440000000 1.0
C      1  0.5327140000000  0.4912640000000  0.5393390000000 1.0
C      1  0.4819330000000  0.4741440000000  0.5391590000000 1.0
C      1  0.5190520000000  0.5162670000000  0.5361240000000 1.0
C      1  0.5104220000000  0.4735290000000  0.5360330000000 1.0
C      1  0.4777750000000  0.5023660000000  0.5360830000000 1.0
C      1  0.5017350000000  0.4971350000000  0.4646130000000 1.0
C      1  0.5024460000000  0.4974230000000  0.5144900000000 1.0
C      1  0.5021180000000  0.4973070000000  0.4901040000000 1.0
END
