TITL C-2441163-1170-909 0.033782974324755 125000 -10840.9421616005 0 0 80 (C1) n - 1
REM
REM in /home/bkarasulu/work/CARBON/AIRSS/Generating-Clusters/ReaxFF-fromJPCA2015/Units_Real/with-SteepDescent/Higher-Symm
REM
REM
REM
REM
REM
REM ./C.cell (1df0a924f5614ab8850e4351716899ee)
REM
REM compiler GCC version 9.2.1 20190827 (Red Hat 9.2.1-1)
REM options -cpp -mtune=generic -march=x86-64 -g -O0 -fpre-include=/usr/include/finclude/math-vector-fortran.h
REM seed -884723269 -698402429 -2059177541 -1491649917 1793715731 -280148488 896016954 -1925142301 -149977615 987367880 1411193052 1675545338 -1604070149 -2031964939 -591930610 -2129328852 1129782191 -1693197967 -1922399544 -288687423 1514159704 -1778075372 -756396985 2128051699 -111737263 -1945884721 -1457746197 -946225724 4013813 850111914 -1367857816 1931461133 1191271428
REM
CELL 1.54180   50.00000   50.00000   50.00000   90.00000   90.00000   90.00000
LATT -1
SFAC C  
C      1  0.5102630000000  0.4794100000000  0.5217240000000 1.0
C      1  0.5111730000000  0.4882680000000  0.4700850000000 1.0
C      1  0.5133450000000  0.5292030000000  0.5047480000000 1.0
C      1  0.5608340000000  0.4470170000000  0.4951490000000 1.0
C      1  0.5549950000000  0.5235350000000  0.4537500000000 1.0
C      1  0.5625030000000  0.5238060000000  0.5512780000000 1.0
C      1  0.4807180000000  0.4776770000000  0.5658860000000 1.0
C      1  0.4809840000000  0.4529640000000  0.4481320000000 1.0
C      1  0.4687670000000  0.5598960000000  0.4888100000000 1.0
C      1  0.5054010000000  0.5083930000000  0.5246630000000 1.0
C      1  0.5037350000000  0.4716480000000  0.4943360000000 1.0
C      1  0.5077860000000  0.5187880000000  0.4740220000000 1.0
C      1  0.4735290000000  0.5046390000000  0.5757310000000 1.0
C      1  0.4726390000000  0.4309530000000  0.4659220000000 1.0
C      1  0.4697730000000  0.5629750000000  0.4586890000000 1.0
C      1  0.5629650000000  0.4750460000000  0.4935740000000 1.0
C      1  0.5677740000000  0.5289340000000  0.4742390000000 1.0
C      1  0.5601990000000  0.5080410000000  0.5293990000000 1.0
C      1  0.4542700000000  0.4246140000000  0.4900790000000 1.0
C      1  0.4628790000000  0.5437030000000  0.4356700000000 1.0
C      1  0.4548550000000  0.5282560000000  0.5694610000000 1.0
C      1  0.4954720000000  0.4238510000000  0.4822760000000 1.0
C      1  0.4949070000000  0.5643560000000  0.4503810000000 1.0
C      1  0.4955540000000  0.5235950000000  0.5785540000000 1.0
C      1  0.4345560000000  0.5339530000000  0.5483640000000 1.0
C      1  0.4318220000000  0.4386340000000  0.5031850000000 1.0
C      1  0.4391640000000  0.5277140000000  0.4421090000000 1.0
C      1  0.5064890000000  0.4638690000000  0.5672340000000 1.0
C      1  0.5069660000000  0.4545950000000  0.4332210000000 1.0
C      1  0.5046350000000  0.5754920000000  0.5027600000000 1.0
C      1  0.4852720000000  0.4929790000000  0.4285480000000 1.0
C      1  0.4857830000000  0.5609010000000  0.5402330000000 1.0
C      1  0.4829110000000  0.4396060000000  0.5321540000000 1.0
C      1  0.5119970000000  0.5226300000000  0.4266490000000 1.0
C      1  0.5259920000000  0.5595700000000  0.5514040000000 1.0
C      1  0.5281220000000  0.4325400000000  0.5292980000000 1.0
C      1  0.4504350000000  0.4626720000000  0.5089790000000 1.0
C      1  0.4538840000000  0.5067550000000  0.4598030000000 1.0
C      1  0.4552030000000  0.5326860000000  0.5258570000000 1.0
C      1  0.4851980000000  0.4810500000000  0.4557440000000 1.0
C      1  0.4890840000000  0.5534660000000  0.5071710000000 1.0
C      1  0.4789680000000  0.4696950000000  0.5374210000000 1.0
C      1  0.5279480000000  0.4419000000000  0.4495160000000 1.0
C      1  0.5261210000000  0.5743760000000  0.4829840000000 1.0
C      1  0.5260550000000  0.4852040000000  0.5724750000000 1.0
C      1  0.5390970000000  0.5364950000000  0.5644990000000 1.0
C      1  0.5369450000000  0.4310240000000  0.5010250000000 1.0
C      1  0.5259130000000  0.5346040000000  0.4490190000000 1.0
C      1  0.5370230000000  0.5448250000000  0.5141980000000 1.0
C      1  0.5373690000000  0.4604420000000  0.5318480000000 1.0
C      1  0.5354530000000  0.4853140000000  0.4436160000000 1.0
C      1  0.4400170000000  0.4811000000000  0.4626550000000 1.0
C      1  0.4461950000000  0.5451050000000  0.5004210000000 1.0
C      1  0.4490150000000  0.4781140000000  0.5337950000000 1.0
C      1  0.4747840000000  0.4715090000000  0.4943830000000 1.0
C      1  0.4785250000000  0.5156920000000  0.4750860000000 1.0
C      1  0.4766000000000  0.5118560000000  0.5258600000000 1.0
C      1  0.5684230000000  0.4845710000000  0.5423810000000 1.0
C      1  0.5682510000000  0.4748130000000  0.4657300000000 1.0
C      1  0.5727150000000  0.5458710000000  0.4944320000000 1.0
C      1  0.5670050000000  0.4619190000000  0.5196430000000 1.0
C      1  0.5614060000000  0.4985270000000  0.4486380000000 1.0
C      1  0.5625820000000  0.5369130000000  0.5255580000000 1.0
C      1  0.5065410000000  0.4392720000000  0.5480860000000 1.0
C      1  0.5127250000000  0.4823190000000  0.4237970000000 1.0
C      1  0.5095630000000  0.5758880000000  0.5337320000000 1.0
C      1  0.4251950000000  0.4851120000000  0.4821760000000 1.0
C      1  0.4283580000000  0.5246790000000  0.4943720000000 1.0
C      1  0.4303260000000  0.4955440000000  0.5235670000000 1.0
C      1  0.5492520000000  0.5636890000000  0.4969280000000 1.0
C      1  0.5470370000000  0.4715400000000  0.5582040000000 1.0
C      1  0.5506370000000  0.4595270000000  0.4471210000000 1.0
C      1  0.5215660000000  0.5652440000000  0.4551630000000 1.0
C      1  0.5227290000000  0.5146250000000  0.5755400000000 1.0
C      1  0.5229680000000  0.4289150000000  0.4758150000000 1.0
C      1  0.4791270000000  0.4242290000000  0.5071360000000 1.0
C      1  0.4844980000000  0.5229850000000  0.4248460000000 1.0
C      1  0.4796930000000  0.5450210000000  0.5636970000000 1.0
C      1  0.4730920000000  0.5002540000000  0.4989640000000 1.0
C      1  0.4177270000000  0.5027200000000  0.5022750000000 1.0
END
