TITL C-2441167-4473-961 0.00271688416711768 125000 -5653.50444091968 0 0 40 (C1) n - 1
REM
REM in /home/bkarasulu/work/CARBON/AIRSS/Generating-Clusters/ReaxFF-fromJPCA2015/Units_Real/with-SteepDescent/Higher-Symm
REM
REM
REM
REM
REM
REM ./C.cell (1df0a924f5614ab8850e4351716899ee)
REM
REM compiler GCC version 9.2.1 20190827 (Red Hat 9.2.1-1)
REM options -cpp -mtune=generic -march=x86-64 -g -O0 -fpre-include=/usr/include/finclude/math-vector-fortran.h
REM seed -1025538948 18792159 1654489872 666774522 -591725727 1039790907 1374340599 -1783384528 -849855156 -441256390 -937809436 -159925204 5908019 301195310 1671313950 1274436630 1759767455 100085389 1571642207 554557780 -46473281 -2025864942 -1606758224 -1153109208 -897341318 -981307651 1064975174 746354772 1626350042 -136803419 2028006987 -783261083 1390013721
REM
CELL 1.54180   50.00000   50.00000   50.00000   90.00000   90.00000   90.00000
LATT -1
SFAC C  
C      1  0.5122750000000  0.5226100000000  0.4584380000000 1.0
C      1  0.5110640000000  0.4546790000000  0.5022180000000 1.0
C      1  0.5132390000000  0.5267820000000  0.5393750000000 1.0
C      1  0.4897950000000  0.4844470000000  0.4433140000000 1.0
C      1  0.4906100000000  0.4600080000000  0.5440690000000 1.0
C      1  0.4928390000000  0.5607410000000  0.5123400000000 1.0
C      1  0.5217990000000  0.4771170000000  0.4831180000000 1.0
C      1  0.5222690000000  0.4981200000000  0.5297820000000 1.0
C      1  0.5230720000000  0.5275610000000  0.4883280000000 1.0
C      1  0.4688520000000  0.5000850000000  0.5648320000000 1.0
C      1  0.4727030000000  0.5509760000000  0.4680840000000 1.0
C      1  0.4706970000000  0.4434080000000  0.4656140000000 1.0
C      1  0.5529430000000  0.4777390000000  0.4842140000000 1.0
C      1  0.5533050000000  0.4973720000000  0.5274340000000 1.0
C      1  0.5540020000000  0.5248060000000  0.4888240000000 1.0
C      1  0.5341840000000  0.5050720000000  0.4503220000000 1.0
C      1  0.5334460000000  0.4548010000000  0.5208520000000 1.0
C      1  0.5357050000000  0.5417480000000  0.5289130000000 1.0
C      1  0.4504200000000  0.5092350000000  0.5452200000000 1.0
C      1  0.4608260000000  0.5226810000000  0.4700980000000 1.0
C      1  0.4519220000000  0.4549390000000  0.4838310000000 1.0
C      1  0.5175890000000  0.4814850000000  0.4507640000000 1.0
C      1  0.5183720000000  0.4675480000000  0.5419120000000 1.0
C      1  0.5204790000000  0.5539990000000  0.5074500000000 1.0
C      1  0.4855410000000  0.4608030000000  0.5149590000000 1.0
C      1  0.4878150000000  0.5374080000000  0.5295310000000 1.0
C      1  0.4862420000000  0.5110090000000  0.4547420000000 1.0
C      1  0.4635290000000  0.4761070000000  0.5005690000000 1.0
C      1  0.4646760000000  0.5193860000000  0.5216460000000 1.0
C      1  0.4626350000000  0.5048210000000  0.4968710000000 1.0
C      1  0.4739120000000  0.4593000000000  0.4424100000000 1.0
C      1  0.4736990000000  0.4720860000000  0.5649350000000 1.0
C      1  0.4739780000000  0.5676440000000  0.4905800000000 1.0
C      1  0.4488280000000  0.4836480000000  0.5576270000000 1.0
C      1  0.4530580000000  0.5501270000000  0.4822420000000 1.0
C      1  0.4491550000000  0.4556280000000  0.4555420000000 1.0
C      1  0.5577840000000  0.5241240000000  0.5175690000000 1.0
C      1  0.5570000000000  0.5027970000000  0.4703740000000 1.0
C      1  0.5565020000000  0.4727670000000  0.5123980000000 1.0
C      1  0.5160160000000  0.5011480000000  0.5005490000000 1.0
END
