TITL C-2441158-471-1358 0.0515320581821912 125000 -7894.05350418175 0 0 67 (C1) n - 1
REM
REM in /home/bkarasulu/work/CARBON/AIRSS/Generating-Clusters/ReaxFF-fromJPCA2015/Units_Real/with-SteepDescent/Higher-Symm
REM
REM
REM
REM
REM
REM ./C.cell (1df0a924f5614ab8850e4351716899ee)
REM
REM compiler GCC version 9.2.1 20190827 (Red Hat 9.2.1-1)
REM options -cpp -mtune=generic -march=x86-64 -g -O0 -fpre-include=/usr/include/finclude/math-vector-fortran.h
REM seed 1575118623 251942890 2031102238 1021837770 717701492 -1623484611 -1821116527 842891926 289886876 -519670836 1222728154 -1418769610 25492589 -1836215638 375303523 -49201876 -1650580219 1783157217 1334111278 2101928493 -117272971 1698293224 1691220438 -969171205 2060263617 -400374167 -1228570943 2061067023 -991513132 -2025932652 850113699 1310351283 -2103699642
REM
CELL 1.54180   50.00000   50.00000   50.00000   90.00000   90.00000   90.00000
LATT -1
SFAC C  
C      1  0.5456520000000  0.4501510000000  0.5129250000000 1.0
C      1  0.5441320000000  0.4957690000000  0.5529030000000 1.0
C      1  0.5441880000000  0.5506430000000  0.5193070000000 1.0
C      1  0.5441360000000  0.5340230000000  0.4572170000000 1.0
C      1  0.5459800000000  0.4689340000000  0.4575370000000 1.0
C      1  0.4506950000000  0.4466720000000  0.4866170000000 1.0
C      1  0.4506300000000  0.4962260000000  0.4454760000000 1.0
C      1  0.4509120000000  0.5507050000000  0.4799970000000 1.0
C      1  0.4511340000000  0.5339930000000  0.5424900000000 1.0
C      1  0.4513390000000  0.4699760000000  0.5456100000000 1.0
C      1  0.4783910000000  0.4821610000000  0.4810780000000 1.0
C      1  0.4778380000000  0.4770500000000  0.5102240000000 1.0
C      1  0.4767630000000  0.5026260000000  0.5243540000000 1.0
C      1  0.4771440000000  0.5240830000000  0.5042500000000 1.0
C      1  0.4778390000000  0.5112900000000  0.4777080000000 1.0
C      1  0.5169400000000  0.4823370000000  0.5174930000000 1.0
C      1  0.5169190000000  0.4774750000000  0.4890290000000 1.0
C      1  0.5173850000000  0.5033210000000  0.4752500000000 1.0
C      1  0.5167950000000  0.5247410000000  0.4957980000000 1.0
C      1  0.5156310000000  0.5117480000000  0.5220790000000 1.0
C      1  0.5435890000000  0.4688820000000  0.4898250000000 1.0
C      1  0.5456250000000  0.4828650000000  0.5259990000000 1.0
C      1  0.5474570000000  0.5222870000000  0.5233660000000 1.0
C      1  0.5483170000000  0.5296240000000  0.4857700000000 1.0
C      1  0.5456190000000  0.4965380000000  0.4689860000000 1.0
C      1  0.4498450000000  0.4685720000000  0.5056200000000 1.0
C      1  0.4478450000000  0.4842510000000  0.4721600000000 1.0
C      1  0.4458120000000  0.5226010000000  0.4753800000000 1.0
C      1  0.4486770000000  0.5285110000000  0.5137730000000 1.0
C      1  0.4494380000000  0.4950020000000  0.5317120000000 1.0
C      1  0.5074120000000  0.4497750000000  0.4505810000000 1.0
C      1  0.5076940000000  0.4378370000000  0.5312590000000 1.0
C      1  0.5080830000000  0.5107990000000  0.5682310000000 1.0
C      1  0.5080610000000  0.5684210000000  0.5098150000000 1.0
C      1  0.5078730000000  0.5306450000000  0.4377840000000 1.0
C      1  0.4874980000000  0.4497200000000  0.5481270000000 1.0
C      1  0.4870470000000  0.4376220000000  0.4676950000000 1.0
C      1  0.4872930000000  0.5109980000000  0.4314090000000 1.0
C      1  0.4873410000000  0.5681660000000  0.4894220000000 1.0
C      1  0.4875710000000  0.5308050000000  0.5618340000000 1.0
C      1  0.5320280000000  0.5646290000000  0.4951620000000 1.0
C      1  0.5317970000000  0.5143220000000  0.4367630000000 1.0
C      1  0.5301700000000  0.4418430000000  0.4653850000000 1.0
C      1  0.5313840000000  0.4494720000000  0.5419140000000 1.0
C      1  0.5323310000000  0.5233720000000  0.5599550000000 1.0
C      1  0.4629970000000  0.5642010000000  0.5042590000000 1.0
C      1  0.4633140000000  0.5156060000000  0.5629590000000 1.0
C      1  0.4636280000000  0.4440960000000  0.5341290000000 1.0
C      1  0.4634430000000  0.4499790000000  0.4577420000000 1.0
C      1  0.4634290000000  0.5239630000000  0.4393770000000 1.0
C      1  0.5268070000000  0.4847040000000  0.4366940000000 1.0
C      1  0.5266080000000  0.4342060000000  0.4940790000000 1.0
C      1  0.5262240000000  0.4731840000000  0.5602740000000 1.0
C      1  0.5269410000000  0.5489370000000  0.5438420000000 1.0
C      1  0.5267550000000  0.5561970000000  0.4656670000000 1.0
C      1  0.4687010000000  0.4853460000000  0.5649220000000 1.0
C      1  0.4688890000000  0.4335040000000  0.5056400000000 1.0
C      1  0.4683940000000  0.4735440000000  0.4391190000000 1.0
C      1  0.4685320000000  0.5492830000000  0.4560190000000 1.0
C      1  0.4685980000000  0.5569220000000  0.5335150000000 1.0
C      1  0.4975100000000  0.5488050000000  0.4645120000000 1.0
C      1  0.4974440000000  0.4817200000000  0.5566770000000 1.0
C      1  0.4974250000000  0.5485420000000  0.5356200000000 1.0
C      1  0.4978980000000  0.4399040000000  0.4994860000000 1.0
C      1  0.4983450000000  0.4806380000000  0.4421900000000 1.0
C      1  0.4368590000000  0.5043040000000  0.4968480000000 1.0
C      1  0.5570910000000  0.5055740000000  0.5016180000000 1.0
END
