TITL C-2441166-8118-1108 0.00286263280540911 125000 -10785.982611019 0 0 74 (C1) n - 1
REM
REM in /home/bkarasulu/work/CARBON/AIRSS/Generating-Clusters/ReaxFF-fromJPCA2015/Units_Real/with-SteepDescent/Higher-Symm
REM
REM
REM
REM
REM
REM ./C.cell (1df0a924f5614ab8850e4351716899ee)
REM
REM compiler GCC version 9.2.1 20190827 (Red Hat 9.2.1-1)
REM options -cpp -mtune=generic -march=x86-64 -g -O0 -fpre-include=/usr/include/finclude/math-vector-fortran.h
REM seed 1127132607 -2006324920 399122327 -1605705890 1926065097 1260118311 550374295 -1074094695 2017454175 -427810853 -1269505141 909337242 -126478216 -830225316 -1370432017 -1378152578 -19764309 469529007 97012020 -525691335 -414163275 337466524 980758096 1647724257 -1876988034 1316344309 1629300107 2086028902 931350563 -1936053810 1519279289 -587793204 895605385
REM
CELL 1.54180   50.00000   50.00000   50.00000   90.00000   90.00000   90.00000
LATT -1
SFAC C  
C      1  0.5594040000000  0.4384290000000  0.4863860000000 1.0
C      1  0.4747960000000  0.4165560000000  0.5133100000000 1.0
C      1  0.4167920000000  0.4792250000000  0.4863640000000 1.0
C      1  0.4393550000000  0.5610230000000  0.5129630000000 1.0
C      1  0.5187430000000  0.5939100000000  0.4897140000000 1.0
C      1  0.5783550000000  0.5250300000000  0.5159710000000 1.0
C      1  0.5275600000000  0.5085720000000  0.4597120000000 1.0
C      1  0.5179590000000  0.4808390000000  0.5361310000000 1.0
C      1  0.4923600000000  0.4742640000000  0.4648650000000 1.0
C      1  0.4727100000000  0.4918370000000  0.5353760000000 1.0
C      1  0.4814030000000  0.5183670000000  0.4675970000000 1.0
C      1  0.5072850000000  0.5252360000000  0.5326230000000 1.0
C      1  0.4295470000000  0.4675820000000  0.5082620000000 1.0
C      1  0.4361110000000  0.5436200000000  0.4912050000000 1.0
C      1  0.5035760000000  0.5779120000000  0.5086410000000 1.0
C      1  0.5682370000000  0.5301730000000  0.4901190000000 1.0
C      1  0.5616890000000  0.4551340000000  0.5087520000000 1.0
C      1  0.4915950000000  0.4234430000000  0.4920630000000 1.0
C      1  0.5022740000000  0.5227450000000  0.4499580000000 1.0
C      1  0.5211940000000  0.5196070000000  0.5575860000000 1.0
C      1  0.5270420000000  0.4896000000000  0.4371080000000 1.0
C      1  0.5066170000000  0.4724120000000  0.5616040000000 1.0
C      1  0.4791720000000  0.4788350000000  0.4390450000000 1.0
C      1  0.4741230000000  0.5069140000000  0.5604260000000 1.0
C      1  0.4858390000000  0.5590170000000  0.4953600000000 1.0
C      1  0.5413400000000  0.5424810000000  0.4956970000000 1.0
C      1  0.5543610000000  0.4800230000000  0.4939520000000 1.0
C      1  0.5107290000000  0.4417640000000  0.5059630000000 1.0
C      1  0.4542530000000  0.4598920000000  0.4935440000000 1.0
C      1  0.4415710000000  0.5186930000000  0.5068420000000 1.0
C      1  0.5429040000000  0.5486370000000  0.5251640000000 1.0
C      1  0.5647900000000  0.4817410000000  0.4668320000000 1.0
C      1  0.5207490000000  0.4369360000000  0.5328060000000 1.0
C      1  0.4552280000000  0.4489910000000  0.4665040000000 1.0
C      1  0.4345900000000  0.5119010000000  0.5341770000000 1.0
C      1  0.4772100000000  0.5623370000000  0.4678740000000 1.0
C      1  0.4787810000000  0.4776750000000  0.4924020000000 1.0
C      1  0.4687770000000  0.5051210000000  0.5080290000000 1.0
C      1  0.4890900000000  0.5274240000000  0.4941440000000 1.0
C      1  0.5184190000000  0.5197950000000  0.5039730000000 1.0
C      1  0.5271500000000  0.4930380000000  0.4920750000000 1.0
C      1  0.5083450000000  0.4719440000000  0.5068680000000 1.0
C      1  0.5727460000000  0.5106950000000  0.4663780000000 1.0
C      1  0.5475620000000  0.4493710000000  0.5341050000000 1.0
C      1  0.4796530000000  0.4324490000000  0.4664000000000 1.0
C      1  0.4321080000000  0.4821640000000  0.5343350000000 1.0
C      1  0.4510380000000  0.5480890000000  0.4661200000000 1.0
C      1  0.5186870000000  0.5650860000000  0.5309580000000 1.0
C      1  0.5918620000000  0.5065600000000  0.5338960000000 1.0
C      1  0.5510160000000  0.4211610000000  0.4649060000000 1.0
C      1  0.4582180000000  0.4145790000000  0.5364180000000 1.0
C      1  0.4076730000000  0.4948810000000  0.4639090000000 1.0
C      1  0.4473690000000  0.5762910000000  0.5358520000000 1.0
C      1  0.5315740000000  0.5892490000000  0.4711120000000 1.0
C      1  0.4659930000000  0.5522510000000  0.5453520000000 1.0
C      1  0.5284540000000  0.5605710000000  0.4693890000000 1.0
C      1  0.5631480000000  0.5013110000000  0.5457890000000 1.0
C      1  0.5321960000000  0.4441180000000  0.4538790000000 1.0
C      1  0.4701740000000  0.4428290000000  0.5457810000000 1.0
C      1  0.4374050000000  0.4969650000000  0.4534080000000 1.0
C      1  0.5032170000000  0.5537130000000  0.4566920000000 1.0
C      1  0.5475310000000  0.5263770000000  0.5454160000000 1.0
C      1  0.5453130000000  0.4693520000000  0.4479640000000 1.0
C      1  0.4986820000000  0.4458210000000  0.5514120000000 1.0
C      1  0.4517300000000  0.4723570000000  0.4479410000000 1.0
C      1  0.4539620000000  0.5265740000000  0.5519590000000 1.0
C      1  0.5464340000000  0.4769430000000  0.5435430000000 1.0
C      1  0.5032150000000  0.4473650000000  0.4578870000000 1.0
C      1  0.4564230000000  0.4687140000000  0.5438520000000 1.0
C      1  0.4547940000000  0.5210380000000  0.4564090000000 1.0
C      1  0.4950130000000  0.5505590000000  0.5412730000000 1.0
C      1  0.5539110000000  0.5246000000000  0.4495950000000 1.0
C      1  0.5016080000000  0.5005340000000  0.5695490000000 1.0
C      1  0.4998210000000  0.4974320000000  0.4305380000000 1.0
END
