TITL C-2441157-2117-1345 0.104647580148609 125000 -20318.0460821206 0 0 153 (C1) n - 1
REM
REM in /home/bkarasulu/work/CARBON/AIRSS/Generating-Clusters/ReaxFF-fromJPCA2015/Units_Real/with-SteepDescent/Higher-Symm
REM
REM
REM
REM
REM
REM ./C.cell (1df0a924f5614ab8850e4351716899ee)
REM
REM compiler GCC version 9.2.1 20190827 (Red Hat 9.2.1-1)
REM options -cpp -mtune=generic -march=x86-64 -g -O0 -fpre-include=/usr/include/finclude/math-vector-fortran.h
REM seed -71674991 1373752019 928533630 -1176272309 358254757 -33022523 815790092 -1133563864 -201537701 -387172676 -700023857 1055424924 469357910 -149438408 1923596115 -1393688271 491060083 41805626 -649156016 722862837 -2108888007 -930770751 -1624295235 -2043449302 -1432858728 2060259298 -182490258 -756765551 -1784913708 387520719 1627322564 1384759478 1256114239
REM
CELL 1.54180   50.00000   50.00000   50.00000   90.00000   90.00000   90.00000
LATT -1
SFAC C  
C      1  0.5125800000000  0.4655310000000  0.5799320000000 1.0
C      1  0.4585750000000  0.4657600000000  0.5688920000000 1.0
C      1  0.4222870000000  0.4659630000000  0.5273220000000 1.0
C      1  0.4236800000000  0.4664010000000  0.4727920000000 1.0
C      1  0.4594470000000  0.4650180000000  0.4305890000000 1.0
C      1  0.5161620000000  0.4670460000000  0.4205710000000 1.0
C      1  0.5648870000000  0.4659270000000  0.4479550000000 1.0
C      1  0.5821850000000  0.4656470000000  0.5014470000000 1.0
C      1  0.5611620000000  0.4643690000000  0.5527460000000 1.0
C      1  0.4750690000000  0.5127870000000  0.5774080000000 1.0
C      1  0.4317670000000  0.5075040000000  0.5455030000000 1.0
C      1  0.4101420000000  0.5118600000000  0.4877560000000 1.0
C      1  0.4429100000000  0.5085710000000  0.4331350000000 1.0
C      1  0.4982840000000  0.5096660000000  0.4215150000000 1.0
C      1  0.5508050000000  0.5088230000000  0.4327850000000 1.0
C      1  0.5823260000000  0.5095020000000  0.4863970000000 1.0
C      1  0.5730600000000  0.5087140000000  0.5435460000000 1.0
C      1  0.5311720000000  0.5074350000000  0.5768750000000 1.0
C      1  0.5483930000000  0.5597630000000  0.5654160000000 1.0
C      1  0.4953050000000  0.5756440000000  0.5686830000000 1.0
C      1  0.4440830000000  0.5559610000000  0.5604530000000 1.0
C      1  0.4288740000000  0.5747650000000  0.5111670000000 1.0
C      1  0.4269800000000  0.5573760000000  0.4573040000000 1.0
C      1  0.4780790000000  0.5738910000000  0.4297460000000 1.0
C      1  0.5285010000000  0.5572560000000  0.4199710000000 1.0
C      1  0.5704680000000  0.5643940000000  0.4589530000000 1.0
C      1  0.5794560000000  0.5614100000000  0.5156970000000 1.0
C      1  0.4075760000000  0.5355120000000  0.4527680000000 1.0
C      1  0.4509910000000  0.5483890000000  0.4125970000000 1.0
C      1  0.5242090000000  0.5354250000000  0.4002960000000 1.0
C      1  0.5769810000000  0.5483090000000  0.4357080000000 1.0
C      1  0.5983510000000  0.5465930000000  0.4994290000000 1.0
C      1  0.5748930000000  0.5462810000000  0.5642910000000 1.0
C      1  0.5163070000000  0.5383420000000  0.5965050000000 1.0
C      1  0.4425400000000  0.5368900000000  0.5821880000000 1.0
C      1  0.4059840000000  0.5363510000000  0.5314970000000 1.0
C      1  0.5138370000000  0.5306660000000  0.4675620000000 1.0
C      1  0.5344310000000  0.5179210000000  0.4821360000000 1.0
C      1  0.5389650000000  0.5301090000000  0.5077240000000 1.0
C      1  0.5242720000000  0.5215190000000  0.5309360000000 1.0
C      1  0.4984520000000  0.5313540000000  0.5367590000000 1.0
C      1  0.4746250000000  0.5203970000000  0.5263040000000 1.0
C      1  0.4592130000000  0.5318210000000  0.5049160000000 1.0
C      1  0.4638160000000  0.5336760000000  0.4761340000000 1.0
C      1  0.4872980000000  0.5209340000000  0.4650740000000 1.0
C      1  0.5366380000000  0.5999510000000  0.4812890000000 1.0
C      1  0.5362350000000  0.6088440000000  0.5096490000000 1.0
C      1  0.5242070000000  0.5980850000000  0.5344510000000 1.0
C      1  0.4974710000000  0.5972440000000  0.5484910000000 1.0
C      1  0.4728770000000  0.5983710000000  0.5328860000000 1.0
C      1  0.4503460000000  0.5978070000000  0.5114550000000 1.0
C      1  0.4534610000000  0.5972310000000  0.4834980000000 1.0
C      1  0.4917940000000  0.5953140000000  0.4497280000000 1.0
C      1  0.5172110000000  0.6058130000000  0.4588070000000 1.0
C      1  0.4880690000000  0.4944120000000  0.4683700000000 1.0
C      1  0.5119170000000  0.4846040000000  0.4602880000000 1.0
C      1  0.5373660000000  0.4893230000000  0.4842020000000 1.0
C      1  0.5402570000000  0.4829730000000  0.5135730000000 1.0
C      1  0.5220330000000  0.4944290000000  0.5323880000000 1.0
C      1  0.4964430000000  0.4839480000000  0.5370630000000 1.0
C      1  0.4742460000000  0.4944280000000  0.5254990000000 1.0
C      1  0.4564990000000  0.4832270000000  0.5068930000000 1.0
C      1  0.4660490000000  0.4819910000000  0.4790750000000 1.0
C      1  0.4511100000000  0.5599020000000  0.4359790000000 1.0
C      1  0.5018230000000  0.5628560000000  0.4221950000000 1.0
C      1  0.5502410000000  0.5561940000000  0.4414270000000 1.0
C      1  0.5751990000000  0.5572470000000  0.4875180000000 1.0
C      1  0.5633500000000  0.5560420000000  0.5397470000000 1.0
C      1  0.5203220000000  0.5585310000000  0.5771610000000 1.0
C      1  0.4694420000000  0.5643390000000  0.5676560000000 1.0
C      1  0.4256970000000  0.5572730000000  0.5341330000000 1.0
C      1  0.4262280000000  0.5664060000000  0.4837590000000 1.0
C      1  0.5071060000000  0.4028120000000  0.5402220000000 1.0
C      1  0.4794490000000  0.4013930000000  0.5347460000000 1.0
C      1  0.4593040000000  0.4016350000000  0.5149220000000 1.0
C      1  0.4594470000000  0.4033850000000  0.4861230000000 1.0
C      1  0.4781570000000  0.4032010000000  0.4635280000000 1.0
C      1  0.5064190000000  0.4044760000000  0.4598110000000 1.0
C      1  0.5314170000000  0.4040080000000  0.4729650000000 1.0
C      1  0.5416400000000  0.4044060000000  0.4996290000000 1.0
C      1  0.5321280000000  0.4036470000000  0.5264230000000 1.0
C      1  0.4646600000000  0.5586930000000  0.5061880000000 1.0
C      1  0.4665900000000  0.5641420000000  0.4782500000000 1.0
C      1  0.4921050000000  0.5734420000000  0.4686650000000 1.0
C      1  0.5153800000000  0.5577940000000  0.4687560000000 1.0
C      1  0.5366830000000  0.5704290000000  0.4819760000000 1.0
C      1  0.5397420000000  0.5580030000000  0.5074120000000 1.0
C      1  0.5252510000000  0.5696070000000  0.5286590000000 1.0
C      1  0.5001120000000  0.5577670000000  0.5331270000000 1.0
C      1  0.4771620000000  0.5711770000000  0.5260740000000 1.0
C      1  0.4343080000000  0.4143030000000  0.5240820000000 1.0
C      1  0.4349770000000  0.4157800000000  0.4774950000000 1.0
C      1  0.4654590000000  0.4168820000000  0.4409370000000 1.0
C      1  0.5096750000000  0.4208740000000  0.4375860000000 1.0
C      1  0.5514120000000  0.4160550000000  0.4559900000000 1.0
C      1  0.5680580000000  0.4154950000000  0.4993450000000 1.0
C      1  0.5524470000000  0.4148350000000  0.5432830000000 1.0
C      1  0.5116320000000  0.4151440000000  0.5660560000000 1.0
C      1  0.4671100000000  0.4200650000000  0.5531820000000 1.0
C      1  0.4829980000000  0.4959730000000  0.4039110000000 1.0
C      1  0.5472590000000  0.5184420000000  0.4054650000000 1.0
C      1  0.5930830000000  0.5052780000000  0.4617660000000 1.0
C      1  0.5962750000000  0.5051760000000  0.5317440000000 1.0
C      1  0.5547350000000  0.5006810000000  0.5858630000000 1.0
C      1  0.4937190000000  0.5160530000000  0.5986410000000 1.0
C      1  0.4289870000000  0.5101010000000  0.5743530000000 1.0
C      1  0.4057590000000  0.5119140000000  0.5126960000000 1.0
C      1  0.4186860000000  0.5091150000000  0.4442820000000 1.0
C      1  0.4914750000000  0.4428040000000  0.4649000000000 1.0
C      1  0.5164660000000  0.4554020000000  0.4625660000000 1.0
C      1  0.5371470000000  0.4604790000000  0.4808170000000 1.0
C      1  0.5400180000000  0.4537590000000  0.5085310000000 1.0
C      1  0.5208140000000  0.4500450000000  0.5273140000000 1.0
C      1  0.4975490000000  0.4560730000000  0.5409430000000 1.0
C      1  0.4740660000000  0.4427170000000  0.5303850000000 1.0
C      1  0.4608010000000  0.4531660000000  0.5079760000000 1.0
C      1  0.4692710000000  0.4526770000000  0.4784150000000 1.0
C      1  0.4364500000000  0.4554210000000  0.5511090000000 1.0
C      1  0.4183640000000  0.4553670000000  0.5006520000000 1.0
C      1  0.4375190000000  0.4554480000000  0.4488640000000 1.0
C      1  0.4870400000000  0.4579810000000  0.4186650000000 1.0
C      1  0.5416840000000  0.4557630000000  0.4290680000000 1.0
C      1  0.5774220000000  0.4553110000000  0.4727490000000 1.0
C      1  0.5765660000000  0.4543930000000  0.5282200000000 1.0
C      1  0.5390880000000  0.4544380000000  0.5698380000000 1.0
C      1  0.4848440000000  0.4551240000000  0.5799480000000 1.0
C      1  0.4654780000000  0.5283560000000  0.5974920000000 1.0
C      1  0.4072440000000  0.5196020000000  0.5547420000000 1.0
C      1  0.3982130000000  0.5304060000000  0.4783910000000 1.0
C      1  0.4366900000000  0.5277220000000  0.4133270000000 1.0
C      1  0.4982130000000  0.5212920000000  0.3976380000000 1.0
C      1  0.5701040000000  0.5258550000000  0.4199560000000 1.0
C      1  0.6032450000000  0.5253570000000  0.4808120000000 1.0
C      1  0.5926620000000  0.5257010000000  0.5527200000000 1.0
C      1  0.5409980000000  0.5231860000000  0.5983570000000 1.0
C      1  0.5866020000000  0.4928450000000  0.5074200000000 1.0
C      1  0.5633970000000  0.4909810000000  0.5609380000000 1.0
C      1  0.5091120000000  0.4933080000000  0.5831100000000 1.0
C      1  0.4550460000000  0.4933070000000  0.5729700000000 1.0
C      1  0.4258370000000  0.4933290000000  0.5224790000000 1.0
C      1  0.4198970000000  0.4936050000000  0.4683720000000 1.0
C      1  0.4606400000000  0.4902050000000  0.4222570000000 1.0
C      1  0.5187580000000  0.4940110000000  0.4331680000000 1.0
C      1  0.5715710000000  0.4927540000000  0.4462650000000 1.0
C      1  0.4871240000000  0.4274940000000  0.5746530000000 1.0
C      1  0.4376270000000  0.4270820000000  0.5495360000000 1.0
C      1  0.4213320000000  0.4268660000000  0.5008740000000 1.0
C      1  0.4397820000000  0.4270850000000  0.4507690000000 1.0
C      1  0.4857550000000  0.4299680000000  0.4247700000000 1.0
C      1  0.5375370000000  0.4279370000000  0.4335460000000 1.0
C      1  0.5729380000000  0.4269450000000  0.4728460000000 1.0
C      1  0.5735130000000  0.4259410000000  0.5262080000000 1.0
C      1  0.5388600000000  0.4260500000000  0.5667150000000 1.0
END
