TITL C-2441160-1326-225 0.0754997244094583 125000 -23442.9014418035 0 0 172 (C1) n - 1
REM
REM in /home/bkarasulu/work/CARBON/AIRSS/Generating-Clusters/ReaxFF-fromJPCA2015/Units_Real/with-SteepDescent/Higher-Symm
REM
REM
REM
REM
REM
REM ./C.cell (1df0a924f5614ab8850e4351716899ee)
REM
REM compiler GCC version 9.2.1 20190827 (Red Hat 9.2.1-1)
REM options -cpp -mtune=generic -march=x86-64 -g -O0 -fpre-include=/usr/include/finclude/math-vector-fortran.h
REM seed 1180570363 -187603411 692932693 1336789965 279851933 191005393 -1733355625 -1566890529 1438258763 -93803682 -673371734 -110699416 1375589705 -121623767 -334587968 980341561 1133886409 459843405 1021608105 1191324410 393486005 265355010 -203149669 -1620256088 458697159 -2143677255 -1223159565 -225549832 -2067715505 -901413623 -58774370 1316380723 -1502355640
REM
CELL 1.54180   50.00000   50.00000   50.00000   90.00000   90.00000   90.00000
LATT -1
SFAC C  
C      1  0.4640230000000  0.4633580000000  0.4112830000000 1.0
C      1  0.4900300000000  0.4497780000000  0.4112380000000 1.0
C      1  0.5190410000000  0.4522840000000  0.4104750000000 1.0
C      1  0.5420940000000  0.4705540000000  0.4135090000000 1.0
C      1  0.5519990000000  0.4978680000000  0.4134780000000 1.0
C      1  0.5461030000000  0.5263150000000  0.4109440000000 1.0
C      1  0.5246370000000  0.5463090000000  0.4121890000000 1.0
C      1  0.4959770000000  0.5517610000000  0.4127500000000 1.0
C      1  0.4686500000000  0.5418430000000  0.4100930000000 1.0
C      1  0.4516010000000  0.5179320000000  0.4105780000000 1.0
C      1  0.4501640000000  0.4888230000000  0.4127870000000 1.0
C      1  0.4532560000000  0.4844170000000  0.5975180000000 1.0
C      1  0.4602160000000  0.4592810000000  0.6075330000000 1.0
C      1  0.4878700000000  0.4493950000000  0.6109670000000 1.0
C      1  0.5140990000000  0.4571130000000  0.6047700000000 1.0
C      1  0.5396260000000  0.4689390000000  0.6060100000000 1.0
C      1  0.5524970000000  0.4943100000000  0.6085960000000 1.0
C      1  0.5479100000000  0.5220880000000  0.6111470000000 1.0
C      1  0.5231550000000  0.5334330000000  0.6042770000000 1.0
C      1  0.5055520000000  0.5562750000000  0.6072430000000 1.0
C      1  0.4766490000000  0.5509020000000  0.6072480000000 1.0
C      1  0.4563000000000  0.5320270000000  0.5978590000000 1.0
C      1  0.4640550000000  0.5346470000000  0.5077890000000 1.0
C      1  0.4437290000000  0.5081710000000  0.4957440000000 1.0
C      1  0.4525040000000  0.4798620000000  0.4992660000000 1.0
C      1  0.4756700000000  0.4508540000000  0.5130990000000 1.0
C      1  0.5047740000000  0.4495180000000  0.4981360000000 1.0
C      1  0.5364150000000  0.4538330000000  0.5100890000000 1.0
C      1  0.5534560000000  0.4711520000000  0.4963820000000 1.0
C      1  0.5568270000000  0.5115400000000  0.4972380000000 1.0
C      1  0.5387480000000  0.5320190000000  0.5062210000000 1.0
C      1  0.5134070000000  0.5472320000000  0.4980360000000 1.0
C      1  0.4811660000000  0.5545310000000  0.4945960000000 1.0
C      1  0.5398090000000  0.6106480000000  0.4980840000000 1.0
C      1  0.4774650000000  0.6071880000000  0.4960760000000 1.0
C      1  0.4213660000000  0.5812600000000  0.4990770000000 1.0
C      1  0.3918720000000  0.5241280000000  0.4980680000000 1.0
C      1  0.3968380000000  0.4675410000000  0.4988830000000 1.0
C      1  0.4351820000000  0.4153620000000  0.4994940000000 1.0
C      1  0.4843930000000  0.3876420000000  0.5018960000000 1.0
C      1  0.5477100000000  0.4020980000000  0.4961070000000 1.0
C      1  0.5973550000000  0.4513630000000  0.4817170000000 1.0
C      1  0.6110530000000  0.5119400000000  0.4983670000000 1.0
C      1  0.5906680000000  0.5636530000000  0.5010500000000 1.0
C      1  0.4238800000000  0.4566180000000  0.4382410000000 1.0
C      1  0.4641040000000  0.4318900000000  0.4437770000000 1.0
C      1  0.5072790000000  0.4115790000000  0.4360370000000 1.0
C      1  0.5455980000000  0.4390370000000  0.4437680000000 1.0
C      1  0.5836810000000  0.4726180000000  0.4396810000000 1.0
C      1  0.5869440000000  0.5217720000000  0.4361040000000 1.0
C      1  0.5539260000000  0.5545510000000  0.4452650000000 1.0
C      1  0.5172330000000  0.5855450000000  0.4387060000000 1.0
C      1  0.4676160000000  0.5826280000000  0.4355420000000 1.0
C      1  0.4377590000000  0.5462510000000  0.4421430000000 1.0
C      1  0.4131910000000  0.5051060000000  0.4364730000000 1.0
C      1  0.4532180000000  0.5676240000000  0.5668400000000 1.0
C      1  0.4271700000000  0.5344830000000  0.5576410000000 1.0
C      1  0.4150640000000  0.4934650000000  0.5523400000000 1.0
C      1  0.4315880000000  0.4519400000000  0.5604000000000 1.0
C      1  0.4699570000000  0.4115990000000  0.5630120000000 1.0
C      1  0.5185970000000  0.4239660000000  0.5586700000000 1.0
C      1  0.5658270000000  0.4414540000000  0.5609120000000 1.0
C      1  0.5728830000000  0.4883100000000  0.5542710000000 1.0
C      1  0.5812630000000  0.5359110000000  0.5554190000000 1.0
C      1  0.5393900000000  0.5653670000000  0.5591200000000 1.0
C      1  0.5086720000000  0.5754600000000  0.5575720000000 1.0
C      1  0.5249100000000  0.5401900000000  0.5475120000000 1.0
C      1  0.4986220000000  0.5466620000000  0.5429480000000 1.0
C      1  0.4744580000000  0.5333460000000  0.5350700000000 1.0
C      1  0.4514410000000  0.5217410000000  0.5477920000000 1.0
C      1  0.4433010000000  0.4956090000000  0.5547050000000 1.0
C      1  0.4460240000000  0.4694360000000  0.5427630000000 1.0
C      1  0.4838130000000  0.4544210000000  0.5401150000000 1.0
C      1  0.5106360000000  0.4493970000000  0.5471160000000 1.0
C      1  0.5330310000000  0.4654850000000  0.5372120000000 1.0
C      1  0.5472310000000  0.4917100000000  0.5416760000000 1.0
C      1  0.5412090000000  0.5173140000000  0.5500270000000 1.0
C      1  0.5769170000000  0.4967900000000  0.4273940000000 1.0
C      1  0.5673260000000  0.5386320000000  0.4256330000000 1.0
C      1  0.5353160000000  0.5671390000000  0.4283460000000 1.0
C      1  0.4936110000000  0.5763450000000  0.4267800000000 1.0
C      1  0.4533700000000  0.5614820000000  0.4241320000000 1.0
C      1  0.4285310000000  0.5256700000000  0.4253370000000 1.0
C      1  0.4262620000000  0.4823680000000  0.4269980000000 1.0
C      1  0.4471550000000  0.4463170000000  0.4269030000000 1.0
C      1  0.4854680000000  0.4261530000000  0.4265700000000 1.0
C      1  0.5266840000000  0.4292120000000  0.4253640000000 1.0
C      1  0.5615300000000  0.4577050000000  0.4298650000000 1.0
C      1  0.4159610000000  0.4500390000000  0.4652280000000 1.0
C      1  0.4553370000000  0.4137970000000  0.4644120000000 1.0
C      1  0.5080340000000  0.4001090000000  0.4625200000000 1.0
C      1  0.5614180000000  0.4151700000000  0.4604580000000 1.0
C      1  0.6004620000000  0.4740470000000  0.4630350000000 1.0
C      1  0.5984880000000  0.5265180000000  0.4616350000000 1.0
C      1  0.5678610000000  0.5724860000000  0.4673560000000 1.0
C      1  0.5182470000000  0.5979020000000  0.4642550000000 1.0
C      1  0.4621330000000  0.5919700000000  0.4617640000000 1.0
C      1  0.4192630000000  0.5573570000000  0.4659370000000 1.0
C      1  0.4012930000000  0.5058720000000  0.4621760000000 1.0
C      1  0.5476970000000  0.5411380000000  0.5905570000000 1.0
C      1  0.5011540000000  0.5753070000000  0.5854680000000 1.0
C      1  0.4755090000000  0.5663990000000  0.5835050000000 1.0
C      1  0.4386630000000  0.5468390000000  0.5802900000000 1.0
C      1  0.4670920000000  0.5060960000000  0.5883970000000 1.0
C      1  0.4513140000000  0.4504240000000  0.5809980000000 1.0
C      1  0.4759710000000  0.4434140000000  0.5670420000000 1.0
C      1  0.4994120000000  0.4424940000000  0.5855740000000 1.0
C      1  0.5447210000000  0.4575120000000  0.5674290000000 1.0
C      1  0.5478340000000  0.4824660000000  0.5820540000000 1.0
C      1  0.5608880000000  0.5266500000000  0.5696580000000 1.0
C      1  0.5966690000000  0.4833790000000  0.5411480000000 1.0
C      1  0.5970790000000  0.5440580000000  0.5371340000000 1.0
C      1  0.5532280000000  0.5828480000000  0.5415280000000 1.0
C      1  0.5019580000000  0.5958980000000  0.5400140000000 1.0
C      1  0.4504370000000  0.5793210000000  0.5419390000000 1.0
C      1  0.4096260000000  0.5454910000000  0.5377930000000 1.0
C      1  0.3956330000000  0.4854510000000  0.5359540000000 1.0
C      1  0.4214040000000  0.4342020000000  0.5409090000000 1.0
C      1  0.4709420000000  0.3997780000000  0.5380750000000 1.0
C      1  0.5299160000000  0.4041650000000  0.5431860000000 1.0
C      1  0.5810010000000  0.4308550000000  0.5414800000000 1.0
C      1  0.4520690000000  0.5056460000000  0.4672520000000 1.0
C      1  0.4587910000000  0.4779480000000  0.4708010000000 1.0
C      1  0.4754790000000  0.4585770000000  0.4580950000000 1.0
C      1  0.5024660000000  0.4562260000000  0.4672320000000 1.0
C      1  0.5286810000000  0.4606450000000  0.4565270000000 1.0
C      1  0.5438320000000  0.4798730000000  0.4711960000000 1.0
C      1  0.5477740000000  0.5078230000000  0.4696760000000 1.0
C      1  0.5351410000000  0.5304820000000  0.4576190000000 1.0
C      1  0.5115140000000  0.5413690000000  0.4689500000000 1.0
C      1  0.4833320000000  0.5452350000000  0.4667420000000 1.0
C      1  0.4620900000000  0.5297300000000  0.4559760000000 1.0
C      1  0.5815520000000  0.4646500000000  0.5031340000000 1.0
C      1  0.5840320000000  0.5137420000000  0.5054330000000 1.0
C      1  0.5508050000000  0.5567030000000  0.5102890000000 1.0
C      1  0.5279340000000  0.5712720000000  0.5068330000000 1.0
C      1  0.4755240000000  0.5825340000000  0.5056910000000 1.0
C      1  0.4394400000000  0.5490680000000  0.5114810000000 1.0
C      1  0.4162310000000  0.5108980000000  0.5044910000000 1.0
C      1  0.4362950000000  0.4641470000000  0.5170360000000 1.0
C      1  0.4583620000000  0.4285140000000  0.5092380000000 1.0
C      1  0.5051320000000  0.4216310000000  0.5063310000000 1.0
C      1  0.5497750000000  0.4250830000000  0.5108490000000 1.0
C      1  0.6014760000000  0.5121340000000  0.5265230000000 1.0
C      1  0.5788620000000  0.5679960000000  0.5262300000000 1.0
C      1  0.5283800000000  0.5950480000000  0.5252340000000 1.0
C      1  0.4744840000000  0.5922330000000  0.5326250000000 1.0
C      1  0.4270200000000  0.5687500000000  0.5243800000000 1.0
C      1  0.4002930000000  0.5200890000000  0.5257320000000 1.0
C      1  0.4042180000000  0.4577860000000  0.5246400000000 1.0
C      1  0.4402890000000  0.4144260000000  0.5278760000000 1.0
C      1  0.5003600000000  0.3976870000000  0.5245780000000 1.0
C      1  0.5578560000000  0.4103720000000  0.5349300000000 1.0
C      1  0.5920720000000  0.4564440000000  0.5290850000000 1.0
C      1  0.4337320000000  0.5806380000000  0.4739270000000 1.0
C      1  0.4022330000000  0.5333450000000  0.4722520000000 1.0
C      1  0.4007810000000  0.4748220000000  0.4733670000000 1.0
C      1  0.4320060000000  0.4267110000000  0.4744740000000 1.0
C      1  0.4811590000000  0.3976140000000  0.4753150000000 1.0
C      1  0.5367980000000  0.3987470000000  0.4708150000000 1.0
C      1  0.5805440000000  0.4303830000000  0.4724700000000 1.0
C      1  0.6081000000000  0.5013500000000  0.4711070000000 1.0
C      1  0.5903020000000  0.5562500000000  0.4743350000000 1.0
C      1  0.5461310000000  0.5947780000000  0.4755590000000 1.0
C      1  0.4881900000000  0.6036630000000  0.4703640000000 1.0
C      1  0.4994180000000  0.4995420000000  0.5159860000000 1.0
C      1  0.4916650000000  0.5021460000000  0.5681840000000 1.0
C      1  0.5005660000000  0.4991530000000  0.4646470000000 1.0
C      1  0.5003440000000  0.4998410000000  0.4386320000000 1.0
C      1  0.5001520000000  0.5004270000000  0.4142140000000 1.0
C      1  0.4979250000000  0.5001030000000  0.5418600000000 1.0
C      1  0.5001050000000  0.4993680000000  0.4904420000000 1.0
END
