TITL C-2441161-5029-769 0.0813961698755753 125000 -20010.0738093488 0 0 151 (C1) n - 1
REM
REM in /home/bkarasulu/work/CARBON/AIRSS/Generating-Clusters/ReaxFF-fromJPCA2015/Units_Real/with-SteepDescent/Higher-Symm
REM
REM
REM
REM
REM
REM ./C.cell (1df0a924f5614ab8850e4351716899ee)
REM
REM compiler GCC version 9.2.1 20190827 (Red Hat 9.2.1-1)
REM options -cpp -mtune=generic -march=x86-64 -g -O0 -fpre-include=/usr/include/finclude/math-vector-fortran.h
REM seed 1165011716 -813529304 -453484944 1985641647 -1444531474 -1680558451 299006384 1082049935 -2022721094 -1832675762 1708445448 -1146416175 -48274445 1675272431 -608471823 -1671109354 -2140524659 1756455659 -1093364184 -653684677 -1872857537 260719335 584385751 -738889825 1620107998 -1104834797 -248083655 1281394831 117078292 -1938193727 -1657396595 -1868292500 1900734469
REM
CELL 1.54180   50.00000   50.00000   50.00000   90.00000   90.00000   90.00000
LATT -1
SFAC C  
C      1  0.5528180000000  0.4241800000000  0.5151820000000 1.0
C      1  0.4459700000000  0.4162100000000  0.5141740000000 1.0
C      1  0.5586220000000  0.4939120000000  0.5751960000000 1.0
C      1  0.4369850000000  0.4937710000000  0.5854200000000 1.0
C      1  0.4607150000000  0.5019560000000  0.4203760000000 1.0
C      1  0.5385070000000  0.5027000000000  0.4186120000000 1.0
C      1  0.4207350000000  0.5215310000000  0.4883320000000 1.0
C      1  0.5688210000000  0.5213700000000  0.4887880000000 1.0
C      1  0.5291150000000  0.5133290000000  0.5263710000000 1.0
C      1  0.4715460000000  0.5122430000000  0.5127580000000 1.0
C      1  0.5173340000000  0.6018530000000  0.4471320000000 1.0
C      1  0.4881200000000  0.6012150000000  0.4433270000000 1.0
C      1  0.5559040000000  0.4846640000000  0.4582240000000 1.0
C      1  0.4449770000000  0.4819180000000  0.4627580000000 1.0
C      1  0.5595760000000  0.4687930000000  0.5299810000000 1.0
C      1  0.4557240000000  0.4568360000000  0.5274180000000 1.0
C      1  0.4276490000000  0.5838260000000  0.4974430000000 1.0
C      1  0.5742410000000  0.5701480000000  0.4930370000000 1.0
C      1  0.4210310000000  0.4809120000000  0.4486390000000 1.0
C      1  0.5794870000000  0.4811080000000  0.4457180000000 1.0
C      1  0.5451470000000  0.4384880000000  0.4587220000000 1.0
C      1  0.4543460000000  0.4368520000000  0.4575500000000 1.0
C      1  0.4649290000000  0.5530090000000  0.5518830000000 1.0
C      1  0.5419550000000  0.5565610000000  0.5509630000000 1.0
C      1  0.4310910000000  0.5032970000000  0.4302320000000 1.0
C      1  0.5707560000000  0.5040310000000  0.4259930000000 1.0
C      1  0.5393500000000  0.5406810000000  0.5264440000000 1.0
C      1  0.4625070000000  0.5385980000000  0.5162190000000 1.0
C      1  0.5663840000000  0.5560580000000  0.4422950000000 1.0
C      1  0.4299510000000  0.5539580000000  0.4498820000000 1.0
C      1  0.4779260000000  0.5042000000000  0.3956430000000 1.0
C      1  0.5200390000000  0.5042200000000  0.3946670000000 1.0
C      1  0.4271180000000  0.5285200000000  0.4401570000000 1.0
C      1  0.5725170000000  0.5295790000000  0.4349830000000 1.0
C      1  0.5273830000000  0.4556640000000  0.4435640000000 1.0
C      1  0.4724660000000  0.4515280000000  0.4409240000000 1.0
C      1  0.5784380000000  0.5438530000000  0.5045930000000 1.0
C      1  0.4174650000000  0.5434250000000  0.5035030000000 1.0
C      1  0.5861110000000  0.4545020000000  0.4870960000000 1.0
C      1  0.4161540000000  0.4508800000000  0.4899290000000 1.0
C      1  0.4784950000000  0.4370150000000  0.5295270000000 1.0
C      1  0.5317520000000  0.4331460000000  0.5350570000000 1.0
C      1  0.5307800000000  0.5421990000000  0.5738640000000 1.0
C      1  0.4730680000000  0.5399730000000  0.5779980000000 1.0
C      1  0.4330420000000  0.4420950000000  0.5144930000000 1.0
C      1  0.5693920000000  0.4476860000000  0.5126180000000 1.0
C      1  0.4717040000000  0.4405860000000  0.4834840000000 1.0
C      1  0.5262530000000  0.4295000000000  0.4798840000000 1.0
C      1  0.4279610000000  0.4733980000000  0.5674210000000 1.0
C      1  0.5730430000000  0.4811350000000  0.5533800000000 1.0
C      1  0.5768710000000  0.5213940000000  0.5514990000000 1.0
C      1  0.4333640000000  0.5171900000000  0.5465840000000 1.0
C      1  0.5383090000000  0.5888230000000  0.5063730000000 1.0
C      1  0.4683450000000  0.5784010000000  0.4912780000000 1.0
C      1  0.5334860000000  0.5587410000000  0.5058560000000 1.0
C      1  0.4616220000000  0.5487620000000  0.4904180000000 1.0
C      1  0.4217680000000  0.5620380000000  0.4799390000000 1.0
C      1  0.5605870000000  0.5699920000000  0.4668390000000 1.0
C      1  0.5665410000000  0.5700810000000  0.5420130000000 1.0
C      1  0.4389240000000  0.5649200000000  0.5426380000000 1.0
C      1  0.4430140000000  0.4444160000000  0.5721040000000 1.0
C      1  0.5417710000000  0.4412480000000  0.5656240000000 1.0
C      1  0.5314780000000  0.5766550000000  0.4560840000000 1.0
C      1  0.4767760000000  0.5751490000000  0.4493300000000 1.0
C      1  0.4678920000000  0.4104930000000  0.5359360000000 1.0
C      1  0.5219410000000  0.4056880000000  0.5460220000000 1.0
C      1  0.4258250000000  0.4907350000000  0.5149940000000 1.0
C      1  0.5769030000000  0.4997850000000  0.5073340000000 1.0
C      1  0.5222820000000  0.4750410000000  0.5554180000000 1.0
C      1  0.4667590000000  0.4738660000000  0.5540060000000 1.0
C      1  0.4053160000000  0.4745250000000  0.4735900000000 1.0
C      1  0.5948670000000  0.4783790000000  0.4716430000000 1.0
C      1  0.4544560000000  0.4866140000000  0.5106500000000 1.0
C      1  0.5423780000000  0.4877030000000  0.5162880000000 1.0
C      1  0.4639890000000  0.4130520000000  0.4919030000000 1.0
C      1  0.5337130000000  0.4093780000000  0.4986260000000 1.0
C      1  0.4638330000000  0.5964890000000  0.5134740000000 1.0
C      1  0.5155520000000  0.5995260000000  0.5188630000000 1.0
C      1  0.5720910000000  0.4456910000000  0.4650900000000 1.0
C      1  0.4279630000000  0.4430840000000  0.4661720000000 1.0
C      1  0.4243410000000  0.5418620000000  0.5349240000000 1.0
C      1  0.5798670000000  0.5442550000000  0.5349820000000 1.0
C      1  0.4732860000000  0.5286350000000  0.4713630000000 1.0
C      1  0.5325820000000  0.5238910000000  0.4687640000000 1.0
C      1  0.4200780000000  0.4918660000000  0.5436630000000 1.0
C      1  0.5860670000000  0.5006040000000  0.5360360000000 1.0
C      1  0.4679350000000  0.4965160000000  0.4699450000000 1.0
C      1  0.5358690000000  0.4956250000000  0.4692410000000 1.0
C      1  0.4075430000000  0.4971630000000  0.4924770000000 1.0
C      1  0.5905320000000  0.5022290000000  0.4848330000000 1.0
C      1  0.5303790000000  0.4813910000000  0.4911310000000 1.0
C      1  0.4590370000000  0.4738870000000  0.4859780000000 1.0
C      1  0.4564360000000  0.5578170000000  0.4377090000000 1.0
C      1  0.5363700000000  0.5571000000000  0.4329630000000 1.0
C      1  0.4653550000000  0.4597210000000  0.5808250000000 1.0
C      1  0.5374270000000  0.4678840000000  0.5794250000000 1.0
C      1  0.4633260000000  0.5038900000000  0.5556000000000 1.0
C      1  0.5212490000000  0.5035120000000  0.5549360000000 1.0
C      1  0.5282390000000  0.5285960000000  0.4394550000000 1.0
C      1  0.4705810000000  0.5308500000000  0.4403510000000 1.0
C      1  0.4539430000000  0.4186090000000  0.5637470000000 1.0
C      1  0.5277020000000  0.4172610000000  0.5729870000000 1.0
C      1  0.4732120000000  0.4741650000000  0.4242170000000 1.0
C      1  0.5279020000000  0.4748520000000  0.4229690000000 1.0
C      1  0.4379320000000  0.5886420000000  0.5240390000000 1.0
C      1  0.5655400000000  0.5851830000000  0.5173720000000 1.0
C      1  0.5392490000000  0.5148650000000  0.5772180000000 1.0
C      1  0.4632550000000  0.5108600000000  0.5852590000000 1.0
C      1  0.5096590000000  0.4732910000000  0.5973620000000 1.0
C      1  0.4963350000000  0.5747990000000  0.4870940000000 1.0
C      1  0.4986190000000  0.5247790000000  0.3906150000000 1.0
C      1  0.5047300000000  0.4432000000000  0.5225650000000 1.0
C      1  0.4950810000000  0.4764490000000  0.5438620000000 1.0
C      1  0.4941890000000  0.4847370000000  0.4647830000000 1.0
C      1  0.4992200000000  0.5865580000000  0.5885880000000 1.0
C      1  0.4998790000000  0.4126580000000  0.4226770000000 1.0
C      1  0.4923770000000  0.4514830000000  0.5912510000000 1.0
C      1  0.5012190000000  0.5371380000000  0.6092720000000 1.0
C      1  0.4966060000000  0.5203860000000  0.5257600000000 1.0
C      1  0.4921930000000  0.4968240000000  0.5981520000000 1.0
C      1  0.4926330000000  0.5043610000000  0.5469620000000 1.0
C      1  0.4991720000000  0.5257200000000  0.4323600000000 1.0
C      1  0.4996170000000  0.4550520000000  0.4537510000000 1.0
C      1  0.5054630000000  0.5332870000000  0.4776230000000 1.0
C      1  0.4996440000000  0.5809280000000  0.5637880000000 1.0
C      1  0.5049540000000  0.4846230000000  0.4924990000000 1.0
C      1  0.5005270000000  0.4327460000000  0.4038020000000 1.0
C      1  0.5002430000000  0.4161640000000  0.4465280000000 1.0
C      1  0.5089670000000  0.3938280000000  0.5068040000000 1.0
C      1  0.4923510000000  0.5480270000000  0.5405440000000 1.0
C      1  0.5160430000000  0.5706830000000  0.4119140000000 1.0
C      1  0.4904390000000  0.6062120000000  0.5278830000000 1.0
C      1  0.4983970000000  0.5005990000000  0.4416320000000 1.0
C      1  0.5003730000000  0.4702150000000  0.4133460000000 1.0
C      1  0.5000710000000  0.4404390000000  0.4768360000000 1.0
C      1  0.4989120000000  0.4835100000000  0.3896600000000 1.0
C      1  0.4983100000000  0.4697840000000  0.5147370000000 1.0
C      1  0.4978930000000  0.3972570000000  0.5328190000000 1.0
C      1  0.5009090000000  0.5407510000000  0.5678850000000 1.0
C      1  0.5071970000000  0.5523910000000  0.4999420000000 1.0
C      1  0.4978850000000  0.5637450000000  0.6021630000000 1.0
C      1  0.4998380000000  0.6060810000000  0.5554210000000 1.0
C      1  0.5066940000000  0.5977770000000  0.4208820000000 1.0
C      1  0.5031350000000  0.5512180000000  0.3992340000000 1.0
C      1  0.5016760000000  0.5635470000000  0.4614500000000 1.0
C      1  0.4867210000000  0.3936450000000  0.4859770000000 1.0
C      1  0.5009250000000  0.4245130000000  0.5829520000000 1.0
C      1  0.4941530000000  0.3965160000000  0.4589120000000 1.0
C      1  0.4993750000000  0.4470870000000  0.3816390000000 1.0
C      1  0.5068650000000  0.5114250000000  0.6107520000000 1.0
C      1  0.4776360000000  0.4064320000000  0.5766330000000 1.0
END
