TITL C-2441169-1362-792 4.34874335808173e-05 125000 -2234.54178393731 0 0 17 (D3) n - 1
REM
REM in /home/bkarasulu/work/CARBON/AIRSS/Generating-Clusters/ReaxFF-fromJPCA2015/Units_Real/with-SteepDescent/Higher-Symm
REM
REM
REM
REM
REM
REM ./C.cell (1df0a924f5614ab8850e4351716899ee)
REM
REM compiler GCC version 9.2.1 20190827 (Red Hat 9.2.1-1)
REM options -cpp -mtune=generic -march=x86-64 -g -O0 -fpre-include=/usr/include/finclude/math-vector-fortran.h
REM seed -1028175680 1733338369 -291075216 -1631100102 -1530968810 299643625 395018776 -510380700 -1564990775 -1647474507 -363142600 -240397482 1330606747 2019481559 -131958599 1434324327 1804494571 1227098509 1966914002 -954118822 -1466042729 -1215093652 -1455526928 -1268005008 847503327 -31597306 1086075233 -228368968 2041067030 474365269 115767895 1541145836 770119170
REM
CELL 1.54180   50.00000   50.00000   50.00000   90.00000   90.00000   90.00000
LATT -1
SFAC C  
C      1  0.5432840000000  0.5371370000000  0.5294730000000 1.0
C      1  0.5095130000000  0.4436740000000  0.5294570000000 1.0
C      1  0.4454830000000  0.5196500000000  0.5294570000000 1.0
C      1  0.5432880000000  0.4631660000000  0.4844670000000 1.0
C      1  0.5095140000000  0.5566190000000  0.4844740000000 1.0
C      1  0.4454730000000  0.4806530000000  0.4844680000000 1.0
C      1  0.5082640000000  0.4731250000000  0.5349130000000 1.0
C      1  0.4716140000000  0.5060070000000  0.5349120000000 1.0
C      1  0.5184140000000  0.5213080000000  0.5349110000000 1.0
C      1  0.5082610000000  0.5271670000000  0.4790220000000 1.0
C      1  0.4716120000000  0.4942850000000  0.4790220000000 1.0
C      1  0.5184120000000  0.4789860000000  0.4790230000000 1.0
C      1  0.5285540000000  0.5505890000000  0.5069630000000 1.0
C      1  0.5285530000000  0.4497040000000  0.5069690000000 1.0
C      1  0.4411840000000  0.5001450000000  0.5069710000000 1.0
C      1  0.4994320000000  0.5001470000000  0.5409650000000 1.0
C      1  0.4994290000000  0.5001460000000  0.4729700000000 1.0
END
