TITL C-2441159-1093-1254 0.000874920575038086 125000 -7283.14563242173 0 0 50 (C1) n - 1
REM
REM in /home/bkarasulu/work/CARBON/AIRSS/Generating-Clusters/ReaxFF-fromJPCA2015/Units_Real/with-SteepDescent/Higher-Symm
REM
REM
REM
REM
REM
REM ./C.cell (1df0a924f5614ab8850e4351716899ee)
REM
REM compiler GCC version 9.2.1 20190827 (Red Hat 9.2.1-1)
REM options -cpp -mtune=generic -march=x86-64 -g -O0 -fpre-include=/usr/include/finclude/math-vector-fortran.h
REM seed -2105042282 1368049860 -412889868 -2025025836 -1205997962 955802318 842835467 271259277 468644200 770896426 -1768979459 -621405618 1565750547 122043107 -1762294695 1625509809 -1632110588 394691214 -1452772232 101798695 1696430574 329384961 867658664 -854729188 -67737072 1443868848 484005821 241541696 109238036 -161124075 -181121945 1877031820 -1714009369
REM
CELL 1.54180   50.00000   50.00000   50.00000   90.00000   90.00000   90.00000
LATT -1
SFAC C  
C      1  0.5244680000000  0.4942690000000  0.5606620000000 1.0
C      1  0.5025760000000  0.4752180000000  0.5616940000000 1.0
C      1  0.4780580000000  0.4901230000000  0.5627210000000 1.0
C      1  0.4844650000000  0.5183450000000  0.5626730000000 1.0
C      1  0.5132620000000  0.5210270000000  0.5617460000000 1.0
C      1  0.5363530000000  0.5350780000000  0.4513970000000 1.0
C      1  0.5383370000000  0.4830640000000  0.4484340000000 1.0
C      1  0.4899170000000  0.4613900000000  0.4483350000000 1.0
C      1  0.4499930000000  0.4926820000000  0.4535790000000 1.0
C      1  0.4845340000000  0.5305870000000  0.4492360000000 1.0
C      1  0.4445270000000  0.4667560000000  0.4984220000000 1.0
C      1  0.4532890000000  0.5415680000000  0.4970980000000 1.0
C      1  0.5240950000000  0.5602520000000  0.4977480000000 1.0
C      1  0.5652430000000  0.4977430000000  0.4953110000000 1.0
C      1  0.5134930000000  0.4386820000000  0.4974220000000 1.0
C      1  0.5110490000000  0.5298220000000  0.4380870000000 1.0
C      1  0.5350600000000  0.5100850000000  0.4372660000000 1.0
C      1  0.5141260000000  0.4723610000000  0.4467180000000 1.0
C      1  0.4694570000000  0.4800520000000  0.4386870000000 1.0
C      1  0.4676220000000  0.5092750000000  0.4393730000000 1.0
C      1  0.4811980000000  0.5506860000000  0.5249820000000 1.0
C      1  0.5421820000000  0.5332210000000  0.5235470000000 1.0
C      1  0.5408210000000  0.4631790000000  0.5333190000000 1.0
C      1  0.4843860000000  0.4470460000000  0.5250620000000 1.0
C      1  0.4463160000000  0.4975610000000  0.5253820000000 1.0
C      1  0.5018510000000  0.5679800000000  0.4816380000000 1.0
C      1  0.5709610000000  0.5234610000000  0.4848870000000 1.0
C      1  0.5386110000000  0.4466000000000  0.4864140000000 1.0
C      1  0.4570800000000  0.4456270000000  0.4833330000000 1.0
C      1  0.4339810000000  0.5248910000000  0.4845110000000 1.0
C      1  0.4803270000000  0.5450930000000  0.4766650000000 1.0
C      1  0.5399260000000  0.5360840000000  0.4818260000000 1.0
C      1  0.5464230000000  0.4765460000000  0.4791970000000 1.0
C      1  0.4877710000000  0.4505470000000  0.4787610000000 1.0
C      1  0.4487390000000  0.4949830000000  0.4818570000000 1.0
C      1  0.4949210000000  0.4771610000000  0.4908930000000 1.0
C      1  0.4765940000000  0.4979980000000  0.4910980000000 1.0
C      1  0.4917880000000  0.5213150000000  0.4912580000000 1.0
C      1  0.5192320000000  0.5157840000000  0.4915350000000 1.0
C      1  0.5212560000000  0.4880480000000  0.4911490000000 1.0
C      1  0.4682200000000  0.5364300000000  0.5448150000000 1.0
C      1  0.5251760000000  0.5419830000000  0.5438960000000 1.0
C      1  0.5480880000000  0.4877640000000  0.5431140000000 1.0
C      1  0.5023110000000  0.4487930000000  0.5463220000000 1.0
C      1  0.4552990000000  0.4804850000000  0.5450710000000 1.0
C      1  0.4581920000000  0.4582510000000  0.5248680000000 1.0
C      1  0.4482790000000  0.5260590000000  0.5243980000000 1.0
C      1  0.5087110000000  0.5580930000000  0.5245650000000 1.0
C      1  0.5568200000000  0.5089930000000  0.5222650000000 1.0
C      1  0.5246140000000  0.4409580000000  0.5267630000000 1.0
END
