TITL C-2441156-4686-820 0.0902997652255864 125000 -14531.1516252984 0 0 113 (C1) n - 1
REM
REM in /home/bkarasulu/work/CARBON/AIRSS/Generating-Clusters/ReaxFF-fromJPCA2015/Units_Real/with-SteepDescent/Higher-Symm
REM
REM
REM
REM
REM
REM ./C.cell (1df0a924f5614ab8850e4351716899ee)
REM
REM compiler GCC version 9.2.1 20190827 (Red Hat 9.2.1-1)
REM options -cpp -mtune=generic -march=x86-64 -g -O0 -fpre-include=/usr/include/finclude/math-vector-fortran.h
REM seed 228881270 2142928800 1399224540 1757198549 -2088328613 -473958069 757077720 552725778 -1323614857 2139423363 670924822 -338809384 1943972548 -606755100 -1557530578 139798233 116416645 1172407304 1108326378 -1245855411 -777632103 1552899081 -1017997009 -721864522 -1671677964 -1833921253 1738235162 -1653279033 -1767431633 -1428067755 942743131 -2067787228 1619925226
REM
CELL 1.54180   50.00000   50.00000   50.00000   90.00000   90.00000   90.00000
LATT -1
SFAC C  
C      1  0.4856960000000  0.5266610000000  0.4899380000000 1.0
C      1  0.5406730000000  0.5725420000000  0.4716440000000 1.0
C      1  0.4530760000000  0.5567670000000  0.5162930000000 1.0
C      1  0.5067810000000  0.4772640000000  0.5168930000000 1.0
C      1  0.5091710000000  0.5718960000000  0.4764370000000 1.0
C      1  0.5484790000000  0.4196090000000  0.4962810000000 1.0
C      1  0.5229380000000  0.4387170000000  0.5482720000000 1.0
C      1  0.4700420000000  0.5347880000000  0.5115410000000 1.0
C      1  0.4510250000000  0.4973580000000  0.5360540000000 1.0
C      1  0.5782070000000  0.5087560000000  0.4691520000000 1.0
C      1  0.5418380000000  0.5773550000000  0.4996360000000 1.0
C      1  0.4204140000000  0.5247750000000  0.5113950000000 1.0
C      1  0.4558780000000  0.4825150000000  0.5113510000000 1.0
C      1  0.4649320000000  0.5574050000000  0.5558590000000 1.0
C      1  0.5881250000000  0.4749150000000  0.5063390000000 1.0
C      1  0.5130000000000  0.4107220000000  0.4772510000000 1.0
C      1  0.5178140000000  0.4565260000000  0.5779100000000 1.0
C      1  0.4773960000000  0.4872740000000  0.4704520000000 1.0
C      1  0.4623980000000  0.5185860000000  0.4398990000000 1.0
C      1  0.5578230000000  0.5140980000000  0.4849240000000 1.0
C      1  0.4464570000000  0.5310810000000  0.4594570000000 1.0
C      1  0.4543260000000  0.4606010000000  0.5658290000000 1.0
C      1  0.5420170000000  0.5394830000000  0.5534640000000 1.0
C      1  0.5205230000000  0.4213610000000  0.5041250000000 1.0
C      1  0.5163990000000  0.5435490000000  0.5850010000000 1.0
C      1  0.5219360000000  0.4497290000000  0.5164740000000 1.0
C      1  0.5833160000000  0.4700400000000  0.4777090000000 1.0
C      1  0.5009360000000  0.4721110000000  0.5607650000000 1.0
C      1  0.4379770000000  0.4582370000000  0.5055890000000 1.0
C      1  0.5511070000000  0.5306060000000  0.4363900000000 1.0
C      1  0.5084530000000  0.5061420000000  0.4982590000000 1.0
C      1  0.5218380000000  0.5038040000000  0.5883100000000 1.0
C      1  0.5209390000000  0.5877580000000  0.5162840000000 1.0
C      1  0.5175920000000  0.4591960000000  0.4227270000000 1.0
C      1  0.5043580000000  0.4467140000000  0.4458980000000 1.0
C      1  0.5109640000000  0.4920100000000  0.5418250000000 1.0
C      1  0.5311780000000  0.5478170000000  0.4286360000000 1.0
C      1  0.4341790000000  0.5096710000000  0.4733310000000 1.0
C      1  0.4912900000000  0.4968660000000  0.4214800000000 1.0
C      1  0.4135280000000  0.4833030000000  0.5282740000000 1.0
C      1  0.4962460000000  0.4244330000000  0.5473230000000 1.0
C      1  0.5365190000000  0.4809140000000  0.5849320000000 1.0
C      1  0.5518060000000  0.4434780000000  0.5460960000000 1.0
C      1  0.5593810000000  0.5460260000000  0.5324090000000 1.0
C      1  0.5319280000000  0.4780910000000  0.4712950000000 1.0
C      1  0.4670020000000  0.4279730000000  0.4677370000000 1.0
C      1  0.4689480000000  0.5746510000000  0.5330750000000 1.0
C      1  0.4668860000000  0.4448950000000  0.5305530000000 1.0
C      1  0.4998450000000  0.5438300000000  0.4719570000000 1.0
C      1  0.5764180000000  0.5230900000000  0.5378660000000 1.0
C      1  0.4863370000000  0.5813310000000  0.4604040000000 1.0
C      1  0.5632470000000  0.5408380000000  0.4875670000000 1.0
C      1  0.4906990000000  0.5432110000000  0.5538440000000 1.0
C      1  0.4275360000000  0.5518890000000  0.5031800000000 1.0
C      1  0.4401060000000  0.5583600000000  0.4525620000000 1.0
C      1  0.5455430000000  0.4548720000000  0.4297950000000 1.0
C      1  0.4842140000000  0.4203860000000  0.5198140000000 1.0
C      1  0.5128980000000  0.5240950000000  0.4566700000000 1.0
C      1  0.5810130000000  0.4864950000000  0.4531790000000 1.0
C      1  0.4937110000000  0.4220540000000  0.4580630000000 1.0
C      1  0.4600380000000  0.5621500000000  0.4306660000000 1.0
C      1  0.4929680000000  0.4708090000000  0.5874750000000 1.0
C      1  0.4977610000000  0.5862790000000  0.5002880000000 1.0
C      1  0.5594870000000  0.4809350000000  0.4328400000000 1.0
C      1  0.4098650000000  0.4960780000000  0.5026240000000 1.0
C      1  0.5168060000000  0.5564710000000  0.5591630000000 1.0
C      1  0.4384870000000  0.5694200000000  0.4800460000000 1.0
C      1  0.4394060000000  0.5420550000000  0.5572410000000 1.0
C      1  0.4190310000000  0.4698450000000  0.4878660000000 1.0
C      1  0.4976450000000  0.5731360000000  0.5267560000000 1.0
C      1  0.4649380000000  0.5790380000000  0.4787750000000 1.0
C      1  0.4506510000000  0.4921800000000  0.4306470000000 1.0
C      1  0.5106340000000  0.4594670000000  0.4715520000000 1.0
C      1  0.4726540000000  0.4377480000000  0.5590150000000 1.0
C      1  0.5614540000000  0.5181890000000  0.5621850000000 1.0
C      1  0.4359510000000  0.4456450000000  0.5312350000000 1.0
C      1  0.4805650000000  0.4674630000000  0.5127990000000 1.0
C      1  0.5580020000000  0.4893130000000  0.5670750000000 1.0
C      1  0.5043630000000  0.5502600000000  0.4198720000000 1.0
C      1  0.4322830000000  0.5200070000000  0.5373850000000 1.0
C      1  0.4912750000000  0.5045870000000  0.4497870000000 1.0
C      1  0.4585280000000  0.5005890000000  0.4874620000000 1.0
C      1  0.4726920000000  0.5133150000000  0.5293730000000 1.0
C      1  0.4906630000000  0.5256780000000  0.4110030000000 1.0
C      1  0.4954620000000  0.5171750000000  0.5442890000000 1.0
C      1  0.5582320000000  0.4704520000000  0.5452470000000 1.0
C      1  0.5295160000000  0.5058180000000  0.4743360000000 1.0
C      1  0.5508300000000  0.4477530000000  0.5039240000000 1.0
C      1  0.5490830000000  0.4389770000000  0.4535360000000 1.0
C      1  0.4309130000000  0.4647520000000  0.4610350000000 1.0
C      1  0.5548700000000  0.4976440000000  0.5114690000000 1.0
C      1  0.4279640000000  0.4672340000000  0.5496520000000 1.0
C      1  0.4658380000000  0.5366850000000  0.4186850000000 1.0
C      1  0.5427660000000  0.5027310000000  0.4267730000000 1.0
C      1  0.5187860000000  0.4878990000000  0.4178520000000 1.0
C      1  0.5354130000000  0.5056230000000  0.5304150000000 1.0
C      1  0.5540410000000  0.4602600000000  0.4757500000000 1.0
C      1  0.4660270000000  0.4204330000000  0.4959470000000 1.0
C      1  0.5716550000000  0.4534030000000  0.5245960000000 1.0
C      1  0.4868280000000  0.5701400000000  0.4338590000000 1.0
C      1  0.5003560000000  0.5201460000000  0.5904390000000 1.0
C      1  0.5452220000000  0.5494220000000  0.5080890000000 1.0
C      1  0.5213770000000  0.5259560000000  0.5161780000000 1.0
C      1  0.4558930000000  0.4522040000000  0.4506140000000 1.0
C      1  0.5829730000000  0.5010600000000  0.5182370000000 1.0
C      1  0.4654630000000  0.4795330000000  0.5850120000000 1.0
C      1  0.5561310000000  0.5506140000000  0.4610290000000 1.0
C      1  0.5407530000000  0.4157770000000  0.4681540000000 1.0
C      1  0.4674580000000  0.4699560000000  0.4314130000000 1.0
C      1  0.4698850000000  0.5089360000000  0.5856520000000 1.0
C      1  0.4853180000000  0.4642410000000  0.4838840000000 1.0
C      1  0.4296410000000  0.4912470000000  0.4504800000000 1.0
C      1  0.4498600000000  0.5237560000000  0.5746530000000 1.0
END
