TITL C-2441154-10-779 0.0841210253233312 125000 -26413.24363161 0 0 190 (C1) n - 1
REM
REM in /home/bkarasulu/work/CARBON/AIRSS/Generating-Clusters/ReaxFF-fromJPCA2015/Units_Real/with-SteepDescent/Higher-Symm
REM
REM
REM
REM
REM
REM ./C.cell (1df0a924f5614ab8850e4351716899ee)
REM
REM compiler GCC version 9.2.1 20190827 (Red Hat 9.2.1-1)
REM options -cpp -mtune=generic -march=x86-64 -g -O0 -fpre-include=/usr/include/finclude/math-vector-fortran.h
REM seed 60051338 1280841096 292864331 1874004846 -1848211752 2070481209 -1767939851 -789537947 -1624263041 -2033863295 1378978955 1122138371 -670303009 -640521141 -65213535 2091709271 -1108881072 -1645638636 598787214 1008356345 -1017600035 789412715 -1728978319 1226159929 -1480130461 1366143944 928263916 1400676876 -2139540775 422657945 -1995442336 752485850 653326554
REM
CELL 1.54180   50.00000   50.00000   50.00000   90.00000   90.00000   90.00000
LATT -1
SFAC C  
C      1  0.4957050000000  0.5802930000000  0.5589680000000 1.0
C      1  0.5612910000000  0.4936210000000  0.5774510000000 1.0
C      1  0.5761300000000  0.5667660000000  0.4923910000000 1.0
C      1  0.5012550000000  0.4319680000000  0.5601300000000 1.0
C      1  0.5031460000000  0.5810430000000  0.4397000000000 1.0
C      1  0.4903080000000  0.4188830000000  0.4350790000000 1.0
C      1  0.4339700000000  0.5034620000000  0.5745250000000 1.0
C      1  0.4414530000000  0.4987000000000  0.4263300000000 1.0
C      1  0.5698550000000  0.5081370000000  0.4106090000000 1.0
C      1  0.4239220000000  0.4386000000000  0.4967770000000 1.0
C      1  0.4128690000000  0.5632480000000  0.5074020000000 1.0
C      1  0.5769280000000  0.4401050000000  0.5023130000000 1.0
C      1  0.3953680000000  0.4528880000000  0.5232460000000 1.0
C      1  0.5242470000000  0.3948100000000  0.4615110000000 1.0
C      1  0.4616820000000  0.5258340000000  0.4007880000000 1.0
C      1  0.6086080000000  0.5449520000000  0.5206460000000 1.0
C      1  0.5991380000000  0.4614040000000  0.4743030000000 1.0
C      1  0.4001500000000  0.5380180000000  0.4766180000000 1.0
C      1  0.4629110000000  0.5948040000000  0.4595510000000 1.0
C      1  0.4762520000000  0.3994340000000  0.5449480000000 1.0
C      1  0.5275650000000  0.5966790000000  0.5392220000000 1.0
C      1  0.5426380000000  0.4780730000000  0.3972220000000 1.0
C      1  0.5398720000000  0.5232970000000  0.5995330000000 1.0
C      1  0.4575670000000  0.4739580000000  0.6041490000000 1.0
C      1  0.5193850000000  0.5252860000000  0.5600190000000 1.0
C      1  0.5670440000000  0.5262120000000  0.5113890000000 1.0
C      1  0.5250030000000  0.5517330000000  0.5228930000000 1.0
C      1  0.4779160000000  0.4910840000000  0.5532730000000 1.0
C      1  0.4793860000000  0.5290880000000  0.4480690000000 1.0
C      1  0.5293930000000  0.4918860000000  0.4336900000000 1.0
C      1  0.4336460000000  0.4829960000000  0.5266090000000 1.0
C      1  0.4428410000000  0.5229760000000  0.4945060000000 1.0
C      1  0.5488730000000  0.4838870000000  0.4794200000000 1.0
C      1  0.4695710000000  0.4369180000000  0.5156450000000 1.0
C      1  0.4780590000000  0.5543750000000  0.4832750000000 1.0
C      1  0.5052360000000  0.4381560000000  0.4770860000000 1.0
C      1  0.4436420000000  0.4606510000000  0.5075170000000 1.0
C      1  0.5098820000000  0.4408380000000  0.4466310000000 1.0
C      1  0.4679720000000  0.5049540000000  0.4397630000000 1.0
C      1  0.5577510000000  0.5541610000000  0.5175710000000 1.0
C      1  0.5604950000000  0.4648150000000  0.5001990000000 1.0
C      1  0.4501300000000  0.5501370000000  0.4838200000000 1.0
C      1  0.4932300000000  0.5536270000000  0.4587170000000 1.0
C      1  0.4947380000000  0.4387930000000  0.5323490000000 1.0
C      1  0.5015920000000  0.5653540000000  0.5312870000000 1.0
C      1  0.5487550000000  0.4783470000000  0.4503470000000 1.0
C      1  0.5346940000000  0.5007050000000  0.5556650000000 1.0
C      1  0.4480220000000  0.4856580000000  0.5522490000000 1.0
C      1  0.4371680000000  0.5257290000000  0.4168200000000 1.0
C      1  0.4139260000000  0.4311940000000  0.5268460000000 1.0
C      1  0.5312350000000  0.4071570000000  0.4378460000000 1.0
C      1  0.5670310000000  0.4781660000000  0.4131410000000 1.0
C      1  0.5644510000000  0.5255120000000  0.5837970000000 1.0
C      1  0.4332060000000  0.4784430000000  0.5893790000000 1.0
C      1  0.5947330000000  0.5680940000000  0.5296320000000 1.0
C      1  0.5821200000000  0.4373300000000  0.4717760000000 1.0
C      1  0.4132660000000  0.5640970000000  0.4774480000000 1.0
C      1  0.4724030000000  0.5874760000000  0.4340240000000 1.0
C      1  0.4758640000000  0.4190440000000  0.5660950000000 1.0
C      1  0.5255380000000  0.5783830000000  0.5622560000000 1.0
C      1  0.5120730000000  0.5191650000000  0.4785050000000 1.0
C      1  0.4889640000000  0.4887020000000  0.5246110000000 1.0
C      1  0.5161080000000  0.4584740000000  0.4932910000000 1.0
C      1  0.4990370000000  0.4778830000000  0.4824470000000 1.0
C      1  0.4901910000000  0.5195280000000  0.5190730000000 1.0
C      1  0.5172630000000  0.4773810000000  0.5193360000000 1.0
C      1  0.5330010000000  0.5018560000000  0.5244680000000 1.0
C      1  0.5188740000000  0.4949430000000  0.4775150000000 1.0
C      1  0.4652210000000  0.5078670000000  0.4858290000000 1.0
C      1  0.4878140000000  0.5275450000000  0.4901230000000 1.0
C      1  0.4771160000000  0.4849200000000  0.4975700000000 1.0
C      1  0.5179020000000  0.5254710000000  0.5190690000000 1.0
C      1  0.5771100000000  0.5100250000000  0.4605770000000 1.0
C      1  0.4610910000000  0.5868160000000  0.5216620000000 1.0
C      1  0.4937300000000  0.4724030000000  0.5695720000000 1.0
C      1  0.4239000000000  0.4898530000000  0.4642050000000 1.0
C      1  0.4168970000000  0.5258100000000  0.5373530000000 1.0
C      1  0.5853740000000  0.4702620000000  0.5402790000000 1.0
C      1  0.5387400000000  0.4231730000000  0.5073040000000 1.0
C      1  0.5351220000000  0.5756110000000  0.4898470000000 1.0
C      1  0.4614600000000  0.4146310000000  0.4723900000000 1.0
C      1  0.4899850000000  0.5424770000000  0.5819820000000 1.0
C      1  0.4998930000000  0.4632670000000  0.4330650000000 1.0
C      1  0.5106310000000  0.5391780000000  0.4235840000000 1.0
C      1  0.6134030000000  0.5027340000000  0.5243670000000 1.0
C      1  0.5298260000000  0.6158200000000  0.4911680000000 1.0
C      1  0.4947760000000  0.5282080000000  0.6208780000000 1.0
C      1  0.3849370000000  0.4970400000000  0.5249530000000 1.0
C      1  0.3821930000000  0.4918710000000  0.4713370000000 1.0
C      1  0.6187260000000  0.5104340000000  0.4708130000000 1.0
C      1  0.4767970000000  0.3888220000000  0.5004530000000 1.0
C      1  0.4776410000000  0.6177720000000  0.5009730000000 1.0
C      1  0.5305990000000  0.3828060000000  0.5094720000000 1.0
C      1  0.5043230000000  0.4723070000000  0.6135670000000 1.0
C      1  0.5056520000000  0.5260690000000  0.3848660000000 1.0
C      1  0.4953050000000  0.4740420000000  0.3894910000000 1.0
C      1  0.5150110000000  0.4705400000000  0.4096400000000 1.0
C      1  0.4042940000000  0.5112080000000  0.4639850000000 1.0
C      1  0.4651190000000  0.4078160000000  0.5194190000000 1.0
C      1  0.4883690000000  0.5386930000000  0.4042370000000 1.0
C      1  0.4835300000000  0.4633080000000  0.5952760000000 1.0
C      1  0.5128960000000  0.5374450000000  0.6001990000000 1.0
C      1  0.5979020000000  0.4896640000000  0.4625130000000 1.0
C      1  0.5905710000000  0.5222920000000  0.5271590000000 1.0
C      1  0.4053140000000  0.4784890000000  0.5319950000000 1.0
C      1  0.5373990000000  0.5944010000000  0.5102320000000 1.0
C      1  0.5381240000000  0.4016690000000  0.4884610000000 1.0
C      1  0.4602490000000  0.6027090000000  0.4844460000000 1.0
C      1  0.5612560000000  0.4748890000000  0.5268620000000 1.0
C      1  0.5242100000000  0.5578390000000  0.4740870000000 1.0
C      1  0.4901330000000  0.5236200000000  0.5597100000000 1.0
C      1  0.4414270000000  0.5171190000000  0.5235150000000 1.0
C      1  0.4423400000000  0.4741350000000  0.4806520000000 1.0
C      1  0.5601470000000  0.5151390000000  0.4839870000000 1.0
C      1  0.4757600000000  0.4373100000000  0.4830900000000 1.0
C      1  0.4751680000000  0.5603410000000  0.5233660000000 1.0
C      1  0.5235550000000  0.4372780000000  0.5265020000000 1.0
C      1  0.5210360000000  0.4752900000000  0.5614870000000 1.0
C      1  0.5223920000000  0.5182020000000  0.4392760000000 1.0
C      1  0.4787970000000  0.4759650000000  0.4456700000000 1.0
C      1  0.5671400000000  0.4291470000000  0.5354650000000 1.0
C      1  0.5312230000000  0.5733670000000  0.4301650000000 1.0
C      1  0.4362060000000  0.5323520000000  0.5758610000000 1.0
C      1  0.4246570000000  0.5663860000000  0.5344510000000 1.0
C      1  0.4249720000000  0.4363070000000  0.4658040000000 1.0
C      1  0.5680060000000  0.5666110000000  0.4651180000000 1.0
C      1  0.4637320000000  0.4296370000000  0.4298450000000 1.0
C      1  0.4650400000000  0.5720990000000  0.5689660000000 1.0
C      1  0.5293450000000  0.4288590000000  0.5696020000000 1.0
C      1  0.5655350000000  0.4634910000000  0.5758620000000 1.0
C      1  0.5665090000000  0.5318620000000  0.4268660000000 1.0
C      1  0.4321490000000  0.4711170000000  0.4274590000000 1.0
C      1  0.4530490000000  0.4543980000000  0.4158510000000 1.0
C      1  0.4133710000000  0.4591550000000  0.4515430000000 1.0
C      1  0.4455480000000  0.4222090000000  0.4521450000000 1.0
C      1  0.5406580000000  0.5482830000000  0.4153160000000 1.0
C      1  0.5430320000000  0.4489940000000  0.5865900000000 1.0
C      1  0.4594620000000  0.5480790000000  0.5893840000000 1.0
C      1  0.5827410000000  0.5403820000000  0.4510770000000 1.0
C      1  0.5787490000000  0.4480280000000  0.5546430000000 1.0
C      1  0.4209390000000  0.5472650000000  0.5558410000000 1.0
C      1  0.5491500000000  0.5839780000000  0.4509520000000 1.0
C      1  0.5466900000000  0.4141480000000  0.5497570000000 1.0
C      1  0.4470140000000  0.5795420000000  0.5472230000000 1.0
C      1  0.3950020000000  0.5409700000000  0.5049650000000 1.0
C      1  0.5020080000000  0.3874290000000  0.5392570000000 1.0
C      1  0.5483940000000  0.5065450000000  0.3896910000000 1.0
C      1  0.6041240000000  0.4549920000000  0.5021620000000 1.0
C      1  0.6030650000000  0.5540320000000  0.4916370000000 1.0
C      1  0.3959390000000  0.4494910000000  0.4941980000000 1.0
C      1  0.5004890000000  0.6056850000000  0.5442770000000 1.0
C      1  0.4955770000000  0.3952330000000  0.4521000000000 1.0
C      1  0.5079730000000  0.6052880000000  0.4568780000000 1.0
C      1  0.4632560000000  0.4998110000000  0.3871500000000 1.0
C      1  0.4661400000000  0.5006680000000  0.6108780000000 1.0
C      1  0.5458640000000  0.4941220000000  0.6032890000000 1.0
C      1  0.4339710000000  0.5511310000000  0.4338360000000 1.0
C      1  0.4278640000000  0.4332720000000  0.5513730000000 1.0
C      1  0.5401800000000  0.4330470000000  0.4366660000000 1.0
C      1  0.5713820000000  0.4661310000000  0.4383340000000 1.0
C      1  0.5620030000000  0.5483070000000  0.5663960000000 1.0
C      1  0.4366430000000  0.4580450000000  0.5662160000000 1.0
C      1  0.5705970000000  0.5654310000000  0.5433350000000 1.0
C      1  0.5662350000000  0.4392750000000  0.4477200000000 1.0
C      1  0.4344760000000  0.5615070000000  0.4624660000000 1.0
C      1  0.4538430000000  0.5680140000000  0.4274820000000 1.0
C      1  0.4528410000000  0.4345280000000  0.5624310000000 1.0
C      1  0.5329090000000  0.5502030000000  0.5640660000000 1.0
C      1  0.4744760000000  0.3916280000000  0.4724550000000 1.0
C      1  0.4670500000000  0.4709370000000  0.3955750000000 1.0
C      1  0.3908020000000  0.4641230000000  0.4702990000000 1.0
C      1  0.5360440000000  0.6078700000000  0.4629290000000 1.0
C      1  0.5310560000000  0.3918200000000  0.5377770000000 1.0
C      1  0.4780570000000  0.6094670000000  0.5273860000000 1.0
C      1  0.5334700000000  0.5310260000000  0.3905250000000 1.0
C      1  0.5319670000000  0.4686660000000  0.6060430000000 1.0
C      1  0.4663710000000  0.5297430000000  0.6138300000000 1.0
C      1  0.6082910000000  0.5380490000000  0.4681380000000 1.0
C      1  0.6083240000000  0.4727060000000  0.5253580000000 1.0
C      1  0.3903260000000  0.5242690000000  0.5267140000000 1.0
C      1  0.3798790000000  0.4979370000000  0.4980240000000 1.0
C      1  0.5010810000000  0.3802630000000  0.5120500000000 1.0
C      1  0.4912110000000  0.5007690000000  0.3793870000000 1.0
C      1  0.6192520000000  0.5009440000000  0.4971020000000 1.0
C      1  0.5006740000000  0.6121140000000  0.4846280000000 1.0
C      1  0.4929500000000  0.4987640000000  0.6183970000000 1.0
C      1  0.4695250000000  0.5331880000000  0.5336830000000 1.0
C      1  0.5333350000000  0.4622560000000  0.5381970000000 1.0
C      1  0.5350800000000  0.5317790000000  0.4666350000000 1.0
C      1  0.4648870000000  0.4626460000000  0.4670470000000 1.0
END
