TITL C-2441156-4686-1385 0.0445231399781134 125000 -11034.2697891919 0 0 83 (C1) n - 1
REM
REM in /home/bkarasulu/work/CARBON/AIRSS/Generating-Clusters/ReaxFF-fromJPCA2015/Units_Real/with-SteepDescent/Higher-Symm
REM
REM
REM
REM
REM
REM ./C.cell (1df0a924f5614ab8850e4351716899ee)
REM
REM compiler GCC version 9.2.1 20190827 (Red Hat 9.2.1-1)
REM options -cpp -mtune=generic -march=x86-64 -g -O0 -fpre-include=/usr/include/finclude/math-vector-fortran.h
REM seed -94452927 -1718737937 1713324860 1581239608 -910080986 -940618697 -2140368086 106247369 1504880973 1858509991 -953626680 -1273305959 -533813359 1534887521 -574642050 550150440 925753763 466522255 -1129616736 -119992975 -2076353807 -2075085318 -1145357372 -546400992 1751724422 1207247513 -192038474 -1737671844 -1010021483 1698607829 -2088957091 737727451 -369757471
REM
CELL 1.54180   50.00000   50.00000   50.00000   90.00000   90.00000   90.00000
LATT -1
SFAC C  
C      1  0.5457860000000  0.5395690000000  0.5517730000000 1.0
C      1  0.4352280000000  0.5405660000000  0.5119520000000 1.0
C      1  0.5219150000000  0.5394510000000  0.4356780000000 1.0
C      1  0.5179660000000  0.4746360000000  0.4790520000000 1.0
C      1  0.5096800000000  0.4750950000000  0.5273320000000 1.0
C      1  0.4724530000000  0.4746930000000  0.4961240000000 1.0
C      1  0.5554400000000  0.4382030000000  0.5060680000000 1.0
C      1  0.4644070000000  0.4362630000000  0.5440890000000 1.0
C      1  0.4800590000000  0.4364370000000  0.4472210000000 1.0
C      1  0.5179810000000  0.4269540000000  0.4780160000000 1.0
C      1  0.5098650000000  0.4278020000000  0.5271160000000 1.0
C      1  0.4713750000000  0.4279970000000  0.4952790000000 1.0
C      1  0.5154380000000  0.5451600000000  0.5245200000000 1.0
C      1  0.4676140000000  0.5459990000000  0.5001040000000 1.0
C      1  0.5115420000000  0.5451220000000  0.4749570000000 1.0
C      1  0.5628770000000  0.5013640000000  0.4835390000000 1.0
C      1  0.4860260000000  0.4991660000000  0.5696060000000 1.0
C      1  0.4524970000000  0.5003550000000  0.4554320000000 1.0
C      1  0.5170720000000  0.5743110000000  0.4787130000000 1.0
C      1  0.5106230000000  0.5746470000000  0.5253690000000 1.0
C      1  0.4732850000000  0.5763640000000  0.4966400000000 1.0
C      1  0.4578520000000  0.4592090000000  0.5603610000000 1.0
C      1  0.4690970000000  0.4592660000000  0.4339640000000 1.0
C      1  0.5741150000000  0.4603460000000  0.5076850000000 1.0
C      1  0.4642500000000  0.5704630000000  0.5443310000000 1.0
C      1  0.4805530000000  0.5698130000000  0.4472490000000 1.0
C      1  0.5562640000000  0.5698610000000  0.5097070000000 1.0
C      1  0.4817960000000  0.4290010000000  0.5222910000000 1.0
C      1  0.4894510000000  0.4287530000000  0.4732750000000 1.0
C      1  0.5280520000000  0.4292630000000  0.5045240000000 1.0
C      1  0.4259720000000  0.5025780000000  0.4992690000000 1.0
C      1  0.5378670000000  0.5025820000000  0.4365040000000 1.0
C      1  0.5370920000000  0.5024680000000  0.5651870000000 1.0
C      1  0.5105790000000  0.5136970000000  0.4331910000000 1.0
C      1  0.5526740000000  0.5137700000000  0.5430200000000 1.0
C      1  0.4357910000000  0.5142990000000  0.5242510000000 1.0
C      1  0.4965960000000  0.4503260000000  0.4306900000000 1.0
C      1  0.5610240000000  0.4490540000000  0.5302300000000 1.0
C      1  0.4411720000000  0.4490050000000  0.5390000000000 1.0
C      1  0.4356780000000  0.5375410000000  0.4598220000000 1.0
C      1  0.5669720000000  0.5378510000000  0.4646670000000 1.0
C      1  0.4972010000000  0.5381120000000  0.5748590000000 1.0
C      1  0.5186790000000  0.4358030000000  0.5538260000000 1.0
C      1  0.4441880000000  0.4370250000000  0.4896290000000 1.0
C      1  0.5375600000000  0.4361690000000  0.4584470000000 1.0
C      1  0.5281430000000  0.4777770000000  0.5059290000000 1.0
C      1  0.4811590000000  0.4781560000000  0.5231000000000 1.0
C      1  0.4903660000000  0.4781390000000  0.4732220000000 1.0
C      1  0.5266020000000  0.4754390000000  0.5553650000000 1.0
C      1  0.4387710000000  0.4763800000000  0.4962300000000 1.0
C      1  0.5348500000000  0.4758540000000  0.4515530000000 1.0
C      1  0.4332050000000  0.4517670000000  0.5120810000000 1.0
C      1  0.5239510000000  0.4517350000000  0.4382650000000 1.0
C      1  0.5431810000000  0.4512650000000  0.5516590000000 1.0
C      1  0.4791550000000  0.5469180000000  0.5542390000000 1.0
C      1  0.4621300000000  0.5483000000000  0.4549360000000 1.0
C      1  0.5586300000000  0.5486520000000  0.4898660000000 1.0
C      1  0.4437100000000  0.5539910000000  0.5342780000000 1.0
C      1  0.5007380000000  0.5540360000000  0.4355480000000 1.0
C      1  0.5556320000000  0.5543150000000  0.5331720000000 1.0
C      1  0.5431380000000  0.5035160000000  0.5148860000000 1.0
C      1  0.4638500000000  0.5036880000000  0.5253690000000 1.0
C      1  0.4917520000000  0.5032390000000  0.4554680000000 1.0
C      1  0.5173890000000  0.5166140000000  0.5193820000000 1.0
C      1  0.4741280000000  0.5166830000000  0.5022300000000 1.0
C      1  0.5094300000000  0.5161760000000  0.4746090000000 1.0
C      1  0.4718530000000  0.5239050000000  0.5695990000000 1.0
C      1  0.4534720000000  0.5247780000000  0.4400390000000 1.0
C      1  0.5760210000000  0.5259250000000  0.4897180000000 1.0
C      1  0.5571310000000  0.5122830000000  0.4557490000000 1.0
C      1  0.5112540000000  0.5124790000000  0.5741570000000 1.0
C      1  0.4321450000000  0.5120520000000  0.4728290000000 1.0
C      1  0.5709810000000  0.4736580000000  0.4826380000000 1.0
C      1  0.4815040000000  0.4716260000000  0.5700850000000 1.0
C      1  0.4495590000000  0.4730790000000  0.4495510000000 1.0
C      1  0.4824960000000  0.5823450000000  0.5236710000000 1.0
C      1  0.4895250000000  0.5821170000000  0.4729990000000 1.0
C      1  0.5293600000000  0.5816150000000  0.5041960000000 1.0
C      1  0.5564950000000  0.4583180000000  0.4630460000000 1.0
C      1  0.5063360000000  0.4578140000000  0.5689400000000 1.0
C      1  0.4377400000000  0.4592810000000  0.4716080000000 1.0
C      1  0.4980970000000  0.5471250000000  0.5009190000000 1.0
C      1  0.5003660000000  0.5083050000000  0.4993420000000 1.0
END
