TITL C-2441159-1093-1383 0.128469232816443 125000 -22970.2497086886 0 0 181 (C1) n - 1
REM
REM in /home/bkarasulu/work/CARBON/AIRSS/Generating-Clusters/ReaxFF-fromJPCA2015/Units_Real/with-SteepDescent/Higher-Symm
REM
REM
REM
REM
REM
REM ./C.cell (1df0a924f5614ab8850e4351716899ee)
REM
REM compiler GCC version 9.2.1 20190827 (Red Hat 9.2.1-1)
REM options -cpp -mtune=generic -march=x86-64 -g -O0 -fpre-include=/usr/include/finclude/math-vector-fortran.h
REM seed 1826854310 -2121738709 -1509191608 -1555489401 576971009 692081633 -1033399828 1615728154 1841617245 -2039387090 186743939 271841208 1145820786 -12496684 -940819857 -178362054 -1133429010 -1312439208 788150552 -2093043747 1794600089 -65796331 970703763 117758457 -1123367826 -1232522615 655033872 1596683045 1862502953 1016627510 480302997 -1547401367 1069637095
REM
CELL 1.54180   50.00000   50.00000   50.00000   90.00000   90.00000   90.00000
LATT -1
SFAC C  
C      1  0.5729160000000  0.5640560000000  0.4597530000000 1.0
C      1  0.5751270000000  0.5654030000000  0.5404760000000 1.0
C      1  0.5060700000000  0.5692860000000  0.5813520000000 1.0
C      1  0.4519230000000  0.5736360000000  0.5592720000000 1.0
C      1  0.4246500000000  0.5632670000000  0.5106760000000 1.0
C      1  0.4492340000000  0.5662120000000  0.4339420000000 1.0
C      1  0.5269750000000  0.5739040000000  0.4252190000000 1.0
C      1  0.4929940000000  0.5810690000000  0.4693270000000 1.0
C      1  0.5204250000000  0.5819640000000  0.4770030000000 1.0
C      1  0.5339610000000  0.5785980000000  0.5006730000000 1.0
C      1  0.5219160000000  0.5779700000000  0.5240480000000 1.0
C      1  0.4959430000000  0.5877900000000  0.5259400000000 1.0
C      1  0.4723250000000  0.5819470000000  0.5123720000000 1.0
C      1  0.4704230000000  0.5803550000000  0.4853250000000 1.0
C      1  0.4852020000000  0.5122820000000  0.6095760000000 1.0
C      1  0.4041950000000  0.5082650000000  0.5588390000000 1.0
C      1  0.3996590000000  0.5086780000000  0.4593410000000 1.0
C      1  0.4677520000000  0.5132990000000  0.3980980000000 1.0
C      1  0.5641530000000  0.5112570000000  0.4113780000000 1.0
C      1  0.6068740000000  0.5141950000000  0.4849500000000 1.0
C      1  0.5722610000000  0.5165670000000  0.5747470000000 1.0
C      1  0.4907370000000  0.4803120000000  0.4592650000000 1.0
C      1  0.5123930000000  0.4642710000000  0.4689510000000 1.0
C      1  0.5319390000000  0.4694470000000  0.5128900000000 1.0
C      1  0.5146660000000  0.4675590000000  0.5343390000000 1.0
C      1  0.4851580000000  0.4705990000000  0.5325290000000 1.0
C      1  0.4660630000000  0.4679590000000  0.5080970000000 1.0
C      1  0.4678820000000  0.4729500000000  0.4798990000000 1.0
C      1  0.4898460000000  0.4951450000000  0.4048930000000 1.0
C      1  0.5675420000000  0.4934350000000  0.4367230000000 1.0
C      1  0.5996150000000  0.4961400000000  0.5078270000000 1.0
C      1  0.5475480000000  0.4977590000000  0.5831590000000 1.0
C      1  0.4621490000000  0.4985140000000  0.5961470000000 1.0
C      1  0.4100650000000  0.4953300000000  0.5299270000000 1.0
C      1  0.4224580000000  0.4928030000000  0.4471290000000 1.0
C      1  0.4279650000000  0.5386170000000  0.5456120000000 1.0
C      1  0.4309510000000  0.5412260000000  0.4707060000000 1.0
C      1  0.4843050000000  0.5456600000000  0.4158350000000 1.0
C      1  0.5391450000000  0.5357650000000  0.4405640000000 1.0
C      1  0.5671030000000  0.5370100000000  0.5051840000000 1.0
C      1  0.5402450000000  0.5402670000000  0.5565990000000 1.0
C      1  0.4827760000000  0.5388200000000  0.5608820000000 1.0
C      1  0.4635510000000  0.5064810000000  0.5122470000000 1.0
C      1  0.4552850000000  0.5133370000000  0.4876060000000 1.0
C      1  0.5030910000000  0.5073410000000  0.4583200000000 1.0
C      1  0.5297290000000  0.5055950000000  0.4731270000000 1.0
C      1  0.5409630000000  0.4914580000000  0.4978280000000 1.0
C      1  0.5170250000000  0.5070110000000  0.5365500000000 1.0
C      1  0.4910610000000  0.4979330000000  0.5423390000000 1.0
C      1  0.4747250000000  0.4877290000000  0.4350930000000 1.0
C      1  0.5390950000000  0.4922620000000  0.4471000000000 1.0
C      1  0.5675670000000  0.4925380000000  0.4882570000000 1.0
C      1  0.5394420000000  0.4942380000000  0.5501310000000 1.0
C      1  0.4955970000000  0.4934530000000  0.5691750000000 1.0
C      1  0.4440380000000  0.4939980000000  0.5342350000000 1.0
C      1  0.4435410000000  0.4886930000000  0.4761220000000 1.0
C      1  0.4530070000000  0.5991090000000  0.5233080000000 1.0
C      1  0.4440470000000  0.5879970000000  0.4764670000000 1.0
C      1  0.4883270000000  0.5972870000000  0.4460150000000 1.0
C      1  0.5365980000000  0.5973160000000  0.4594080000000 1.0
C      1  0.5611680000000  0.5863110000000  0.5015220000000 1.0
C      1  0.5350010000000  0.5920170000000  0.5452340000000 1.0
C      1  0.4912610000000  0.5998940000000  0.5523500000000 1.0
C      1  0.5032110000000  0.5618520000000  0.4210360000000 1.0
C      1  0.5535480000000  0.5609310000000  0.4390140000000 1.0
C      1  0.5786390000000  0.5630010000000  0.5115670000000 1.0
C      1  0.5311190000000  0.5583880000000  0.5741760000000 1.0
C      1  0.4761260000000  0.5647750000000  0.5722690000000 1.0
C      1  0.4313410000000  0.5659620000000  0.5376750000000 1.0
C      1  0.4340210000000  0.5667930000000  0.4582590000000 1.0
C      1  0.4711030000000  0.4137770000000  0.4291690000000 1.0
C      1  0.5290340000000  0.4082180000000  0.4428680000000 1.0
C      1  0.5658470000000  0.4115150000000  0.4853200000000 1.0
C      1  0.5556980000000  0.4093260000000  0.5379340000000 1.0
C      1  0.4940140000000  0.4142670000000  0.5740970000000 1.0
C      1  0.4479610000000  0.4125020000000  0.5368160000000 1.0
C      1  0.4412330000000  0.4084350000000  0.4776050000000 1.0
C      1  0.5278960000000  0.3985860000000  0.5256520000000 1.0
C      1  0.4999920000000  0.3987900000000  0.5365860000000 1.0
C      1  0.4726700000000  0.3996310000000  0.5229490000000 1.0
C      1  0.4677890000000  0.3983140000000  0.4889990000000 1.0
C      1  0.4894270000000  0.3988950000000  0.4689200000000 1.0
C      1  0.5177790000000  0.3963870000000  0.4676610000000 1.0
C      1  0.5354580000000  0.4020990000000  0.4927780000000 1.0
C      1  0.4800370000000  0.4303750000000  0.5256040000000 1.0
C      1  0.4718280000000  0.4314920000000  0.4843400000000 1.0
C      1  0.4863290000000  0.4296400000000  0.4610720000000 1.0
C      1  0.5122870000000  0.4401990000000  0.4611680000000 1.0
C      1  0.5336370000000  0.4311310000000  0.4979200000000 1.0
C      1  0.5268000000000  0.4310970000000  0.5251330000000 1.0
C      1  0.5029960000000  0.4284390000000  0.5398850000000 1.0
C      1  0.6015470000000  0.4659900000000  0.5045000000000 1.0
C      1  0.5562170000000  0.4679370000000  0.5850380000000 1.0
C      1  0.4671490000000  0.4681980000000  0.5974830000000 1.0
C      1  0.4038840000000  0.4639130000000  0.5363270000000 1.0
C      1  0.4150600000000  0.4594160000000  0.4474320000000 1.0
C      1  0.4840490000000  0.4660420000000  0.4007600000000 1.0
C      1  0.5710120000000  0.4615750000000  0.4278150000000 1.0
C      1  0.4509270000000  0.5211890000000  0.5458320000000 1.0
C      1  0.4210690000000  0.5368550000000  0.4968210000000 1.0
C      1  0.4630450000000  0.5141250000000  0.4408310000000 1.0
C      1  0.5195760000000  0.5114830000000  0.4354960000000 1.0
C      1  0.5661750000000  0.5225780000000  0.4803080000000 1.0
C      1  0.5617760000000  0.5039880000000  0.5359120000000 1.0
C      1  0.5004720000000  0.5207420000000  0.5736140000000 1.0
C      1  0.5484990000000  0.4375570000000  0.5431720000000 1.0
C      1  0.4999690000000  0.4411420000000  0.5662050000000 1.0
C      1  0.4542350000000  0.4409210000000  0.5389640000000 1.0
C      1  0.4404840000000  0.4358280000000  0.4904190000000 1.0
C      1  0.4703780000000  0.4410130000000  0.4383220000000 1.0
C      1  0.5302210000000  0.4374080000000  0.4428510000000 1.0
C      1  0.5577520000000  0.4409590000000  0.4860900000000 1.0
C      1  0.4681980000000  0.5292300000000  0.5252330000000 1.0
C      1  0.4694770000000  0.5368340000000  0.4787380000000 1.0
C      1  0.4828060000000  0.5278870000000  0.4554240000000 1.0
C      1  0.5283680000000  0.5357290000000  0.4800220000000 1.0
C      1  0.5387160000000  0.5360470000000  0.5065020000000 1.0
C      1  0.5213290000000  0.5341260000000  0.5310590000000 1.0
C      1  0.4920820000000  0.5429220000000  0.5322310000000 1.0
C      1  0.5631600000000  0.5884500000000  0.4700130000000 1.0
C      1  0.5623490000000  0.5907750000000  0.5364060000000 1.0
C      1  0.5147290000000  0.5948010000000  0.5680770000000 1.0
C      1  0.4620440000000  0.5994950000000  0.5525680000000 1.0
C      1  0.4324970000000  0.5896470000000  0.5040770000000 1.0
C      1  0.4616390000000  0.5901750000000  0.4391910000000 1.0
C      1  0.5174750000000  0.5980590000000  0.4364590000000 1.0
C      1  0.5226930000000  0.5104600000000  0.4036000000000 1.0
C      1  0.5914470000000  0.5107640000000  0.4468670000000 1.0
C      1  0.5893000000000  0.5072530000000  0.5349060000000 1.0
C      1  0.5268520000000  0.5081490000000  0.6031720000000 1.0
C      1  0.4360400000000  0.5077070000000  0.5867140000000 1.0
C      1  0.4019520000000  0.5069140000000  0.5042630000000 1.0
C      1  0.4286690000000  0.5067840000000  0.4228900000000 1.0
C      1  0.4463830000000  0.4669940000000  0.5502540000000 1.0
C      1  0.4288540000000  0.4646460000000  0.4892750000000 1.0
C      1  0.4537900000000  0.4647810000000  0.4343430000000 1.0
C      1  0.5253570000000  0.4600730000000  0.4242390000000 1.0
C      1  0.5698690000000  0.4650400000000  0.4742030000000 1.0
C      1  0.5709860000000  0.4567770000000  0.5410920000000 1.0
C      1  0.5047560000000  0.4669120000000  0.5785880000000 1.0
C      1  0.4573340000000  0.5359140000000  0.4190400000000 1.0
C      1  0.5435860000000  0.5319980000000  0.4115370000000 1.0
C      1  0.5894440000000  0.5336240000000  0.4660100000000 1.0
C      1  0.5684620000000  0.5433150000000  0.5622090000000 1.0
C      1  0.5078610000000  0.5309810000000  0.5997050000000 1.0
C      1  0.4207260000000  0.5287640000000  0.5712960000000 1.0
C      1  0.4041560000000  0.5338080000000  0.4738160000000 1.0
C      1  0.4659240000000  0.4195060000000  0.5699310000000 1.0
C      1  0.4278910000000  0.4200980000000  0.5148450000000 1.0
C      1  0.4439030000000  0.4120080000000  0.4487530000000 1.0
C      1  0.4998690000000  0.4177420000000  0.4237930000000 1.0
C      1  0.5608380000000  0.4143840000000  0.4549830000000 1.0
C      1  0.5745810000000  0.4180490000000  0.5170610000000 1.0
C      1  0.5328230000000  0.4183630000000  0.5722020000000 1.0
C      1  0.5698180000000  0.4379950000000  0.4428220000000 1.0
C      1  0.5875100000000  0.4445250000000  0.5202950000000 1.0
C      1  0.5425890000000  0.4426360000000  0.5830690000000 1.0
C      1  0.4628160000000  0.4442070000000  0.5820740000000 1.0
C      1  0.4130630000000  0.4415560000000  0.5242830000000 1.0
C      1  0.4280660000000  0.4348220000000  0.4447780000000 1.0
C      1  0.5019870000000  0.4452030000000  0.4127790000000 1.0
C      1  0.5495970000000  0.4668730000000  0.4091790000000 1.0
C      1  0.5988670000000  0.4674750000000  0.4758740000000 1.0
C      1  0.5779050000000  0.4706640000000  0.5657700000000 1.0
C      1  0.4953070000000  0.4669800000000  0.6059540000000 1.0
C      1  0.4194600000000  0.4649260000000  0.5614120000000 1.0
C      1  0.4043000000000  0.4644460000000  0.4744370000000 1.0
C      1  0.4555040000000  0.4681960000000  0.4054350000000 1.0
C      1  0.3925050000000  0.4913390000000  0.4815060000000 1.0
C      1  0.4441200000000  0.4958140000000  0.4014560000000 1.0
C      1  0.5464930000000  0.4936610000000  0.3968430000000 1.0
C      1  0.6074010000000  0.4943710000000  0.4644600000000 1.0
C      1  0.5913630000000  0.4973660000000  0.5634560000000 1.0
C      1  0.5059090000000  0.4924420000000  0.6167780000000 1.0
C      1  0.4143130000000  0.4887410000000  0.5780170000000 1.0
C      1  0.4981790000000  0.5165340000000  0.4967940000000 1.0
C      1  0.5007320000000  0.6141090000000  0.5045750000000 1.0
C      1  0.4988710000000  0.5413330000000  0.4928250000000 1.0
C      1  0.4909570000000  0.4388080000000  0.5013190000000 1.0
C      1  0.5085290000000  0.4631250000000  0.4962660000000 1.0
C      1  0.4975350000000  0.4930410000000  0.5005540000000 1.0
END
