TITL C-2441165-58-30 0.0399875389134582 125000 -22438.9972404936 0 0 158 (C1) n - 1
REM
REM in /home/bkarasulu/work/CARBON/AIRSS/Generating-Clusters/ReaxFF-fromJPCA2015/Units_Real/with-SteepDescent/Higher-Symm
REM
REM
REM
REM
REM
REM ./C.cell (1df0a924f5614ab8850e4351716899ee)
REM
REM compiler GCC version 9.2.1 20190827 (Red Hat 9.2.1-1)
REM options -cpp -mtune=generic -march=x86-64 -g -O0 -fpre-include=/usr/include/finclude/math-vector-fortran.h
REM seed 1660553514 -587750830 -839211024 1927247352 -887360498 461109152 -1926401319 -150355030 777649273 1382221292 799384318 127713714 -1477118212 -409324531 -751761408 -1598048994 -10739231 -326008283 -142725171 -57952643 -1204442221 147251937 1247682551 -672975020 1373436854 1906971570 1964562883 324683414 568844957 -96935513 57001236 1505410941 1258043909
REM
CELL 1.54180   50.00000   50.00000   50.00000   90.00000   90.00000   90.00000
LATT -1
SFAC C  
C      1  0.4500000000000  0.5456060000000  0.5757990000000 1.0
C      1  0.5165920000000  0.5658100000000  0.4261340000000 1.0
C      1  0.5665450000000  0.5163800000000  0.5744930000000 1.0
C      1  0.5494580000000  0.4520930000000  0.4240960000000 1.0
C      1  0.4842440000000  0.4342780000000  0.5756770000000 1.0
C      1  0.4343850000000  0.4847550000000  0.4233930000000 1.0
C      1  0.4650470000000  0.5305890000000  0.5048040000000 1.0
C      1  0.5059940000000  0.5360410000000  0.4879250000000 1.0
C      1  0.5360430000000  0.5189840000000  0.5202480000000 1.0
C      1  0.5279010000000  0.4743440000000  0.5004050000000 1.0
C      1  0.4926340000000  0.4503000000000  0.5083000000000 1.0
C      1  0.4605810000000  0.4869290000000  0.4974210000000 1.0
C      1  0.4263960000000  0.4427020000000  0.4591160000000 1.0
C      1  0.4099600000000  0.5390570000000  0.5396800000000 1.0
C      1  0.4887850000000  0.5957440000000  0.4616820000000 1.0
C      1  0.5791010000000  0.5564170000000  0.5355640000000 1.0
C      1  0.5886320000000  0.4631090000000  0.4585680000000 1.0
C      1  0.5113860000000  0.4057630000000  0.5397940000000 1.0
C      1  0.4643020000000  0.5882940000000  0.4473480000000 1.0
C      1  0.5591190000000  0.5775480000000  0.5346620000000 1.0
C      1  0.5882480000000  0.4911440000000  0.4486040000000 1.0
C      1  0.5364600000000  0.4125540000000  0.5537140000000 1.0
C      1  0.4496140000000  0.4255650000000  0.4498110000000 1.0
C      1  0.4022920000000  0.5153100000000  0.5533660000000 1.0
C      1  0.5209390000000  0.4795060000000  0.4538970000000 1.0
C      1  0.4930870000000  0.4787540000000  0.5471450000000 1.0
C      1  0.4793420000000  0.4928440000000  0.4487100000000 1.0
C      1  0.4875640000000  0.5234290000000  0.5480960000000 1.0
C      1  0.5148010000000  0.5245610000000  0.4430210000000 1.0
C      1  0.5312980000000  0.5036160000000  0.5455430000000 1.0
C      1  0.5134840000000  0.4601190000000  0.5559010000000 1.0
C      1  0.4660920000000  0.4671850000000  0.4442990000000 1.0
C      1  0.4510710000000  0.5053170000000  0.5532900000000 1.0
C      1  0.4897670000000  0.5388940000000  0.4426010000000 1.0
C      1  0.5336710000000  0.5464950000000  0.5587290000000 1.0
C      1  0.5473570000000  0.4849930000000  0.4478040000000 1.0
C      1  0.4186110000000  0.5366760000000  0.4478520000000 1.0
C      1  0.4961460000000  0.5943750000000  0.5438700000000 1.0
C      1  0.5703410000000  0.5447710000000  0.4522890000000 1.0
C      1  0.5839380000000  0.4629160000000  0.5539490000000 1.0
C      1  0.5058830000000  0.4090480000000  0.4496940000000 1.0
C      1  0.4266560000000  0.4449500000000  0.5493100000000 1.0
C      1  0.5070180000000  0.5453520000000  0.5476510000000 1.0
C      1  0.5249650000000  0.5211930000000  0.4707240000000 1.0
C      1  0.5348600000000  0.4753400000000  0.5470060000000 1.0
C      1  0.5103800000000  0.4545270000000  0.4467080000000 1.0
C      1  0.4623710000000  0.4800130000000  0.5488080000000 1.0
C      1  0.4689990000000  0.5254000000000  0.4559600000000 1.0
C      1  0.4345500000000  0.4177770000000  0.5057910000000 1.0
C      1  0.3966920000000  0.5170970000000  0.4924190000000 1.0
C      1  0.4618610000000  0.5986870000000  0.5083750000000 1.0
C      1  0.5742210000000  0.5802300000000  0.4897070000000 1.0
C      1  0.6029710000000  0.4818340000000  0.5075230000000 1.0
C      1  0.5357780000000  0.4019730000000  0.4922890000000 1.0
C      1  0.4672030000000  0.5938700000000  0.5366520000000 1.0
C      1  0.5662090000000  0.5718780000000  0.4626230000000 1.0
C      1  0.5978930000000  0.4822820000000  0.5387580000000 1.0
C      1  0.5318650000000  0.4069310000000  0.4630640000000 1.0
C      1  0.4351940000000  0.4205970000000  0.5349710000000 1.0
C      1  0.4029980000000  0.5169840000000  0.4631710000000 1.0
C      1  0.5567060000000  0.4883180000000  0.5832000000000 1.0
C      1  0.5165890000000  0.4468290000000  0.4194090000000 1.0
C      1  0.4649040000000  0.4545600000000  0.5830680000000 1.0
C      1  0.4453550000000  0.5124290000000  0.4165040000000 1.0
C      1  0.4783600000000  0.5507110000000  0.5862340000000 1.0
C      1  0.5336470000000  0.5406810000000  0.4197270000000 1.0
C      1  0.5140500000000  0.5819320000000  0.4495460000000 1.0
C      1  0.5784430000000  0.5299130000000  0.5505970000000 1.0
C      1  0.5663750000000  0.4454550000000  0.4461160000000 1.0
C      1  0.4868870000000  0.4166310000000  0.5526580000000 1.0
C      1  0.4231150000000  0.4703680000000  0.4470930000000 1.0
C      1  0.4350690000000  0.5532800000000  0.5520580000000 1.0
C      1  0.4956620000000  0.4366530000000  0.4629860000000 1.0
C      1  0.4427580000000  0.4647250000000  0.5348500000000 1.0
C      1  0.4441410000000  0.5386530000000  0.4648690000000 1.0
C      1  0.5038210000000  0.5688660000000  0.5316020000000 1.0
C      1  0.5560060000000  0.5253430000000  0.4728420000000 1.0
C      1  0.5569660000000  0.4612400000000  0.5358440000000 1.0
C      1  0.5188870000000  0.5225270000000  0.4005680000000 1.0
C      1  0.5305060000000  0.4902860000000  0.5973440000000 1.0
C      1  0.5053680000000  0.4701240000000  0.4021080000000 1.0
C      1  0.4805850000000  0.4758650000000  0.5963210000000 1.0
C      1  0.4710380000000  0.5089500000000  0.4022090000000 1.0
C      1  0.4936520000000  0.5245690000000  0.5932980000000 1.0
C      1  0.4341730000000  0.5003100000000  0.4917900000000 1.0
C      1  0.4659130000000  0.5587860000000  0.5110770000000 1.0
C      1  0.5382570000000  0.5610330000000  0.4936300000000 1.0
C      1  0.5764620000000  0.4964300000000  0.5077770000000 1.0
C      1  0.5325940000000  0.4423330000000  0.4886440000000 1.0
C      1  0.4684350000000  0.4417270000000  0.5135330000000 1.0
C      1  0.5126810000000  0.3980150000000  0.5111090000000 1.0
C      1  0.4192290000000  0.4385780000000  0.4874210000000 1.0
C      1  0.4030180000000  0.5402830000000  0.5100730000000 1.0
C      1  0.4865440000000  0.6036840000000  0.4902870000000 1.0
C      1  0.5895130000000  0.5620410000000  0.5079640000000 1.0
C      1  0.5941960000000  0.4586840000000  0.4862900000000 1.0
C      1  0.5525360000000  0.4239330000000  0.5015610000000 1.0
C      1  0.4597390000000  0.4048060000000  0.4962420000000 1.0
C      1  0.4064050000000  0.4912750000000  0.5034300000000 1.0
C      1  0.4446780000000  0.5769950000000  0.4988600000000 1.0
C      1  0.5498010000000  0.5851420000000  0.5059710000000 1.0
C      1  0.6024540000000  0.5100740000000  0.4960890000000 1.0
C      1  0.5098600000000  0.5205590000000  0.5117670000000 1.0
C      1  0.5153510000000  0.4921740000000  0.4793610000000 1.0
C      1  0.5023960000000  0.4753270000000  0.5157560000000 1.0
C      1  0.4843410000000  0.4932380000000  0.4796050000000 1.0
C      1  0.4833840000000  0.5110350000000  0.5211450000000 1.0
C      1  0.4808690000000  0.5237500000000  0.4815380000000 1.0
C      1  0.5635170000000  0.5312310000000  0.4279640000000 1.0
C      1  0.5643700000000  0.4618920000000  0.5748230000000 1.0
C      1  0.4981830000000  0.4197380000000  0.4241940000000 1.0
C      1  0.4348490000000  0.4582810000000  0.5751520000000 1.0
C      1  0.4371630000000  0.5386200000000  0.4260340000000 1.0
C      1  0.4954140000000  0.5711230000000  0.5783630000000 1.0
C      1  0.4673280000000  0.4450750000000  0.4625120000000 1.0
C      1  0.4225620000000  0.4982660000000  0.5450840000000 1.0
C      1  0.4554430000000  0.5650340000000  0.4585480000000 1.0
C      1  0.5405190000000  0.5747470000000  0.5567100000000 1.0
C      1  0.5652310000000  0.4972780000000  0.4654140000000 1.0
C      1  0.5466720000000  0.4352160000000  0.5418720000000 1.0
C      1  0.5744640000000  0.5040040000000  0.4258210000000 1.0
C      1  0.5445540000000  0.4362270000000  0.5715180000000 1.0
C      1  0.4705000000000  0.4193160000000  0.4307550000000 1.0
C      1  0.4194500000000  0.4811270000000  0.5676640000000 1.0
C      1  0.4570310000000  0.5637200000000  0.4288930000000 1.0
C      1  0.5146300000000  0.5878370000000  0.5663790000000 1.0
C      1  0.5800320000000  0.5049090000000  0.5367200000000 1.0
C      1  0.5439470000000  0.4337740000000  0.4609200000000 1.0
C      1  0.4644480000000  0.4225860000000  0.5338500000000 1.0
C      1  0.4213770000000  0.4942310000000  0.4627020000000 1.0
C      1  0.4563420000000  0.5668190000000  0.5383050000000 1.0
C      1  0.5365450000000  0.5700720000000  0.4649680000000 1.0
C      1  0.5528540000000  0.4817850000000  0.4187270000000 1.0
C      1  0.5128070000000  0.4456190000000  0.5819880000000 1.0
C      1  0.4568620000000  0.4673780000000  0.4166200000000 1.0
C      1  0.4515400000000  0.5170290000000  0.5807690000000 1.0
C      1  0.4883720000000  0.5550820000000  0.4179020000000 1.0
C      1  0.5433360000000  0.5317370000000  0.5826280000000 1.0
C      1  0.4393420000000  0.5303600000000  0.4928320000000 1.0
C      1  0.4984700000000  0.5657390000000  0.5027960000000 1.0
C      1  0.5539720000000  0.5361830000000  0.5020920000000 1.0
C      1  0.5596790000000  0.4709220000000  0.5077800000000 1.0
C      1  0.5044470000000  0.4331370000000  0.4903810000000 1.0
C      1  0.4497640000000  0.4613480000000  0.5071030000000 1.0
C      1  0.5893360000000  0.5344840000000  0.4983940000000 1.0
C      1  0.5733330000000  0.4447070000000  0.5001180000000 1.0
C      1  0.4887510000000  0.4047370000000  0.4959370000000 1.0
C      1  0.4104040000000  0.4635290000000  0.4980320000000 1.0
C      1  0.4239040000000  0.5564140000000  0.4985810000000 1.0
C      1  0.5118310000000  0.5912980000000  0.4963120000000 1.0
C      1  0.4730550000000  0.5045160000000  0.5967420000000 1.0
C      1  0.4913780000000  0.5295490000000  0.3996400000000 1.0
C      1  0.5221380000000  0.5182050000000  0.5974790000000 1.0
C      1  0.5228630000000  0.4931240000000  0.4064260000000 1.0
C      1  0.5091120000000  0.4705950000000  0.5985240000000 1.0
C      1  0.4784290000000  0.4799960000000  0.4007270000000 1.0
C      1  0.5054790000000  0.5041680000000  0.5597030000000 1.0
C      1  0.5068880000000  0.4978810000000  0.4358280000000 1.0
END
