TITL C-2441169-1362-1435 0.00164250442927058 125000 -8419.77887756915 0 0 57 (C1) n - 1
REM
REM in /home/bkarasulu/work/CARBON/AIRSS/Generating-Clusters/ReaxFF-fromJPCA2015/Units_Real/with-SteepDescent/Higher-Symm
REM
REM
REM
REM
REM
REM ./C.cell (1df0a924f5614ab8850e4351716899ee)
REM
REM compiler GCC version 9.2.1 20190827 (Red Hat 9.2.1-1)
REM options -cpp -mtune=generic -march=x86-64 -g -O0 -fpre-include=/usr/include/finclude/math-vector-fortran.h
REM seed 1562332162 352492441 -608823103 1018835018 -1429376634 -42502642 2100924579 391819269 -1021129564 -1900115992 -380869237 -1665569309 -1159911885 -1872273860 834297095 1637450091 -633455314 -1744687413 1566020530 -1999838505 -624988301 -59248437 2123006556 2013259774 -1255108620 1739856879 -1474217047 1777937758 1266007741 1254104499 2026897561 -1189026509 28950604
REM
CELL 1.54180   50.00000   50.00000   50.00000   90.00000   90.00000   90.00000
LATT -1
SFAC C  
C      1  0.5404280000000  0.4591220000000  0.5060100000000 1.0
C      1  0.5287700000000  0.5567840000000  0.4900180000000 1.0
C      1  0.4737770000000  0.5351960000000  0.4406660000000 1.0
C      1  0.5244210000000  0.5081510000000  0.4965310000000 1.0
C      1  0.5160180000000  0.5653410000000  0.5156230000000 1.0
C      1  0.4938990000000  0.4902260000000  0.5202830000000 1.0
C      1  0.4697500000000  0.4554560000000  0.4799610000000 1.0
C      1  0.4451110000000  0.4923180000000  0.5294420000000 1.0
C      1  0.4960980000000  0.5205750000000  0.4321970000000 1.0
C      1  0.5455810000000  0.5355440000000  0.5498600000000 1.0
C      1  0.5100920000000  0.4972550000000  0.5657960000000 1.0
C      1  0.4932590000000  0.4367740000000  0.4768270000000 1.0
C      1  0.5091580000000  0.4493580000000  0.4555990000000 1.0
C      1  0.4601500000000  0.5530200000000  0.4572550000000 1.0
C      1  0.5190930000000  0.5372500000000  0.4427510000000 1.0
C      1  0.5647860000000  0.5315740000000  0.5299940000000 1.0
C      1  0.5167720000000  0.4791240000000  0.5434920000000 1.0
C      1  0.4980430000000  0.5175580000000  0.5117460000000 1.0
C      1  0.5415580000000  0.4871250000000  0.5128780000000 1.0
C      1  0.5367000000000  0.5150990000000  0.4411460000000 1.0
C      1  0.4365540000000  0.5476440000000  0.4756810000000 1.0
C      1  0.4972880000000  0.5423690000000  0.5532960000000 1.0
C      1  0.4439730000000  0.4816330000000  0.4604320000000 1.0
C      1  0.4842110000000  0.4582750000000  0.5526660000000 1.0
C      1  0.5121950000000  0.5548750000000  0.4665710000000 1.0
C      1  0.4913410000000  0.4669910000000  0.4398000000000 1.0
C      1  0.4421810000000  0.4593540000000  0.4949520000000 1.0
C      1  0.5759640000000  0.5255470000000  0.5082030000000 1.0
C      1  0.5359360000000  0.4617240000000  0.4560500000000 1.0
C      1  0.4826350000000  0.4879570000000  0.5599880000000 1.0
C      1  0.5530320000000  0.4631220000000  0.4791120000000 1.0
C      1  0.4621540000000  0.5056320000000  0.5489420000000 1.0
C      1  0.5212260000000  0.5526540000000  0.5428470000000 1.0
C      1  0.4454320000000  0.4630210000000  0.5232120000000 1.0
C      1  0.5647660000000  0.4893380000000  0.4703030000000 1.0
C      1  0.5354580000000  0.5096800000000  0.5591830000000 1.0
C      1  0.4636250000000  0.4440170000000  0.5373980000000 1.0
C      1  0.4488140000000  0.5300700000000  0.4966300000000 1.0
C      1  0.5423940000000  0.5306390000000  0.4866360000000 1.0
C      1  0.4782900000000  0.5320130000000  0.4956040000000 1.0
C      1  0.5045260000000  0.4941190000000  0.4756290000000 1.0
C      1  0.4298370000000  0.4842310000000  0.4848340000000 1.0
C      1  0.4992930000000  0.4264560000000  0.5036910000000 1.0
C      1  0.5205080000000  0.4410530000000  0.5187490000000 1.0
C      1  0.5682380000000  0.5166550000000  0.4826400000000 1.0
C      1  0.5011770000000  0.4936480000000  0.4464490000000 1.0
C      1  0.4354140000000  0.5052440000000  0.5055010000000 1.0
C      1  0.4638880000000  0.4652250000000  0.4503110000000 1.0
C      1  0.5438600000000  0.4891800000000  0.5409510000000 1.0
C      1  0.5482590000000  0.4891520000000  0.4461990000000 1.0
C      1  0.4845830000000  0.5529910000000  0.4762120000000 1.0
C      1  0.4671930000000  0.5575550000000  0.5320370000000 1.0
C      1  0.4882230000000  0.4800980000000  0.4938070000000 1.0
C      1  0.4757060000000  0.4218210000000  0.5215740000000 1.0
C      1  0.4695750000000  0.5355110000000  0.5502730000000 1.0
C      1  0.4883410000000  0.5676840000000  0.5211870000000 1.0
C      1  0.5104470000000  0.4499730000000  0.5443750000000 1.0
END
