TITL C-2441154-10-1064 0.0670286093290732 125000 -23676.3534182469 0 0 170 (C1) n - 1
REM
REM in /home/bkarasulu/work/CARBON/AIRSS/Generating-Clusters/ReaxFF-fromJPCA2015/Units_Real/with-SteepDescent/Higher-Symm
REM
REM
REM
REM
REM
REM ./C.cell (1df0a924f5614ab8850e4351716899ee)
REM
REM compiler GCC version 9.2.1 20190827 (Red Hat 9.2.1-1)
REM options -cpp -mtune=generic -march=x86-64 -g -O0 -fpre-include=/usr/include/finclude/math-vector-fortran.h
REM seed -2000624241 -1169675244 -1534276375 -307003008 -603632775 -1408550905 -4953503 -887095749 -1630287857 -1995554094 -980525674 -1028478711 1625585071 342449988 -1722091900 879014121 2124271328 1007794003 1264618374 287562282 597666537 1558970926 -80682623 -967789849 -1421285082 -1209920462 -987005943 -2042116466 -292234682 -1791871356 -1637931353 1287673853 -2049391601
REM
CELL 1.54180   50.00000   50.00000   50.00000   90.00000   90.00000   90.00000
LATT -1
SFAC C  
C      1  0.4738830000000  0.6070310000000  0.4730770000000 1.0
C      1  0.4574410000000  0.5990760000000  0.5198230000000 1.0
C      1  0.5002470000000  0.6123800000000  0.5368750000000 1.0
C      1  0.5384820000000  0.6124290000000  0.5065760000000 1.0
C      1  0.5198520000000  0.5986200000000  0.4600430000000 1.0
C      1  0.4708390000000  0.3978290000000  0.4678030000000 1.0
C      1  0.4566940000000  0.3999680000000  0.5167750000000 1.0
C      1  0.5004930000000  0.3889410000000  0.5336520000000 1.0
C      1  0.5409390000000  0.3890320000000  0.5069950000000 1.0
C      1  0.5215050000000  0.3998140000000  0.4665890000000 1.0
C      1  0.6109850000000  0.4862910000000  0.4860850000000 1.0
C      1  0.5204150000000  0.4873070000000  0.3933950000000 1.0
C      1  0.4101640000000  0.4823220000000  0.4519780000000 1.0
C      1  0.4180500000000  0.4854870000000  0.5624890000000 1.0
C      1  0.5463200000000  0.4850110000000  0.5997840000000 1.0
C      1  0.6063030000000  0.5130540000000  0.4819100000000 1.0
C      1  0.5244730000000  0.5163410000000  0.3956290000000 1.0
C      1  0.4122700000000  0.5110980000000  0.4498170000000 1.0
C      1  0.4209530000000  0.5143010000000  0.5626610000000 1.0
C      1  0.5504590000000  0.5131590000000  0.5978900000000 1.0
C      1  0.4297190000000  0.4386580000000  0.5396750000000 1.0
C      1  0.5196600000000  0.4399060000000  0.5746550000000 1.0
C      1  0.5830950000000  0.4406800000000  0.5052670000000 1.0
C      1  0.5251980000000  0.4359040000000  0.4267690000000 1.0
C      1  0.4440250000000  0.4429070000000  0.4563500000000 1.0
C      1  0.4374010000000  0.5591800000000  0.5443390000000 1.0
C      1  0.5226000000000  0.5617650000000  0.5742440000000 1.0
C      1  0.5818920000000  0.5627890000000  0.5105620000000 1.0
C      1  0.5238100000000  0.5553460000000  0.4305460000000 1.0
C      1  0.4415980000000  0.5569780000000  0.4581180000000 1.0
C      1  0.4856880000000  0.4613590000000  0.4840160000000 1.0
C      1  0.4765570000000  0.4521310000000  0.5095100000000 1.0
C      1  0.4969600000000  0.4652090000000  0.5238660000000 1.0
C      1  0.5217640000000  0.4562940000000  0.5093290000000 1.0
C      1  0.5138480000000  0.4541310000000  0.4781540000000 1.0
C      1  0.4888440000000  0.5383270000000  0.4820680000000 1.0
C      1  0.4753440000000  0.5467570000000  0.5066170000000 1.0
C      1  0.4968290000000  0.5392010000000  0.5235020000000 1.0
C      1  0.5232980000000  0.5471060000000  0.5110560000000 1.0
C      1  0.5159710000000  0.5477920000000  0.4810970000000 1.0
C      1  0.4460750000000  0.5266720000000  0.5714560000000 1.0
C      1  0.5648510000000  0.5275320000000  0.5754740000000 1.0
C      1  0.5860640000000  0.5314440000000  0.4810430000000 1.0
C      1  0.4999490000000  0.5281340000000  0.4074360000000 1.0
C      1  0.4131160000000  0.5277020000000  0.4732450000000 1.0
C      1  0.4440740000000  0.4718840000000  0.5635920000000 1.0
C      1  0.5643680000000  0.4706350000000  0.5819640000000 1.0
C      1  0.5914010000000  0.4717430000000  0.4664630000000 1.0
C      1  0.4997270000000  0.4736800000000  0.4098890000000 1.0
C      1  0.4144970000000  0.4735400000000  0.4793850000000 1.0
C      1  0.4640070000000  0.4105760000000  0.5635230000000 1.0
C      1  0.5437730000000  0.4144770000000  0.5410650000000 1.0
C      1  0.5707280000000  0.4083990000000  0.4692590000000 1.0
C      1  0.4937620000000  0.4057960000000  0.4339640000000 1.0
C      1  0.4244060000000  0.4107480000000  0.4834940000000 1.0
C      1  0.4647900000000  0.5891700000000  0.5677450000000 1.0
C      1  0.5447160000000  0.5895900000000  0.5418530000000 1.0
C      1  0.5657540000000  0.5903390000000  0.4694340000000 1.0
C      1  0.4883850000000  0.5898400000000  0.4256090000000 1.0
C      1  0.4251180000000  0.5908080000000  0.4864530000000 1.0
C      1  0.5719250000000  0.5342090000000  0.5101860000000 1.0
C      1  0.5070850000000  0.5298150000000  0.4360260000000 1.0
C      1  0.4414420000000  0.5337100000000  0.4784180000000 1.0
C      1  0.4570460000000  0.5357200000000  0.5462710000000 1.0
C      1  0.5326960000000  0.5341580000000  0.5677920000000 1.0
C      1  0.5748590000000  0.4681740000000  0.4978690000000 1.0
C      1  0.5225160000000  0.4674320000000  0.4299470000000 1.0
C      1  0.4436920000000  0.4652830000000  0.4759520000000 1.0
C      1  0.4433450000000  0.4647290000000  0.5351140000000 1.0
C      1  0.5183050000000  0.4682720000000  0.5724620000000 1.0
C      1  0.4778650000000  0.4341090000000  0.5762900000000 1.0
C      1  0.5822000000000  0.4363370000000  0.5573740000000 1.0
C      1  0.5703890000000  0.4278680000000  0.4472790000000 1.0
C      1  0.4583240000000  0.4505330000000  0.4011710000000 1.0
C      1  0.4054370000000  0.4293770000000  0.4981540000000 1.0
C      1  0.4771280000000  0.5654350000000  0.5807010000000 1.0
C      1  0.5847550000000  0.5647670000000  0.5556780000000 1.0
C      1  0.5664820000000  0.5675710000000  0.4499330000000 1.0
C      1  0.4680070000000  0.5704580000000  0.4134180000000 1.0
C      1  0.4080310000000  0.5710560000000  0.5024700000000 1.0
C      1  0.4837840000000  0.4175850000000  0.4802770000000 1.0
C      1  0.4770050000000  0.4226560000000  0.5068990000000 1.0
C      1  0.5023350000000  0.4144430000000  0.5222500000000 1.0
C      1  0.5269850000000  0.4281890000000  0.5213640000000 1.0
C      1  0.5092210000000  0.4251250000000  0.4730490000000 1.0
C      1  0.4861610000000  0.5858580000000  0.4848690000000 1.0
C      1  0.4781160000000  0.5783210000000  0.5113190000000 1.0
C      1  0.5025250000000  0.5867200000000  0.5253090000000 1.0
C      1  0.5275200000000  0.5751070000000  0.5234510000000 1.0
C      1  0.5093290000000  0.5746430000000  0.4729530000000 1.0
C      1  0.4903990000000  0.5553650000000  0.4003150000000 1.0
C      1  0.4027400000000  0.5555590000000  0.4771580000000 1.0
C      1  0.4501880000000  0.5532440000000  0.5848410000000 1.0
C      1  0.5687670000000  0.5584300000000  0.5756710000000 1.0
C      1  0.5893070000000  0.5559640000000  0.4649600000000 1.0
C      1  0.4873890000000  0.4485710000000  0.4014890000000 1.0
C      1  0.4035580000000  0.4479150000000  0.4740300000000 1.0
C      1  0.4511310000000  0.4477130000000  0.5792520000000 1.0
C      1  0.5663560000000  0.4411190000000  0.5792990000000 1.0
C      1  0.5927510000000  0.4431870000000  0.4600780000000 1.0
C      1  0.4929510000000  0.6053400000000  0.4502050000000 1.0
C      1  0.4501040000000  0.6050670000000  0.4922700000000 1.0
C      1  0.4723530000000  0.6062110000000  0.5440840000000 1.0
C      1  0.5306990000000  0.6149820000000  0.5344270000000 1.0
C      1  0.5426860000000  0.6070780000000  0.4782880000000 1.0
C      1  0.4962030000000  0.3878270000000  0.4552440000000 1.0
C      1  0.4488180000000  0.3956930000000  0.4893740000000 1.0
C      1  0.4719830000000  0.3929250000000  0.5405850000000 1.0
C      1  0.5314160000000  0.3879060000000  0.5338350000000 1.0
C      1  0.5476610000000  0.3917670000000  0.4798080000000 1.0
C      1  0.5940050000000  0.4875090000000  0.5108770000000 1.0
C      1  0.5426100000000  0.4823930000000  0.4117340000000 1.0
C      1  0.4325680000000  0.4804030000000  0.4321380000000 1.0
C      1  0.4015640000000  0.4869600000000  0.5372130000000 1.0
C      1  0.5171920000000  0.4779400000000  0.5976470000000 1.0
C      1  0.5858710000000  0.5123220000000  0.5256960000000 1.0
C      1  0.5487670000000  0.5109180000000  0.4130970000000 1.0
C      1  0.4401800000000  0.5097040000000  0.4317700000000 1.0
C      1  0.4117880000000  0.5146730000000  0.5332330000000 1.0
C      1  0.5249220000000  0.5258860000000  0.5948690000000 1.0
C      1  0.5704230000000  0.4822870000000  0.5553490000000 1.0
C      1  0.5757060000000  0.4889100000000  0.4436930000000 1.0
C      1  0.4401780000000  0.4760710000000  0.4033470000000 1.0
C      1  0.3974390000000  0.4858160000000  0.5071450000000 1.0
C      1  0.4972960000000  0.4977110000000  0.6023010000000 1.0
C      1  0.5785690000000  0.5099770000000  0.5534130000000 1.0
C      1  0.5776660000000  0.5110460000000  0.4225790000000 1.0
C      1  0.4444980000000  0.5043650000000  0.3994540000000 1.0
C      1  0.3829510000000  0.5089540000000  0.5074530000000 1.0
C      1  0.4970610000000  0.5212700000000  0.6014350000000 1.0
C      1  0.5467220000000  0.5774880000000  0.5692440000000 1.0
C      1  0.5869630000000  0.5771830000000  0.4854980000000 1.0
C      1  0.5094770000000  0.5742840000000  0.4120230000000 1.0
C      1  0.4187210000000  0.5754730000000  0.4622270000000 1.0
C      1  0.4386140000000  0.5756960000000  0.5691030000000 1.0
C      1  0.5440450000000  0.4242540000000  0.5690080000000 1.0
C      1  0.5917550000000  0.4241640000000  0.4831280000000 1.0
C      1  0.5009070000000  0.4241950000000  0.4140010000000 1.0
C      1  0.4192130000000  0.4274210000000  0.4594720000000 1.0
C      1  0.4385810000000  0.4251250000000  0.5653170000000 1.0
C      1  0.4878820000000  0.4898280000000  0.5360050000000 1.0
C      1  0.5487420000000  0.4755840000000  0.5368260000000 1.0
C      1  0.5549900000000  0.4999970000000  0.4574580000000 1.0
C      1  0.4819080000000  0.4856660000000  0.4444560000000 1.0
C      1  0.4437950000000  0.4832670000000  0.5117190000000 1.0
C      1  0.4944610000000  0.5184640000000  0.5425730000000 1.0
C      1  0.5395150000000  0.5247410000000  0.5189050000000 1.0
C      1  0.5369330000000  0.5151560000000  0.4740960000000 1.0
C      1  0.4688980000000  0.5119620000000  0.4425560000000 1.0
C      1  0.4313010000000  0.5112810000000  0.5110550000000 1.0
C      1  0.4027280000000  0.4336960000000  0.5278190000000 1.0
C      1  0.5007780000000  0.4312040000000  0.5962880000000 1.0
C      1  0.5959190000000  0.4335790000000  0.5322080000000 1.0
C      1  0.5531930000000  0.4296760000000  0.4218220000000 1.0
C      1  0.4519890000000  0.4413160000000  0.4276910000000 1.0
C      1  0.4112110000000  0.5609530000000  0.5303310000000 1.0
C      1  0.5028040000000  0.5599490000000  0.5979190000000 1.0
C      1  0.6018710000000  0.5707970000000  0.5328230000000 1.0
C      1  0.5527660000000  0.5579100000000  0.4246170000000 1.0
C      1  0.4473110000000  0.5558940000000  0.4291070000000 1.0
C      1  0.5451340000000  0.4779660000000  0.5082900000000 1.0
C      1  0.5094810000000  0.4805140000000  0.4541500000000 1.0
C      1  0.4687870000000  0.4773260000000  0.4689160000000 1.0
C      1  0.4690930000000  0.4972230000000  0.5162470000000 1.0
C      1  0.5259610000000  0.4848030000000  0.5513600000000 1.0
C      1  0.5361880000000  0.5040740000000  0.5009510000000 1.0
C      1  0.5146340000000  0.5094910000000  0.4551250000000 1.0
C      1  0.4679460000000  0.5246990000000  0.4685910000000 1.0
C      1  0.4563750000000  0.5231370000000  0.5199680000000 1.0
C      1  0.5247490000000  0.5153060000000  0.5452740000000 1.0
END
