TITL C-2441160-1326-1198 0.0773041423336985 125000 -19252.257251564 0 0 143 (C1) n - 1
REM
REM in /home/bkarasulu/work/CARBON/AIRSS/Generating-Clusters/ReaxFF-fromJPCA2015/Units_Real/with-SteepDescent/Higher-Symm
REM
REM
REM
REM
REM
REM ./C.cell (1df0a924f5614ab8850e4351716899ee)
REM
REM compiler GCC version 9.2.1 20190827 (Red Hat 9.2.1-1)
REM options -cpp -mtune=generic -march=x86-64 -g -O0 -fpre-include=/usr/include/finclude/math-vector-fortran.h
REM seed -1969026478 484898379 -311875591 772643735 -737479290 -1467183141 -1511744881 -468126668 -1260129749 494344833 -673322689 1070413059 1065526716 677103099 -739382122 786322209 1272477257 -1586353074 518189494 2012371334 1601616457 256411328 1869693868 720902972 -592259952 75933916 1483309938 918164172 -385924715 -1123362384 -812864811 -1664187100 -984981767
REM
CELL 1.54180   50.00000   50.00000   50.00000   90.00000   90.00000   90.00000
LATT -1
SFAC C  
C      1  0.4536770000000  0.5071920000000  0.5992390000000 1.0
C      1  0.4555210000000  0.5237120000000  0.4301690000000 1.0
C      1  0.5187410000000  0.4070620000000  0.4669640000000 1.0
C      1  0.4625910000000  0.4197400000000  0.4428730000000 1.0
C      1  0.4900180000000  0.5410940000000  0.4815960000000 1.0
C      1  0.4871470000000  0.4467510000000  0.5704060000000 1.0
C      1  0.5900390000000  0.4791080000000  0.4636810000000 1.0
C      1  0.5052990000000  0.4174290000000  0.4383280000000 1.0
C      1  0.5187750000000  0.4862630000000  0.5993790000000 1.0
C      1  0.5751520000000  0.4945370000000  0.5632790000000 1.0
C      1  0.4341710000000  0.5664020000000  0.5180630000000 1.0
C      1  0.5375930000000  0.5708360000000  0.4616600000000 1.0
C      1  0.4205980000000  0.5215650000000  0.5601680000000 1.0
C      1  0.5059840000000  0.5914450000000  0.4807250000000 1.0
C      1  0.4468260000000  0.4226870000000  0.5248520000000 1.0
C      1  0.5234570000000  0.5885870000000  0.5338300000000 1.0
C      1  0.5233360000000  0.5866890000000  0.5045180000000 1.0
C      1  0.4044440000000  0.4953560000000  0.4819570000000 1.0
C      1  0.5684990000000  0.5302950000000  0.5423930000000 1.0
C      1  0.5556190000000  0.5298760000000  0.5692640000000 1.0
C      1  0.5095360000000  0.5186930000000  0.4160300000000 1.0
C      1  0.4466910000000  0.5664940000000  0.4599690000000 1.0
C      1  0.5231400000000  0.4542270000000  0.4635300000000 1.0
C      1  0.4553720000000  0.5894720000000  0.4757680000000 1.0
C      1  0.5201320000000  0.5396930000000  0.4320060000000 1.0
C      1  0.4441390000000  0.4807970000000  0.4152860000000 1.0
C      1  0.4871000000000  0.4857520000000  0.5342000000000 1.0
C      1  0.4854670000000  0.5380400000000  0.5893070000000 1.0
C      1  0.4178400000000  0.4893430000000  0.5080050000000 1.0
C      1  0.4240200000000  0.5375600000000  0.4886350000000 1.0
C      1  0.5160980000000  0.5672700000000  0.4271690000000 1.0
C      1  0.4828280000000  0.4328060000000  0.4267780000000 1.0
C      1  0.5687540000000  0.5634090000000  0.5091590000000 1.0
C      1  0.5124890000000  0.4741420000000  0.5298740000000 1.0
C      1  0.4822090000000  0.4599500000000  0.4639520000000 1.0
C      1  0.5422690000000  0.4374990000000  0.4474760000000 1.0
C      1  0.4494670000000  0.4534190000000  0.4121360000000 1.0
C      1  0.5306230000000  0.5451870000000  0.5641200000000 1.0
C      1  0.5095760000000  0.5817130000000  0.4530650000000 1.0
C      1  0.4503720000000  0.5458040000000  0.4799710000000 1.0
C      1  0.4769770000000  0.5736940000000  0.4343070000000 1.0
C      1  0.4526350000000  0.5565690000000  0.5381920000000 1.0
C      1  0.4952820000000  0.4152490000000  0.5153640000000 1.0
C      1  0.4895880000000  0.4839880000000  0.4781510000000 1.0
C      1  0.4439910000000  0.4393030000000  0.5476270000000 1.0
C      1  0.5358100000000  0.5598510000000  0.5082970000000 1.0
C      1  0.4562990000000  0.5679690000000  0.4975290000000 1.0
C      1  0.4170480000000  0.4553850000000  0.4791010000000 1.0
C      1  0.5572670000000  0.4877170000000  0.5043830000000 1.0
C      1  0.4848520000000  0.4856940000000  0.3983620000000 1.0
C      1  0.4726130000000  0.6011910000000  0.5171300000000 1.0
C      1  0.5899180000000  0.5099620000000  0.5437940000000 1.0
C      1  0.4973870000000  0.5838760000000  0.5493900000000 1.0
C      1  0.5409480000000  0.5704940000000  0.5479370000000 1.0
C      1  0.4087880000000  0.5560620000000  0.5089020000000 1.0
C      1  0.5287940000000  0.4584170000000  0.5894530000000 1.0
C      1  0.5108910000000  0.5281000000000  0.4618850000000 1.0
C      1  0.5116900000000  0.5486900000000  0.5861640000000 1.0
C      1  0.5374080000000  0.4793510000000  0.4613500000000 1.0
C      1  0.4680560000000  0.5106290000000  0.4059470000000 1.0
C      1  0.4877430000000  0.5326580000000  0.4039790000000 1.0
C      1  0.4593930000000  0.5518670000000  0.4383070000000 1.0
C      1  0.5580910000000  0.5552670000000  0.4469870000000 1.0
C      1  0.5087790000000  0.4947560000000  0.4316460000000 1.0
C      1  0.4677080000000  0.4265300000000  0.5587620000000 1.0
C      1  0.4331960000000  0.5181340000000  0.5856030000000 1.0
C      1  0.5387210000000  0.4962360000000  0.4851410000000 1.0
C      1  0.4856510000000  0.5096470000000  0.5509360000000 1.0
C      1  0.4793640000000  0.5107900000000  0.5856630000000 1.0
C      1  0.5132420000000  0.4740940000000  0.3965830000000 1.0
C      1  0.5145440000000  0.5236880000000  0.5467030000000 1.0
C      1  0.4386070000000  0.5316330000000  0.5401310000000 1.0
C      1  0.5374450000000  0.4255690000000  0.5051170000000 1.0
C      1  0.5845340000000  0.5437500000000  0.4993850000000 1.0
C      1  0.4921510000000  0.4951930000000  0.6033460000000 1.0
C      1  0.5265700000000  0.5110140000000  0.5903160000000 1.0
C      1  0.4227240000000  0.4313050000000  0.5118680000000 1.0
C      1  0.4592550000000  0.4663160000000  0.4487080000000 1.0
C      1  0.5446070000000  0.4117230000000  0.4798450000000 1.0
C      1  0.4672200000000  0.4699010000000  0.5209340000000 1.0
C      1  0.4535930000000  0.5779860000000  0.5630700000000 1.0
C      1  0.5582660000000  0.5167700000000  0.4310330000000 1.0
C      1  0.4835230000000  0.5608210000000  0.5020790000000 1.0
C      1  0.5111470000000  0.5392180000000  0.5230670000000 1.0
C      1  0.4914100000000  0.5615050000000  0.4133700000000 1.0
C      1  0.4182720000000  0.4484200000000  0.5360570000000 1.0
C      1  0.4711030000000  0.5143980000000  0.5079190000000 1.0
C      1  0.4709380000000  0.5978490000000  0.5439420000000 1.0
C      1  0.4991410000000  0.5020470000000  0.4572280000000 1.0
C      1  0.4452970000000  0.4811990000000  0.5048090000000 1.0
C      1  0.4945740000000  0.4678750000000  0.4190080000000 1.0
C      1  0.5971420000000  0.5195890000000  0.4931730000000 1.0
C      1  0.5851360000000  0.5079190000000  0.4687400000000 1.0
C      1  0.5316780000000  0.5000170000000  0.5404660000000 1.0
C      1  0.5371030000000  0.5510770000000  0.4829620000000 1.0
C      1  0.4678420000000  0.4402640000000  0.4830080000000 1.0
C      1  0.5639590000000  0.4282530000000  0.4645520000000 1.0
C      1  0.4964750000000  0.4062420000000  0.4835220000000 1.0
C      1  0.5683720000000  0.4606280000000  0.5011740000000 1.0
C      1  0.4782290000000  0.6012390000000  0.4890230000000 1.0
C      1  0.4994410000000  0.5750390000000  0.5791370000000 1.0
C      1  0.5655850000000  0.5608300000000  0.5375160000000 1.0
C      1  0.4224770000000  0.4918560000000  0.5547530000000 1.0
C      1  0.5778110000000  0.4522990000000  0.5425260000000 1.0
C      1  0.5386370000000  0.4702230000000  0.4102080000000 1.0
C      1  0.4353140000000  0.4373800000000  0.4867000000000 1.0
C      1  0.5514920000000  0.5093270000000  0.5220480000000 1.0
C      1  0.5059030000000  0.4646520000000  0.5026390000000 1.0
C      1  0.5375790000000  0.5236660000000  0.4751800000000 1.0
C      1  0.4618200000000  0.5166610000000  0.5348130000000 1.0
C      1  0.5195960000000  0.4255490000000  0.4156690000000 1.0
C      1  0.4438290000000  0.4435450000000  0.4385620000000 1.0
C      1  0.6016860000000  0.5022250000000  0.5187440000000 1.0
C      1  0.5246930000000  0.4480220000000  0.4918530000000 1.0
C      1  0.5478940000000  0.5029210000000  0.5711540000000 1.0
C      1  0.5215320000000  0.4172520000000  0.5278150000000 1.0
C      1  0.4316470000000  0.5139090000000  0.4439410000000 1.0
C      1  0.4974100000000  0.5229660000000  0.5033140000000 1.0
C      1  0.4723040000000  0.4133550000000  0.4699410000000 1.0
C      1  0.4639860000000  0.4952350000000  0.4882840000000 1.0
C      1  0.5477310000000  0.5425410000000  0.4235210000000 1.0
C      1  0.5423250000000  0.4898160000000  0.4334390000000 1.0
C      1  0.5685350000000  0.4667290000000  0.5589910000000 1.0
C      1  0.4152360000000  0.5191540000000  0.4684320000000 1.0
C      1  0.5749760000000  0.4541590000000  0.4736020000000 1.0
C      1  0.5427180000000  0.4422120000000  0.4179030000000 1.0
C      1  0.4661690000000  0.4711970000000  0.5853170000000 1.0
C      1  0.4102400000000  0.4754170000000  0.4613030000000 1.0
C      1  0.5051890000000  0.4523850000000  0.5474660000000 1.0
C      1  0.4877360000000  0.5579160000000  0.5300670000000 1.0
C      1  0.5900290000000  0.4512490000000  0.5190390000000 1.0
C      1  0.6089690000000  0.4746360000000  0.5124640000000 1.0
C      1  0.4439180000000  0.4800110000000  0.5691760000000 1.0
C      1  0.4828730000000  0.4480350000000  0.5077220000000 1.0
C      1  0.5643810000000  0.5259310000000  0.4565450000000 1.0
C      1  0.4735750000000  0.5639720000000  0.5842500000000 1.0
C      1  0.4716340000000  0.4122020000000  0.5337000000000 1.0
C      1  0.6094930000000  0.4790620000000  0.4843960000000 1.0
C      1  0.5120720000000  0.4355940000000  0.5838290000000 1.0
C      1  0.5473450000000  0.4520940000000  0.5690930000000 1.0
C      1  0.4248720000000  0.4872100000000  0.4359990000000 1.0
C      1  0.5243940000000  0.4319280000000  0.5549810000000 1.0
C      1  0.4103620000000  0.4761600000000  0.5327640000000 1.0
END
