TITL C-2441165-58-1067 0.0009168237082874 125000 -6426.88580441056 0 0 43 (C1) n - 1
REM
REM in /home/bkarasulu/work/CARBON/AIRSS/Generating-Clusters/ReaxFF-fromJPCA2015/Units_Real/with-SteepDescent/Higher-Symm
REM
REM
REM
REM
REM
REM ./C.cell (1df0a924f5614ab8850e4351716899ee)
REM
REM compiler GCC version 9.2.1 20190827 (Red Hat 9.2.1-1)
REM options -cpp -mtune=generic -march=x86-64 -g -O0 -fpre-include=/usr/include/finclude/math-vector-fortran.h
REM seed 1986103415 389281965 -1124228358 -2100377552 -952702466 641898917 -1455120460 -2075476691 1437175923 429548612 248379488 745063684 533433348 724303476 1735366962 -87874524 979708617 699966511 -903132724 -1097975098 -1048739350 -839737488 -103563877 -53897349 -1502250651 878439703 1919732876 1676876882 1386135380 181126893 1162696926 -1962107500 780019685
REM
CELL 1.54180   50.00000   50.00000   50.00000   90.00000   90.00000   90.00000
LATT -1
SFAC C  
C      1  0.5261830000000  0.5099390000000  0.4486240000000 1.0
C      1  0.5477080000000  0.5095000000000  0.4668850000000 1.0
C      1  0.5304670000000  0.5105530000000  0.5168920000000 1.0
C      1  0.5113150000000  0.5118110000000  0.5562990000000 1.0
C      1  0.4736630000000  0.5104900000000  0.5244980000000 1.0
C      1  0.4532330000000  0.5098530000000  0.4958810000000 1.0
C      1  0.4623060000000  0.5099480000000  0.4677160000000 1.0
C      1  0.4446000000000  0.5471790000000  0.5239610000000 1.0
C      1  0.4478400000000  0.5475590000000  0.4738660000000 1.0
C      1  0.4896990000000  0.5416360000000  0.4444380000000 1.0
C      1  0.5373410000000  0.5487490000000  0.4586320000000 1.0
C      1  0.5521960000000  0.5428970000000  0.5067170000000 1.0
C      1  0.5294250000000  0.5356240000000  0.5574360000000 1.0
C      1  0.4836620000000  0.5501180000000  0.5547760000000 1.0
C      1  0.5154020000000  0.4828180000000  0.4445590000000 1.0
C      1  0.5529920000000  0.4815570000000  0.4741810000000 1.0
C      1  0.5450230000000  0.4851900000000  0.5234810000000 1.0
C      1  0.5125010000000  0.4823280000000  0.5598340000000 1.0
C      1  0.4665110000000  0.4853980000000  0.5395940000000 1.0
C      1  0.4425520000000  0.4822620000000  0.4983010000000 1.0
C      1  0.4642770000000  0.4830090000000  0.4572720000000 1.0
C      1  0.5207210000000  0.4448760000000  0.4749520000000 1.0
C      1  0.5329110000000  0.4460960000000  0.5014830000000 1.0
C      1  0.5198830000000  0.4459080000000  0.5276270000000 1.0
C      1  0.4912590000000  0.4464350000000  0.5334730000000 1.0
C      1  0.4688550000000  0.4457730000000  0.5148660000000 1.0
C      1  0.4692800000000  0.4459860000000  0.4857670000000 1.0
C      1  0.4925070000000  0.4475940000000  0.4683040000000 1.0
C      1  0.4520590000000  0.4667430000000  0.4770570000000 1.0
C      1  0.4896060000000  0.4703380000000  0.4504050000000 1.0
C      1  0.5340050000000  0.4654500000000  0.4588620000000 1.0
C      1  0.5517730000000  0.4687690000000  0.5006220000000 1.0
C      1  0.5316630000000  0.4681810000000  0.5431050000000 1.0
C      1  0.4875300000000  0.4693650000000  0.5518750000000 1.0
C      1  0.4511820000000  0.4681270000000  0.5220550000000 1.0
C      1  0.5072730000000  0.5519210000000  0.5620280000000 1.0
C      1  0.4628400000000  0.5369260000000  0.5413260000000 1.0
C      1  0.4372470000000  0.5391560000000  0.4982140000000 1.0
C      1  0.4628720000000  0.5372790000000  0.4520300000000 1.0
C      1  0.5170300000000  0.5397380000000  0.4404400000000 1.0
C      1  0.5545610000000  0.5388180000000  0.4787240000000 1.0
C      1  0.5449910000000  0.5331600000000  0.5311840000000 1.0
C      1  0.5030710000000  0.5132430000000  0.5275990000000 1.0
END
