TITL C-2441163-1170-118 0.0594836409900358 125000 -23740.3194405056 0 0 167 (C1) n - 1
REM
REM in /home/bkarasulu/work/CARBON/AIRSS/Generating-Clusters/ReaxFF-fromJPCA2015/Units_Real/with-SteepDescent/Higher-Symm
REM
REM
REM
REM
REM
REM ./C.cell (1df0a924f5614ab8850e4351716899ee)
REM
REM compiler GCC version 9.2.1 20190827 (Red Hat 9.2.1-1)
REM options -cpp -mtune=generic -march=x86-64 -g -O0 -fpre-include=/usr/include/finclude/math-vector-fortran.h
REM seed 726459373 -1876162721 1242795380 1424187481 2126806131 656014767 425637160 -436641992 463450165 979810401 943112465 -691775114 1851977945 784979212 -983338786 978422874 -321103675 912157633 998246414 1860449444 -1206757390 -1235577156 1592981635 -89280384 -2069981813 -1626964327 -274075964 2086171985 837442323 1141960894 985749181 1640575474 -86423566
REM
CELL 1.54180   50.00000   50.00000   50.00000   90.00000   90.00000   90.00000
LATT -1
SFAC C  
C      1  0.4617130000000  0.4479660000000  0.4191230000000 1.0
C      1  0.4692080000000  0.5515540000000  0.5618130000000 1.0
C      1  0.5153380000000  0.5562630000000  0.5862990000000 1.0
C      1  0.5115650000000  0.4505120000000  0.4193730000000 1.0
C      1  0.4463140000000  0.4701260000000  0.4264230000000 1.0
C      1  0.4485430000000  0.5321810000000  0.5687730000000 1.0
C      1  0.4163400000000  0.5056980000000  0.5748690000000 1.0
C      1  0.4128620000000  0.4965470000000  0.4244490000000 1.0
C      1  0.5283270000000  0.5602500000000  0.4192980000000 1.0
C      1  0.5292920000000  0.4414780000000  0.5793090000000 1.0
C      1  0.5605020000000  0.4823990000000  0.4411830000000 1.0
C      1  0.5771540000000  0.5177470000000  0.5727950000000 1.0
C      1  0.4176040000000  0.5173590000000  0.4817270000000 1.0
C      1  0.4234530000000  0.4802590000000  0.5197820000000 1.0
C      1  0.5353440000000  0.4096650000000  0.4614370000000 1.0
C      1  0.5324500000000  0.5881650000000  0.5421450000000 1.0
C      1  0.4684860000000  0.4733060000000  0.5812580000000 1.0
C      1  0.4785610000000  0.5301640000000  0.4171850000000 1.0
C      1  0.5825500000000  0.4892930000000  0.5708070000000 1.0
C      1  0.5741990000000  0.5085690000000  0.4342070000000 1.0
C      1  0.4054460000000  0.4785480000000  0.4491130000000 1.0
C      1  0.4076820000000  0.5192340000000  0.5491500000000 1.0
C      1  0.5882200000000  0.5020850000000  0.4783330000000 1.0
C      1  0.5891400000000  0.4950650000000  0.5247650000000 1.0
C      1  0.4518920000000  0.5231430000000  0.4486780000000 1.0
C      1  0.4425230000000  0.4736630000000  0.5644370000000 1.0
C      1  0.4329500000000  0.5433230000000  0.4402440000000 1.0
C      1  0.4265660000000  0.4514340000000  0.5634520000000 1.0
C      1  0.5499290000000  0.5428520000000  0.4303100000000 1.0
C      1  0.5491610000000  0.4596670000000  0.5681320000000 1.0
C      1  0.4679090000000  0.4426120000000  0.5306780000000 1.0
C      1  0.4660560000000  0.5408570000000  0.4669640000000 1.0
C      1  0.5199300000000  0.4027020000000  0.5250530000000 1.0
C      1  0.5208110000000  0.6015520000000  0.4740580000000 1.0
C      1  0.5204570000000  0.4190360000000  0.5034300000000 1.0
C      1  0.5245430000000  0.6052030000000  0.5014300000000 1.0
C      1  0.4599440000000  0.4922200000000  0.3965010000000 1.0
C      1  0.4633390000000  0.4999940000000  0.5981850000000 1.0
C      1  0.4630330000000  0.5537680000000  0.4949850000000 1.0
C      1  0.4535400000000  0.4477760000000  0.4867340000000 1.0
C      1  0.5459980000000  0.5525070000000  0.5869920000000 1.0
C      1  0.5397670000000  0.4514500000000  0.4122520000000 1.0
C      1  0.5062190000000  0.4454600000000  0.5993180000000 1.0
C      1  0.5067430000000  0.5540960000000  0.4001280000000 1.0
C      1  0.4533300000000  0.5089780000000  0.5497310000000 1.0
C      1  0.4543190000000  0.4876910000000  0.4495000000000 1.0
C      1  0.6006540000000  0.5235120000000  0.5178190000000 1.0
C      1  0.6012570000000  0.4756660000000  0.4838440000000 1.0
C      1  0.5586960000000  0.5181960000000  0.4856450000000 1.0
C      1  0.5649730000000  0.4790900000000  0.5167000000000 1.0
C      1  0.4693940000000  0.5780830000000  0.4313140000000 1.0
C      1  0.4701470000000  0.4252070000000  0.5729200000000 1.0
C      1  0.5109480000000  0.5397710000000  0.5195010000000 1.0
C      1  0.5175480000000  0.4570380000000  0.4827890000000 1.0
C      1  0.5639130000000  0.5713760000000  0.4750660000000 1.0
C      1  0.5665490000000  0.4271610000000  0.5282980000000 1.0
C      1  0.5411980000000  0.4749270000000  0.4728490000000 1.0
C      1  0.5341830000000  0.5253200000000  0.5309150000000 1.0
C      1  0.4909780000000  0.6019870000000  0.4688730000000 1.0
C      1  0.4921090000000  0.3987080000000  0.5345480000000 1.0
C      1  0.4737710000000  0.5936470000000  0.5395920000000 1.0
C      1  0.4861540000000  0.4264350000000  0.4494380000000 1.0
C      1  0.5954240000000  0.4553600000000  0.4636320000000 1.0
C      1  0.5943220000000  0.5453950000000  0.5351340000000 1.0
C      1  0.4468590000000  0.4221600000000  0.5304350000000 1.0
C      1  0.4433940000000  0.5850130000000  0.4711630000000 1.0
C      1  0.5644380000000  0.5782620000000  0.5027070000000 1.0
C      1  0.5675020000000  0.4195490000000  0.5008670000000 1.0
C      1  0.4022820000000  0.5001790000000  0.4662580000000 1.0
C      1  0.4058630000000  0.5003480000000  0.5286200000000 1.0
C      1  0.6007030000000  0.4591140000000  0.5085440000000 1.0
C      1  0.5980490000000  0.5393590000000  0.4938660000000 1.0
C      1  0.4978670000000  0.4137770000000  0.4868680000000 1.0
C      1  0.5005580000000  0.5918490000000  0.5095530000000 1.0
C      1  0.4783490000000  0.4869330000000  0.5003770000000 1.0
C      1  0.4661020000000  0.5294300000000  0.5084340000000 1.0
C      1  0.5407840000000  0.5001140000000  0.5969680000000 1.0
C      1  0.5371890000000  0.5001720000000  0.4032610000000 1.0
C      1  0.5033270000000  0.5919390000000  0.5384500000000 1.0
C      1  0.5056700000000  0.4076740000000  0.4591870000000 1.0
C      1  0.5664140000000  0.5555310000000  0.5236000000000 1.0
C      1  0.5725770000000  0.4397870000000  0.4776450000000 1.0
C      1  0.4324180000000  0.4297990000000  0.4554670000000 1.0
C      1  0.4284230000000  0.5703790000000  0.5416050000000 1.0
C      1  0.4865010000000  0.4833060000000  0.3951540000000 1.0
C      1  0.4868740000000  0.5142270000000  0.6073410000000 1.0
C      1  0.5192370000000  0.4876600000000  0.5162050000000 1.0
C      1  0.5158150000000  0.5097520000000  0.4781960000000 1.0
C      1  0.5618150000000  0.4404870000000  0.4285560000000 1.0
C      1  0.5658930000000  0.5615350000000  0.5702200000000 1.0
C      1  0.4920770000000  0.5420560000000  0.5426740000000 1.0
C      1  0.4995960000000  0.4499640000000  0.4608960000000 1.0
C      1  0.5569690000000  0.5196100000000  0.4139940000000 1.0
C      1  0.5596830000000  0.4797610000000  0.5863420000000 1.0
C      1  0.5238540000000  0.5176390000000  0.4516710000000 1.0
C      1  0.5315430000000  0.4972080000000  0.5413400000000 1.0
C      1  0.5219710000000  0.5794810000000  0.4394600000000 1.0
C      1  0.5224980000000  0.4205710000000  0.5616060000000 1.0
C      1  0.5523360000000  0.5239130000000  0.5866030000000 1.0
C      1  0.5458340000000  0.4778400000000  0.4168080000000 1.0
C      1  0.4322530000000  0.5696620000000  0.4951520000000 1.0
C      1  0.4284430000000  0.4315820000000  0.4998480000000 1.0
C      1  0.4775790000000  0.4453970000000  0.5921230000000 1.0
C      1  0.4795020000000  0.5591070000000  0.4116380000000 1.0
C      1  0.4883360000000  0.4747780000000  0.5578480000000 1.0
C      1  0.4960680000000  0.5216460000000  0.4417470000000 1.0
C      1  0.4856100000000  0.4908960000000  0.4483100000000 1.0
C      1  0.4821570000000  0.5001880000000  0.5475910000000 1.0
C      1  0.4176060000000  0.4764930000000  0.5758570000000 1.0
C      1  0.4170190000000  0.5243860000000  0.4285810000000 1.0
C      1  0.5869850000000  0.5433850000000  0.5629510000000 1.0
C      1  0.5809660000000  0.4604210000000  0.4393050000000 1.0
C      1  0.5890410000000  0.4488550000000  0.5325060000000 1.0
C      1  0.5847000000000  0.5489260000000  0.4704680000000 1.0
C      1  0.5938310000000  0.4758710000000  0.5464430000000 1.0
C      1  0.5889550000000  0.5212210000000  0.4566590000000 1.0
C      1  0.4555220000000  0.5752730000000  0.5537890000000 1.0
C      1  0.4578240000000  0.4288160000000  0.4401790000000 1.0
C      1  0.4076990000000  0.5518870000000  0.5078980000000 1.0
C      1  0.4064130000000  0.4496380000000  0.4901090000000 1.0
C      1  0.4968540000000  0.5391260000000  0.5988260000000 1.0
C      1  0.4868460000000  0.4545390000000  0.4049980000000 1.0
C      1  0.4763310000000  0.4321820000000  0.4899090000000 1.0
C      1  0.4899250000000  0.5674300000000  0.4968950000000 1.0
C      1  0.4342700000000  0.4857660000000  0.4058100000000 1.0
C      1  0.4396300000000  0.5151560000000  0.5909740000000 1.0
C      1  0.5429180000000  0.4097080000000  0.4896780000000 1.0
C      1  0.5460190000000  0.5952450000000  0.5171470000000 1.0
C      1  0.4471020000000  0.5124790000000  0.4980230000000 1.0
C      1  0.4502260000000  0.4848080000000  0.4995840000000 1.0
C      1  0.4115610000000  0.5469400000000  0.5364510000000 1.0
C      1  0.4136880000000  0.4520280000000  0.4613320000000 1.0
C      1  0.5560700000000  0.4276100000000  0.4531810000000 1.0
C      1  0.5505940000000  0.5665190000000  0.5486890000000 1.0
C      1  0.4655200000000  0.5996980000000  0.4844630000000 1.0
C      1  0.4653490000000  0.3978110000000  0.5209340000000 1.0
C      1  0.4434110000000  0.4278500000000  0.5607060000000 1.0
C      1  0.4444650000000  0.5727550000000  0.4453100000000 1.0
C      1  0.5465000000000  0.5331790000000  0.4583470000000 1.0
C      1  0.5485210000000  0.4742680000000  0.5416280000000 1.0
C      1  0.4486320000000  0.4732400000000  0.4743850000000 1.0
C      1  0.4468220000000  0.5219860000000  0.5248510000000 1.0
C      1  0.4984780000000  0.5264440000000  0.3965720000000 1.0
C      1  0.5066780000000  0.4715560000000  0.6061710000000 1.0
C      1  0.3988940000000  0.5325220000000  0.4894370000000 1.0
C      1  0.4009600000000  0.4677200000000  0.5111950000000 1.0
C      1  0.5418410000000  0.4149750000000  0.5398750000000 1.0
C      1  0.5407070000000  0.5843620000000  0.4614000000000 1.0
C      1  0.4600180000000  0.6001770000000  0.5137680000000 1.0
C      1  0.4526950000000  0.3978760000000  0.4957480000000 1.0
C      1  0.4920300000000  0.4932930000000  0.4770610000000 1.0
C      1  0.4919350000000  0.5022050000000  0.5199050000000 1.0
C      1  0.5088150000000  0.5465610000000  0.4897370000000 1.0
C      1  0.5139400000000  0.4570960000000  0.5116200000000 1.0
C      1  0.5137310000000  0.4968800000000  0.6095280000000 1.0
C      1  0.5100120000000  0.5022280000000  0.3944160000000 1.0
C      1  0.4332680000000  0.4110510000000  0.4790500000000 1.0
C      1  0.4342830000000  0.5875530000000  0.5183230000000 1.0
C      1  0.5542710000000  0.5310160000000  0.5111450000000 1.0
C      1  0.5605570000000  0.4652500000000  0.4916930000000 1.0
C      1  0.5113220000000  0.5428440000000  0.5610980000000 1.0
C      1  0.5032360000000  0.4687010000000  0.4400830000000 1.0
C      1  0.4914440000000  0.4566880000000  0.5340190000000 1.0
C      1  0.4924190000000  0.5390260000000  0.4650200000000 1.0
C      1  0.4936600000000  0.5892380000000  0.4439780000000 1.0
C      1  0.4932020000000  0.4126120000000  0.5590970000000 1.0
C      1  0.5372940000000  0.4989210000000  0.4902990000000 1.0
END
