TITL C-2441158-471-428 0.00255822902412477 125000 -9398.79545088404 0 0 69 (D3h) n - 1
REM
REM in /home/bkarasulu/work/CARBON/AIRSS/Generating-Clusters/ReaxFF-fromJPCA2015/Units_Real/with-SteepDescent/Higher-Symm
REM
REM
REM
REM
REM
REM ./C.cell (1df0a924f5614ab8850e4351716899ee)
REM
REM compiler GCC version 9.2.1 20190827 (Red Hat 9.2.1-1)
REM options -cpp -mtune=generic -march=x86-64 -g -O0 -fpre-include=/usr/include/finclude/math-vector-fortran.h
REM seed -495860700 77953048 -63452220 964144706 -418634537 1822963512 406900783 1157823180 1256850173 781299683 -183876319 38538716 -1275545010 -1065809998 2019357100 -1773415476 -1340150146 -1477373525 895667314 -211564035 2038452498 -729484997 -915223122 -2084958956 285556682 -47924327 651582002 1988259558 -52333490 -926764091 1953429392 -1026719314 1329001196
REM
CELL 1.54180   50.00000   50.00000   50.00000   90.00000   90.00000   90.00000
LATT -1
SFAC C  
C      1  0.5157920000000  0.4494180000000  0.4704050000000 1.0
C      1  0.4665680000000  0.4494740000000  0.5010290000000 1.0
C      1  0.5176400000000  0.4494380000000  0.5285580000000 1.0
C      1  0.5156700000000  0.5509850000000  0.4701020000000 1.0
C      1  0.4667540000000  0.5508840000000  0.5008800000000 1.0
C      1  0.5175370000000  0.5510070000000  0.5287320000000 1.0
C      1  0.4842290000000  0.4494320000000  0.4704770000000 1.0
C      1  0.5333600000000  0.4494770000000  0.5010360000000 1.0
C      1  0.4823970000000  0.4494480000000  0.5284620000000 1.0
C      1  0.4843020000000  0.5509180000000  0.4702330000000 1.0
C      1  0.5331580000000  0.5508790000000  0.5008580000000 1.0
C      1  0.4824670000000  0.5509710000000  0.5285330000000 1.0
C      1  0.5504150000000  0.5251670000000  0.4546190000000 1.0
C      1  0.4337850000000  0.5256930000000  0.4789520000000 1.0
C      1  0.5145080000000  0.5253140000000  0.5665590000000 1.0
C      1  0.5506000000000  0.4751010000000  0.4540750000000 1.0
C      1  0.4346620000000  0.4749380000000  0.4790600000000 1.0
C      1  0.5145180000000  0.4750930000000  0.5664310000000 1.0
C      1  0.4497610000000  0.5252140000000  0.4545830000000 1.0
C      1  0.5661100000000  0.5257280000000  0.4791220000000 1.0
C      1  0.4853750000000  0.5254260000000  0.5669400000000 1.0
C      1  0.4493890000000  0.4750630000000  0.4539470000000 1.0
C      1  0.5658300000000  0.4748010000000  0.4788720000000 1.0
C      1  0.4853670000000  0.4749870000000  0.5667910000000 1.0
C      1  0.4304410000000  0.4749370000000  0.5213130000000 1.0
C      1  0.5533830000000  0.4747980000000  0.5494760000000 1.0
C      1  0.5162840000000  0.4747470000000  0.4290120000000 1.0
C      1  0.4304320000000  0.5254650000000  0.5213320000000 1.0
C      1  0.5533490000000  0.5255930000000  0.5494930000000 1.0
C      1  0.5163050000000  0.5256740000000  0.4290730000000 1.0
C      1  0.5695600000000  0.4750120000000  0.5212420000000 1.0
C      1  0.4466470000000  0.4748550000000  0.5495160000000 1.0
C      1  0.4837420000000  0.4747590000000  0.4289880000000 1.0
C      1  0.5696060000000  0.5253780000000  0.5211950000000 1.0
C      1  0.4466750000000  0.5255340000000  0.5495270000000 1.0
C      1  0.4837310000000  0.5256610000000  0.4290500000000 1.0
C      1  0.4688920000000  0.5451160000000  0.4450040000000 1.0
C      1  0.4679920000000  0.5449790000000  0.5545000000000 1.0
C      1  0.5631250000000  0.5445030000000  0.5002590000000 1.0
C      1  0.4688800000000  0.4554760000000  0.4451670000000 1.0
C      1  0.4679850000000  0.4554200000000  0.5544240000000 1.0
C      1  0.5630490000000  0.4556810000000  0.5003740000000 1.0
C      1  0.5310840000000  0.5450790000000  0.4450560000000 1.0
C      1  0.5320970000000  0.5450820000000  0.5545260000000 1.0
C      1  0.4370040000000  0.5446700000000  0.5003460000000 1.0
C      1  0.5311420000000  0.4554580000000  0.4451390000000 1.0
C      1  0.5321050000000  0.4553120000000  0.5544600000000 1.0
C      1  0.4368900000000  0.4555270000000  0.5004470000000 1.0
C      1  0.4797550000000  0.5207820000000  0.4737340000000 1.0
C      1  0.4874470000000  0.5211760000000  0.5304650000000 1.0
C      1  0.5313970000000  0.5215170000000  0.4967480000000 1.0
C      1  0.4804270000000  0.4793900000000  0.4738590000000 1.0
C      1  0.4872040000000  0.4792740000000  0.5300860000000 1.0
C      1  0.5317500000000  0.4790850000000  0.4964770000000 1.0
C      1  0.5203230000000  0.5207840000000  0.4738930000000 1.0
C      1  0.5124520000000  0.5211160000000  0.5308480000000 1.0
C      1  0.4683140000000  0.5213680000000  0.4964530000000 1.0
C      1  0.5197160000000  0.4794210000000  0.4738580000000 1.0
C      1  0.5126070000000  0.4793290000000  0.5305860000000 1.0
C      1  0.4677940000000  0.4792510000000  0.4961720000000 1.0
C      1  0.5448740000000  0.5002010000000  0.5586010000000 1.0
C      1  0.5282770000000  0.5001630000000  0.4318420000000 1.0
C      1  0.4268570000000  0.5002830000000  0.5091600000000 1.0
C      1  0.4552740000000  0.5001980000000  0.5586760000000 1.0
C      1  0.4717210000000  0.5001500000000  0.4318330000000 1.0
C      1  0.5731220000000  0.5003180000000  0.5088990000000 1.0
C      1  0.4703880000000  0.5003640000000  0.5170320000000 1.0
C      1  0.5297760000000  0.5004460000000  0.5169020000000 1.0
C      1  0.4999310000000  0.5000410000000  0.4656990000000 1.0
END
