TITL C-2441160-1326-583 0.102487192908291 125000 -21622.7778118692 0 0 169 (C1) n - 1
REM
REM in /home/bkarasulu/work/CARBON/AIRSS/Generating-Clusters/ReaxFF-fromJPCA2015/Units_Real/with-SteepDescent/Higher-Symm
REM
REM
REM
REM
REM
REM ./C.cell (1df0a924f5614ab8850e4351716899ee)
REM
REM compiler GCC version 9.2.1 20190827 (Red Hat 9.2.1-1)
REM options -cpp -mtune=generic -march=x86-64 -g -O0 -fpre-include=/usr/include/finclude/math-vector-fortran.h
REM seed -819346409 732767649 -65984312 1829089015 1555551642 164685382 491988515 1060484655 -1563455810 -454548050 1868546919 463724693 1757233678 1670041647 479595009 -1550140430 1017609367 -1899236602 -463258117 -586186298 1864903995 1475837225 1985480227 1672916435 -1338646338 -1152777048 1837825661 939262832 771951489 -1348713769 1129163932 1118174513 537101151
REM
CELL 1.54180   50.00000   50.00000   50.00000   90.00000   90.00000   90.00000
LATT -1
SFAC C  
C      1  0.4095280000000  0.5326540000000  0.4661500000000 1.0
C      1  0.5376490000000  0.4601570000000  0.4041510000000 1.0
C      1  0.4595450000000  0.4106580000000  0.5403520000000 1.0
C      1  0.5913280000000  0.4602990000000  0.4641990000000 1.0
C      1  0.4082910000000  0.4619650000000  0.5378520000000 1.0
C      1  0.5891290000000  0.5419140000000  0.5390380000000 1.0
C      1  0.4630450000000  0.5347100000000  0.4065330000000 1.0
C      1  0.5351830000000  0.5327230000000  0.5929760000000 1.0
C      1  0.4656940000000  0.4616940000000  0.5908340000000 1.0
C      1  0.5422020000000  0.5903310000000  0.5436140000000 1.0
C      1  0.4613210000000  0.5872330000000  0.4599750000000 1.0
C      1  0.5401750000000  0.4129770000000  0.4633990000000 1.0
C      1  0.4088670000000  0.5417990000000  0.5405910000000 1.0
C      1  0.5311410000000  0.4533170000000  0.5927320000000 1.0
C      1  0.4642220000000  0.4087110000000  0.4658170000000 1.0
C      1  0.5927610000000  0.4638560000000  0.5372310000000 1.0
C      1  0.4082760000000  0.4610510000000  0.4595050000000 1.0
C      1  0.5948590000000  0.5347530000000  0.4677520000000 1.0
C      1  0.4644420000000  0.5424260000000  0.5912560000000 1.0
C      1  0.5367970000000  0.5428650000000  0.4113440000000 1.0
C      1  0.4658030000000  0.4657240000000  0.4074720000000 1.0
C      1  0.5408190000000  0.5911640000000  0.4651700000000 1.0
C      1  0.4695060000000  0.5909140000000  0.5305490000000 1.0
C      1  0.5420020000000  0.4107840000000  0.5375570000000 1.0
C      1  0.5609090000000  0.5277260000000  0.4256240000000 1.0
C      1  0.5211730000000  0.4186710000000  0.5571280000000 1.0
C      1  0.4209190000000  0.5627110000000  0.5203280000000 1.0
C      1  0.4393020000000  0.4840940000000  0.4155060000000 1.0
C      1  0.5681080000000  0.4924500000000  0.5830650000000 1.0
C      1  0.4404610000000  0.5267560000000  0.5808760000000 1.0
C      1  0.4836400000000  0.5855730000000  0.5597270000000 1.0
C      1  0.5190600000000  0.5857730000000  0.4444030000000 1.0
C      1  0.4812730000000  0.4220190000000  0.4396210000000 1.0
C      1  0.5829450000000  0.4414150000000  0.5148130000000 1.0
C      1  0.4146720000000  0.4366270000000  0.4781960000000 1.0
C      1  0.5879410000000  0.5626220000000  0.4829280000000 1.0
C      1  0.5640600000000  0.5204510000000  0.5839110000000 1.0
C      1  0.5215000000000  0.4183280000000  0.4403980000000 1.0
C      1  0.4160670000000  0.5589640000000  0.4801860000000 1.0
C      1  0.4386180000000  0.4725730000000  0.5849900000000 1.0
C      1  0.5625020000000  0.4723460000000  0.4162280000000 1.0
C      1  0.4383670000000  0.5164580000000  0.4145610000000 1.0
C      1  0.4791400000000  0.5804700000000  0.4361870000000 1.0
C      1  0.5205760000000  0.5832950000000  0.5653480000000 1.0
C      1  0.4808750000000  0.4170230000000  0.5615490000000 1.0
C      1  0.5863790000000  0.4377920000000  0.4824080000000 1.0
C      1  0.4175920000000  0.4384340000000  0.5185600000000 1.0
C      1  0.5900480000000  0.5601460000000  0.5119490000000 1.0
C      1  0.5140740000000  0.5596060000000  0.4476790000000 1.0
C      1  0.5565340000000  0.4541160000000  0.5140420000000 1.0
C      1  0.4525100000000  0.5099930000000  0.5589900000000 1.0
C      1  0.4928980000000  0.4457350000000  0.4518090000000 1.0
C      1  0.5103850000000  0.4433340000000  0.5476270000000 1.0
C      1  0.4876770000000  0.5572430000000  0.5554680000000 1.0
C      1  0.4443380000000  0.5504310000000  0.5095620000000 1.0
C      1  0.5489710000000  0.5513550000000  0.4876060000000 1.0
C      1  0.4400400000000  0.4433380000000  0.4803900000000 1.0
C      1  0.5552820000000  0.4862170000000  0.5589490000000 1.0
C      1  0.4461640000000  0.4827890000000  0.4413780000000 1.0
C      1  0.5448570000000  0.5083470000000  0.4416750000000 1.0
C      1  0.5154310000000  0.5587120000000  0.5569120000000 1.0
C      1  0.5508610000000  0.4564090000000  0.4864720000000 1.0
C      1  0.4463350000000  0.5084210000000  0.4519320000000 1.0
C      1  0.4852930000000  0.4437400000000  0.5596260000000 1.0
C      1  0.5178860000000  0.4449880000000  0.4422820000000 1.0
C      1  0.4869840000000  0.5536640000000  0.4437910000000 1.0
C      1  0.4422720000000  0.5563180000000  0.4840390000000 1.0
C      1  0.5607620000000  0.5567220000000  0.5133180000000 1.0
C      1  0.4415610000000  0.4494120000000  0.5055630000000 1.0
C      1  0.5544210000000  0.4817750000000  0.4425730000000 1.0
C      1  0.4419890000000  0.4831490000000  0.5582330000000 1.0
C      1  0.5507170000000  0.5144110000000  0.5432840000000 1.0
C      1  0.4820900000000  0.4886850000000  0.3864280000000 1.0
C      1  0.4809440000000  0.3860280000000  0.4793460000000 1.0
C      1  0.3861850000000  0.4885810000000  0.4817280000000 1.0
C      1  0.5110690000000  0.5188260000000  0.3862790000000 1.0
C      1  0.4900700000000  0.5189590000000  0.6134210000000 1.0
C      1  0.5183430000000  0.4873350000000  0.6111050000000 1.0
C      1  0.5119590000000  0.6149810000000  0.4860100000000 1.0
C      1  0.4812990000000  0.6151130000000  0.5155260000000 1.0
C      1  0.5114350000000  0.3804520000000  0.5067510000000 1.0
C      1  0.6173510000000  0.5177460000000  0.4831550000000 1.0
C      1  0.3921790000000  0.5180980000000  0.5111910000000 1.0
C      1  0.6160110000000  0.4875900000000  0.5120910000000 1.0
C      1  0.4884490000000  0.4895500000000  0.6105810000000 1.0
C      1  0.4815200000000  0.3828520000000  0.5084200000000 1.0
C      1  0.3889740000000  0.4886420000000  0.5119700000000 1.0
C      1  0.5192660000000  0.5163760000000  0.6147990000000 1.0
C      1  0.4813150000000  0.5170550000000  0.3856160000000 1.0
C      1  0.5113090000000  0.4875740000000  0.3840300000000 1.0
C      1  0.5102490000000  0.6180180000000  0.5160470000000 1.0
C      1  0.4814840000000  0.6128780000000  0.4860730000000 1.0
C      1  0.5097540000000  0.3899430000000  0.4789500000000 1.0
C      1  0.6155960000000  0.5176550000000  0.5120410000000 1.0
C      1  0.3884220000000  0.5182700000000  0.4821780000000 1.0
C      1  0.6162090000000  0.4890520000000  0.4821090000000 1.0
C      1  0.4187350000000  0.4650880000000  0.5648520000000 1.0
C      1  0.4675710000000  0.5627930000000  0.4164100000000 1.0
C      1  0.5601370000000  0.4331500000000  0.4709320000000 1.0
C      1  0.5684000000000  0.5335280000000  0.5580100000000 1.0
C      1  0.4264850000000  0.5275890000000  0.4372530000000 1.0
C      1  0.5768110000000  0.4617680000000  0.4389120000000 1.0
C      1  0.5321840000000  0.4359050000000  0.4197290000000 1.0
C      1  0.4677140000000  0.4346860000000  0.5800570000000 1.0
C      1  0.5317650000000  0.5605810000000  0.5802820000000 1.0
C      1  0.4351020000000  0.5754670000000  0.4649640000000 1.0
C      1  0.5613580000000  0.5716910000000  0.5370840000000 1.0
C      1  0.4347760000000  0.4218680000000  0.5344590000000 1.0
C      1  0.4247690000000  0.4653240000000  0.4362350000000 1.0
C      1  0.4666880000000  0.5656190000000  0.5737670000000 1.0
C      1  0.5611920000000  0.4307040000000  0.5304520000000 1.0
C      1  0.5843690000000  0.5366320000000  0.4377030000000 1.0
C      1  0.4210510000000  0.5375590000000  0.5646950000000 1.0
C      1  0.5773960000000  0.4682690000000  0.5607300000000 1.0
C      1  0.5325230000000  0.4325260000000  0.5792250000000 1.0
C      1  0.4675880000000  0.4383930000000  0.4202960000000 1.0
C      1  0.5328140000000  0.5667520000000  0.4267480000000 1.0
C      1  0.4387700000000  0.5826910000000  0.5310480000000 1.0
C      1  0.5620640000000  0.5705440000000  0.4705280000000 1.0
C      1  0.4356850000000  0.4184420000000  0.4695370000000 1.0
C      1  0.5383720000000  0.5145670000000  0.5108530000000 1.0
C      1  0.5225630000000  0.5156220000000  0.5500730000000 1.0
C      1  0.5149700000000  0.5343270000000  0.5067440000000 1.0
C      1  0.4538850000000  0.4721400000000  0.5151670000000 1.0
C      1  0.5269640000000  0.4694540000000  0.4890330000000 1.0
C      1  0.4567230000000  0.5136670000000  0.4905100000000 1.0
C      1  0.4863270000000  0.4914530000000  0.5441770000000 1.0
C      1  0.5122770000000  0.4901410000000  0.4674230000000 1.0
C      1  0.4768430000000  0.5143180000000  0.4518880000000 1.0
C      1  0.4779850000000  0.4679440000000  0.5297300000000 1.0
C      1  0.5103390000000  0.4467900000000  0.4950560000000 1.0
C      1  0.4787330000000  0.5296240000000  0.4776050000000 1.0
C      1  0.5504200000000  0.5219590000000  0.4842600000000 1.0
C      1  0.5279040000000  0.5152550000000  0.4636980000000 1.0
C      1  0.5070960000000  0.5359260000000  0.4788040000000 1.0
C      1  0.4680530000000  0.4836320000000  0.4912970000000 1.0
C      1  0.5318000000000  0.4859520000000  0.5142080000000 1.0
C      1  0.4488030000000  0.5239520000000  0.5166720000000 1.0
C      1  0.4894470000000  0.4877140000000  0.4492520000000 1.0
C      1  0.5135180000000  0.4937410000000  0.5356410000000 1.0
C      1  0.4717530000000  0.5176320000000  0.5381080000000 1.0
C      1  0.4858000000000  0.4496900000000  0.4792210000000 1.0
C      1  0.5003200000000  0.4510460000000  0.5222300000000 1.0
C      1  0.4887620000000  0.5419250000000  0.5158360000000 1.0
C      1  0.5265680000000  0.5934520000000  0.5191820000000 1.0
C      1  0.5887480000000  0.5176350000000  0.5238260000000 1.0
C      1  0.5133480000000  0.5228630000000  0.5746560000000 1.0
C      1  0.4746760000000  0.4107120000000  0.5141840000000 1.0
C      1  0.5238720000000  0.4156340000000  0.4884430000000 1.0
C      1  0.4774450000000  0.5837410000000  0.4842300000000 1.0
C      1  0.4168560000000  0.4849350000000  0.5222610000000 1.0
C      1  0.5879290000000  0.4868580000000  0.4757070000000 1.0
C      1  0.4308780000000  0.5095270000000  0.4752570000000 1.0
C      1  0.4873350000000  0.4803840000000  0.5820340000000 1.0
C      1  0.5148790000000  0.4769440000000  0.4108400000000 1.0
C      1  0.4869950000000  0.5295570000000  0.4284700000000 1.0
C      1  0.5268990000000  0.5895940000000  0.4899040000000 1.0
C      1  0.5761400000000  0.5125090000000  0.4747560000000 1.0
C      1  0.5138300000000  0.5261800000000  0.4140390000000 1.0
C      1  0.4740230000000  0.4252120000000  0.4890530000000 1.0
C      1  0.5305690000000  0.4006910000000  0.5136770000000 1.0
C      1  0.4801580000000  0.5690600000000  0.5097690000000 1.0
C      1  0.4138830000000  0.4848610000000  0.4745410000000 1.0
C      1  0.5880690000000  0.4881190000000  0.5224990000000 1.0
C      1  0.4191130000000  0.5157540000000  0.5264360000000 1.0
C      1  0.4893500000000  0.4750290000000  0.4246650000000 1.0
C      1  0.5173810000000  0.4756790000000  0.5842820000000 1.0
C      1  0.4869510000000  0.5248190000000  0.5852390000000 1.0
C      1  0.4948400000000  0.4935780000000  0.4934800000000 1.0
END
