TITL C-2441164-471-1204 0.00337866495457469 125000 -4652.42700280104 0 0 35 (C1) n - 1
REM
REM in /home/bkarasulu/work/CARBON/AIRSS/Generating-Clusters/ReaxFF-fromJPCA2015/Units_Real/with-SteepDescent/Higher-Symm
REM
REM
REM
REM
REM
REM ./C.cell (1df0a924f5614ab8850e4351716899ee)
REM
REM compiler GCC version 9.2.1 20190827 (Red Hat 9.2.1-1)
REM options -cpp -mtune=generic -march=x86-64 -g -O0 -fpre-include=/usr/include/finclude/math-vector-fortran.h
REM seed 1969463181 -2062090684 2009538984 1126768357 200004714 647057882 212671232 1333811682 606923413 1176208884 1434579024 1285112677 -1432256399 2046010707 -968587777 -974875982 204043143 -1942514647 -1914074924 -1144306816 1827210085 -843301691 1608432530 760669559 -128647683 -1608018076 -1087733847 -240857762 1994694009 1605152566 -1191671931 -1970032226 1379452418
REM
CELL 1.54180   50.00000   50.00000   50.00000   90.00000   90.00000   90.00000
LATT -1
SFAC C  
C      1  0.5132820000000  0.4423800000000  0.5163210000000 1.0
C      1  0.5109060000000  0.5536290000000  0.4820360000000 1.0
C      1  0.5116140000000  0.5539970000000  0.5156950000000 1.0
C      1  0.5123640000000  0.4440830000000  0.4825030000000 1.0
C      1  0.4644010000000  0.4695000000000  0.5391420000000 1.0
C      1  0.4682890000000  0.5292380000000  0.4588000000000 1.0
C      1  0.4647490000000  0.5309850000000  0.5386220000000 1.0
C      1  0.4672560000000  0.4698270000000  0.4580630000000 1.0
C      1  0.5062140000000  0.4730440000000  0.4468630000000 1.0
C      1  0.5112980000000  0.5242630000000  0.5558260000000 1.0
C      1  0.5125830000000  0.5242950000000  0.4403580000000 1.0
C      1  0.5054360000000  0.4735320000000  0.5510160000000 1.0
C      1  0.4832210000000  0.5159030000000  0.5539780000000 1.0
C      1  0.4829840000000  0.4841800000000  0.4389430000000 1.0
C      1  0.4805910000000  0.4845410000000  0.5575810000000 1.0
C      1  0.4846250000000  0.5159370000000  0.4401450000000 1.0
C      1  0.5018380000000  0.4278010000000  0.5326970000000 1.0
C      1  0.5002690000000  0.5709010000000  0.4671190000000 1.0
C      1  0.5007940000000  0.5712430000000  0.5304790000000 1.0
C      1  0.5025910000000  0.4295260000000  0.4641170000000 1.0
C      1  0.4726390000000  0.5258610000000  0.5138680000000 1.0
C      1  0.4587600000000  0.4728560000000  0.4845940000000 1.0
C      1  0.4707220000000  0.4716200000000  0.5127340000000 1.0
C      1  0.4608810000000  0.5261670000000  0.4853960000000 1.0
C      1  0.5335110000000  0.5130610000000  0.5426860000000 1.0
C      1  0.5311280000000  0.4891840000000  0.4745390000000 1.0
C      1  0.5341680000000  0.4897160000000  0.5249630000000 1.0
C      1  0.5325100000000  0.5130430000000  0.4568600000000 1.0
C      1  0.5261190000000  0.4623070000000  0.5359250000000 1.0
C      1  0.5259980000000  0.5400480000000  0.4594390000000 1.0
C      1  0.5260810000000  0.5401070000000  0.5385370000000 1.0
C      1  0.5224650000000  0.4643720000000  0.4633320000000 1.0
C      1  0.4892100000000  0.4974150000000  0.5069980000000 1.0
C      1  0.4739810000000  0.4991580000000  0.4840570000000 1.0
C      1  0.5188070000000  0.4944380000000  0.5010450000000 1.0
END
