TITL C-2441169-1362-794 0.0999758347155605 125000 -12340.1299507099 0 0 102 (C1) n - 1
REM
REM in /home/bkarasulu/work/CARBON/AIRSS/Generating-Clusters/ReaxFF-fromJPCA2015/Units_Real/with-SteepDescent/Higher-Symm
REM
REM
REM
REM
REM
REM ./C.cell (1df0a924f5614ab8850e4351716899ee)
REM
REM compiler GCC version 9.2.1 20190827 (Red Hat 9.2.1-1)
REM options -cpp -mtune=generic -march=x86-64 -g -O0 -fpre-include=/usr/include/finclude/math-vector-fortran.h
REM seed 1551497308 -854056203 349385779 1693548678 -1250021292 1422226541 420190788 914057047 -1059993065 541682164 -1457451243 -1826842822 -2015311168 948349134 -1746149273 -50070463 -2012901550 622965738 525480643 2041053908 -1597962854 -1533613534 -1201990290 1292651060 1725865120 -1529476406 -1534035386 1708149969 871295954 -799773689 1395959863 1303586456 1966340847
REM
CELL 1.54180   50.00000   50.00000   50.00000   90.00000   90.00000   90.00000
LATT -1
SFAC C  
C      1  0.5703530000000  0.5462240000000  0.5212630000000 1.0
C      1  0.4753890000000  0.4378640000000  0.4770060000000 1.0
C      1  0.5112990000000  0.5109860000000  0.5226920000000 1.0
C      1  0.4828580000000  0.5225830000000  0.4843860000000 1.0
C      1  0.5847610000000  0.5339600000000  0.4978630000000 1.0
C      1  0.4720070000000  0.4230800000000  0.5308850000000 1.0
C      1  0.4991300000000  0.4542610000000  0.4703690000000 1.0
C      1  0.5381560000000  0.4611720000000  0.5397620000000 1.0
C      1  0.4978650000000  0.5371190000000  0.5270870000000 1.0
C      1  0.4842850000000  0.4592620000000  0.4328660000000 1.0
C      1  0.5773470000000  0.5430910000000  0.4731460000000 1.0
C      1  0.4770840000000  0.5486590000000  0.4420090000000 1.0
C      1  0.4321780000000  0.4847230000000  0.5505280000000 1.0
C      1  0.4210930000000  0.4997560000000  0.5286230000000 1.0
C      1  0.5655980000000  0.5364510000000  0.4490740000000 1.0
C      1  0.4302930000000  0.4559030000000  0.5158690000000 1.0
C      1  0.5456850000000  0.4879300000000  0.4283550000000 1.0
C      1  0.4337610000000  0.4561610000000  0.5444260000000 1.0
C      1  0.4590290000000  0.4423790000000  0.5499760000000 1.0
C      1  0.4379470000000  0.5356780000000  0.4965580000000 1.0
C      1  0.5027000000000  0.4216350000000  0.5278490000000 1.0
C      1  0.4463210000000  0.5527180000000  0.4757910000000 1.0
C      1  0.4978890000000  0.4156650000000  0.4765510000000 1.0
C      1  0.5738750000000  0.4866410000000  0.4590300000000 1.0
C      1  0.5124680000000  0.5852700000000  0.4825300000000 1.0
C      1  0.5118650000000  0.4238550000000  0.5006090000000 1.0
C      1  0.5552330000000  0.5088510000000  0.4911040000000 1.0
C      1  0.4263330000000  0.5192540000000  0.4537970000000 1.0
C      1  0.4949710000000  0.5057370000000  0.4609010000000 1.0
C      1  0.5331610000000  0.5113910000000  0.5619970000000 1.0
C      1  0.4388160000000  0.4635410000000  0.4501770000000 1.0
C      1  0.4192580000000  0.4755990000000  0.4720520000000 1.0
C      1  0.5392140000000  0.5513410000000  0.5574930000000 1.0
C      1  0.4925240000000  0.5325690000000  0.5746060000000 1.0
C      1  0.4781670000000  0.4570930000000  0.5684320000000 1.0
C      1  0.5087040000000  0.4476240000000  0.5700040000000 1.0
C      1  0.4375940000000  0.5455060000000  0.4475010000000 1.0
C      1  0.4916720000000  0.4648650000000  0.5208760000000 1.0
C      1  0.5127000000000  0.5297720000000  0.4104370000000 1.0
C      1  0.4486990000000  0.4828210000000  0.4306900000000 1.0
C      1  0.5612500000000  0.4994280000000  0.5605120000000 1.0
C      1  0.4694640000000  0.5162930000000  0.5112270000000 1.0
C      1  0.4587550000000  0.5012560000000  0.5585240000000 1.0
C      1  0.5199670000000  0.4367390000000  0.5462670000000 1.0
C      1  0.4513320000000  0.5068670000000  0.4466370000000 1.0
C      1  0.4985390000000  0.4815130000000  0.4986040000000 1.0
C      1  0.4741960000000  0.5750570000000  0.5150960000000 1.0
C      1  0.5103360000000  0.4817220000000  0.5360520000000 1.0
C      1  0.5127040000000  0.5183890000000  0.4947360000000 1.0
C      1  0.4267980000000  0.5255320000000  0.5424360000000 1.0
C      1  0.5097560000000  0.4909980000000  0.5660210000000 1.0
C      1  0.5224990000000  0.5354270000000  0.5749730000000 1.0
C      1  0.5237660000000  0.4739460000000  0.4867470000000 1.0
C      1  0.5644430000000  0.5073910000000  0.4407360000000 1.0
C      1  0.5531930000000  0.4679010000000  0.4490850000000 1.0
C      1  0.5353950000000  0.5730820000000  0.4749240000000 1.0
C      1  0.4149380000000  0.5044910000000  0.4757170000000 1.0
C      1  0.4449620000000  0.5311660000000  0.5640570000000 1.0
C      1  0.5295370000000  0.5778910000000  0.5043000000000 1.0
C      1  0.5550990000000  0.4444630000000  0.5206620000000 1.0
C      1  0.4996580000000  0.5429940000000  0.4985580000000 1.0
C      1  0.5070710000000  0.5616340000000  0.5441590000000 1.0
C      1  0.5735870000000  0.4998210000000  0.5334620000000 1.0
C      1  0.4685780000000  0.4265100000000  0.5036550000000 1.0
C      1  0.4803110000000  0.4832020000000  0.4742990000000 1.0
C      1  0.5024240000000  0.5800920000000  0.5209640000000 1.0
C      1  0.4812440000000  0.5562690000000  0.5605130000000 1.0
C      1  0.5821750000000  0.4810470000000  0.5103880000000 1.0
C      1  0.5217980000000  0.4938770000000  0.4637450000000 1.0
C      1  0.5505340000000  0.4724210000000  0.5650320000000 1.0
C      1  0.5634800000000  0.5379270000000  0.5486100000000 1.0
C      1  0.4610530000000  0.4700780000000  0.5144050000000 1.0
C      1  0.4759310000000  0.4839340000000  0.4208150000000 1.0
C      1  0.5537230000000  0.4266780000000  0.4778770000000 1.0
C      1  0.4994320000000  0.5563560000000  0.4474800000000 1.0
C      1  0.4627340000000  0.5612470000000  0.5386270000000 1.0
C      1  0.5397730000000  0.5493520000000  0.4576730000000 1.0
C      1  0.4662720000000  0.4957700000000  0.5292150000000 1.0
C      1  0.5341550000000  0.5184070000000  0.4754360000000 1.0
C      1  0.5797710000000  0.4533400000000  0.5110030000000 1.0
C      1  0.5351030000000  0.4435560000000  0.4976610000000 1.0
C      1  0.4926380000000  0.5673940000000  0.4759310000000 1.0
C      1  0.4607650000000  0.4577010000000  0.5883480000000 1.0
C      1  0.4939330000000  0.5053540000000  0.4120100000000 1.0
C      1  0.5808930000000  0.4985920000000  0.4857780000000 1.0
C      1  0.4331510000000  0.5068410000000  0.4982010000000 1.0
C      1  0.5419980000000  0.5502190000000  0.5167090000000 1.0
C      1  0.4549520000000  0.4847660000000  0.4895660000000 1.0
C      1  0.4629400000000  0.4497200000000  0.4508240000000 1.0
C      1  0.5517290000000  0.5072590000000  0.5172550000000 1.0
C      1  0.4140940000000  0.4719360000000  0.5000530000000 1.0
C      1  0.5113210000000  0.4327960000000  0.4565960000000 1.0
C      1  0.5338780000000  0.5224600000000  0.5297860000000 1.0
C      1  0.4507720000000  0.5372960000000  0.5225700000000 1.0
C      1  0.4594480000000  0.5306640000000  0.4315240000000 1.0
C      1  0.5170890000000  0.5332380000000  0.4393250000000 1.0
C      1  0.4840920000000  0.5052690000000  0.5735940000000 1.0
C      1  0.5110240000000  0.4674350000000  0.4352600000000 1.0
C      1  0.5418040000000  0.4401810000000  0.4553350000000 1.0
C      1  0.5176860000000  0.4886140000000  0.4184570000000 1.0
C      1  0.5260170000000  0.4682470000000  0.5796430000000 1.0
C      1  0.4657580000000  0.5709660000000  0.4871750000000 1.0
END
