TITL C-2441164-471-264 -0.00159698358094362 125000 -1584.62869783244 0 0 12 (C1) n - 1
REM
REM in /home/bkarasulu/work/CARBON/AIRSS/Generating-Clusters/ReaxFF-fromJPCA2015/Units_Real/with-SteepDescent/Higher-Symm
REM
REM
REM
REM
REM
REM ./C.cell (1df0a924f5614ab8850e4351716899ee)
REM
REM compiler GCC version 9.2.1 20190827 (Red Hat 9.2.1-1)
REM options -cpp -mtune=generic -march=x86-64 -g -O0 -fpre-include=/usr/include/finclude/math-vector-fortran.h
REM seed -811921020 2029974351 -464682460 2134174591 535484754 -849493588 -1735637036 102540007 404738183 -1988148141 -1538629191 1767224949 -1589187331 -436223939 1893905474 1575494560 1247234793 -45474369 571100188 -1027925038 -1271203200 375939146 1692079818 1177651335 1357370649 50784864 1031061138 -1566154209 -1868624403 926841971 -1115776823 152473491 934124354
REM
CELL 1.54180   50.00000   50.00000   50.00000   90.00000   90.00000   90.00000
LATT -1
SFAC C  
C      1  0.5056100000000  0.4851830000000  0.5046680000000 1.0
C      1  0.5051900000000  0.5134650000000  0.5060900000000 1.0
C      1  0.4937920000000  0.5139270000000  0.4530810000000 1.0
C      1  0.4935750000000  0.4859470000000  0.4522230000000 1.0
C      1  0.4983400000000  0.5342100000000  0.5530230000000 1.0
C      1  0.4983630000000  0.4662280000000  0.5518010000000 1.0
C      1  0.5017880000000  0.5224080000000  0.5320830000000 1.0
C      1  0.5021890000000  0.4801780000000  0.5317070000000 1.0
C      1  0.5001080000000  0.5308990000000  0.4793790000000 1.0
C      1  0.5000560000000  0.4684960000000  0.4784040000000 1.0
C      1  0.5004330000000  0.4430300000000  0.4785430000000 1.0
C      1  0.5005550000000  0.5560270000000  0.4789980000000 1.0
END
