TITL C-2441161-5029-1071 0.033926228092378 125000 -19166.0046347929 0 0 137 (C1) n - 1
REM
REM in /home/bkarasulu/work/CARBON/AIRSS/Generating-Clusters/ReaxFF-fromJPCA2015/Units_Real/with-SteepDescent/Higher-Symm
REM
REM
REM
REM
REM
REM ./C.cell (1df0a924f5614ab8850e4351716899ee)
REM
REM compiler GCC version 9.2.1 20190827 (Red Hat 9.2.1-1)
REM options -cpp -mtune=generic -march=x86-64 -g -O0 -fpre-include=/usr/include/finclude/math-vector-fortran.h
REM seed -1122355007 -1317481915 -2026043182 -1008871588 -1667698149 976621584 1803956634 -432768323 -1565601033 -1399537074 1404340411 919782213 1331373253 361978847 -1573229912 -1113038478 -1731023996 1222908492 2001141954 582944602 63795943 1062105753 -1982114423 821812377 1367574811 1547658683 2009172211 2128060295 1552179969 -1355984039 905151778 -1892189206 1062073497
REM
CELL 1.54180   50.00000   50.00000   50.00000   90.00000   90.00000   90.00000
LATT -1
SFAC C  
C      1  0.5834530000000  0.4386090000000  0.5185130000000 1.0
C      1  0.5388220000000  0.4019490000000  0.5198500000000 1.0
C      1  0.4834530000000  0.3978670000000  0.5169090000000 1.0
C      1  0.4305160000000  0.4226710000000  0.5199630000000 1.0
C      1  0.4000110000000  0.4784640000000  0.5156180000000 1.0
C      1  0.4075550000000  0.5354890000000  0.5178780000000 1.0
C      1  0.4299780000000  0.5812880000000  0.5198580000000 1.0
C      1  0.4843520000000  0.6003190000000  0.5124130000000 1.0
C      1  0.5438510000000  0.5901820000000  0.5149800000000 1.0
C      1  0.5903190000000  0.5482780000000  0.5187280000000 1.0
C      1  0.6058880000000  0.4944690000000  0.5212260000000 1.0
C      1  0.5517300000000  0.5804390000000  0.4900060000000 1.0
C      1  0.5863650000000  0.5407740000000  0.4916680000000 1.0
C      1  0.6004400000000  0.4975870000000  0.4941120000000 1.0
C      1  0.5808230000000  0.4437110000000  0.4915960000000 1.0
C      1  0.5352930000000  0.4076240000000  0.4928830000000 1.0
C      1  0.4708070000000  0.4064780000000  0.4921930000000 1.0
C      1  0.4432160000000  0.4158470000000  0.4941640000000 1.0
C      1  0.4025680000000  0.4883400000000  0.4895530000000 1.0
C      1  0.4134990000000  0.5390820000000  0.4911020000000 1.0
C      1  0.4363910000000  0.5760070000000  0.4931800000000 1.0
C      1  0.4909480000000  0.6016110000000  0.4883070000000 1.0
C      1  0.4425700000000  0.4960840000000  0.4454590000000 1.0
C      1  0.4467610000000  0.5432650000000  0.4357030000000 1.0
C      1  0.4720200000000  0.5557520000000  0.4454910000000 1.0
C      1  0.5182320000000  0.5664870000000  0.4360880000000 1.0
C      1  0.5392370000000  0.5467520000000  0.4435710000000 1.0
C      1  0.5667640000000  0.5124080000000  0.4360270000000 1.0
C      1  0.5601550000000  0.4853880000000  0.4463080000000 1.0
C      1  0.5382740000000  0.4430260000000  0.4388510000000 1.0
C      1  0.5097940000000  0.4402850000000  0.4467630000000 1.0
C      1  0.4615940000000  0.4450790000000  0.4319880000000 1.0
C      1  0.4416420000000  0.4640500000000  0.4405260000000 1.0
C      1  0.5941450000000  0.5135120000000  0.5415550000000 1.0
C      1  0.5860390000000  0.4622260000000  0.5376690000000 1.0
C      1  0.5538450000000  0.4193470000000  0.5400350000000 1.0
C      1  0.5023380000000  0.4002000000000  0.5392700000000 1.0
C      1  0.4481400000000  0.4202090000000  0.5428050000000 1.0
C      1  0.4150650000000  0.4591290000000  0.5311860000000 1.0
C      1  0.4085360000000  0.5132880000000  0.5358840000000 1.0
C      1  0.4303690000000  0.5619990000000  0.5416030000000 1.0
C      1  0.4757060000000  0.5928560000000  0.5376750000000 1.0
C      1  0.5254320000000  0.5832180000000  0.5377460000000 1.0
C      1  0.5760390000000  0.5625300000000  0.5408460000000 1.0
C      1  0.4649490000000  0.5317970000000  0.5974610000000 1.0
C      1  0.4869840000000  0.5508050000000  0.5988490000000 1.0
C      1  0.5163680000000  0.5461700000000  0.5973380000000 1.0
C      1  0.5370790000000  0.5293100000000  0.6105960000000 1.0
C      1  0.5475460000000  0.5054920000000  0.5956680000000 1.0
C      1  0.5461980000000  0.4780380000000  0.6082550000000 1.0
C      1  0.5264870000000  0.4595260000000  0.5958620000000 1.0
C      1  0.5004100000000  0.4522010000000  0.6098800000000 1.0
C      1  0.4740540000000  0.4549080000000  0.5978380000000 1.0
C      1  0.4540990000000  0.4801680000000  0.5968860000000 1.0
C      1  0.4558120000000  0.5062670000000  0.6104470000000 1.0
C      1  0.4836770000000  0.4096580000000  0.4661770000000 1.0
C      1  0.4382640000000  0.4271480000000  0.4680440000000 1.0
C      1  0.4070720000000  0.4751560000000  0.4662190000000 1.0
C      1  0.4097740000000  0.5230930000000  0.4678200000000 1.0
C      1  0.4353670000000  0.5655280000000  0.4697040000000 1.0
C      1  0.4836990000000  0.5940230000000  0.4635110000000 1.0
C      1  0.5397350000000  0.5881330000000  0.4659340000000 1.0
C      1  0.5768090000000  0.5538980000000  0.4683630000000 1.0
C      1  0.5934660000000  0.5066770000000  0.4703420000000 1.0
C      1  0.5802780000000  0.4525290000000  0.4673160000000 1.0
C      1  0.5387850000000  0.4151960000000  0.4691390000000 1.0
C      1  0.4677220000000  0.5287710000000  0.4827660000000 1.0
C      1  0.4872040000000  0.5422990000000  0.4690100000000 1.0
C      1  0.5127560000000  0.5422890000000  0.4808470000000 1.0
C      1  0.5337490000000  0.5303620000000  0.4692570000000 1.0
C      1  0.5450370000000  0.5079460000000  0.4836670000000 1.0
C      1  0.5408220000000  0.4830900000000  0.4704730000000 1.0
C      1  0.5234120000000  0.4650270000000  0.4829600000000 1.0
C      1  0.4995760000000  0.4576770000000  0.4713760000000 1.0
C      1  0.4749270000000  0.4613600000000  0.4865920000000 1.0
C      1  0.4552740000000  0.4835250000000  0.4867070000000 1.0
C      1  0.4569270000000  0.5062750000000  0.4698730000000 1.0
C      1  0.4655690000000  0.4801890000000  0.4084860000000 1.0
C      1  0.4530180000000  0.5028460000000  0.4155560000000 1.0
C      1  0.4587550000000  0.5317640000000  0.4119240000000 1.0
C      1  0.4823130000000  0.5478260000000  0.4157750000000 1.0
C      1  0.5106200000000  0.5506350000000  0.4131740000000 1.0
C      1  0.5345170000000  0.5344680000000  0.4164960000000 1.0
C      1  0.5496830000000  0.5106550000000  0.4128030000000 1.0
C      1  0.5472340000000  0.4820830000000  0.4167500000000 1.0
C      1  0.5321580000000  0.4580440000000  0.4141950000000 1.0
C      1  0.5045090000000  0.4494340000000  0.4165500000000 1.0
C      1  0.4776580000000  0.4546880000000  0.4078290000000 1.0
C      1  0.4970690000000  0.5712400000000  0.5409810000000 1.0
C      1  0.5535820000000  0.5803480000000  0.5425670000000 1.0
C      1  0.5749580000000  0.5343670000000  0.5393790000000 1.0
C      1  0.5801300000000  0.4897580000000  0.5333230000000 1.0
C      1  0.5621210000000  0.4465650000000  0.5363490000000 1.0
C      1  0.5259760000000  0.4145460000000  0.5415210000000 1.0
C      1  0.4757600000000  0.4133320000000  0.5402520000000 1.0
C      1  0.4412820000000  0.4474640000000  0.5322560000000 1.0
C      1  0.4224530000000  0.4873610000000  0.5328320000000 1.0
C      1  0.4292450000000  0.5327910000000  0.5394020000000 1.0
C      1  0.4482460000000  0.5842190000000  0.5431430000000 1.0
C      1  0.4749380000000  0.4572230000000  0.5686260000000 1.0
C      1  0.4585300000000  0.4810220000000  0.5683340000000 1.0
C      1  0.4670960000000  0.5070290000000  0.5540860000000 1.0
C      1  0.4667160000000  0.5316230000000  0.5689960000000 1.0
C      1  0.4877710000000  0.5507530000000  0.5697790000000 1.0
C      1  0.5160140000000  0.5433160000000  0.5690050000000 1.0
C      1  0.5335340000000  0.5279020000000  0.5530040000000 1.0
C      1  0.5443420000000  0.5050180000000  0.5663950000000 1.0
C      1  0.5396120000000  0.4804880000000  0.5531090000000 1.0
C      1  0.5241890000000  0.4613050000000  0.5666350000000 1.0
C      1  0.4999970000000  0.4543660000000  0.5539330000000 1.0
C      1  0.5109450000000  0.5866780000000  0.4550860000000 1.0
C      1  0.5573030000000  0.5698590000000  0.4522170000000 1.0
C      1  0.5829570000000  0.5286830000000  0.4530070000000 1.0
C      1  0.5854110000000  0.4803350000000  0.4598270000000 1.0
C      1  0.5586950000000  0.4350240000000  0.4567700000000 1.0
C      1  0.5117440000000  0.4139880000000  0.4598320000000 1.0
C      1  0.4620670000000  0.4227880000000  0.4515250000000 1.0
C      1  0.4241400000000  0.4513850000000  0.4588620000000 1.0
C      1  0.4145190000000  0.4985180000000  0.4528580000000 1.0
C      1  0.4237840000000  0.5441890000000  0.4524350000000 1.0
C      1  0.4593350000000  0.5783080000000  0.4589820000000 1.0
C      1  0.4714640000000  0.4580480000000  0.5153790000000 1.0
C      1  0.4515980000000  0.4879190000000  0.5152830000000 1.0
C      1  0.4556180000000  0.5142870000000  0.5271580000000 1.0
C      1  0.4697520000000  0.5335750000000  0.5105910000000 1.0
C      1  0.4918450000000  0.5498840000000  0.5204230000000 1.0
C      1  0.5171050000000  0.5421570000000  0.5089440000000 1.0
C      1  0.5376300000000  0.5288040000000  0.5249000000000 1.0
C      1  0.5491680000000  0.5046860000000  0.5130240000000 1.0
C      1  0.5416610000000  0.4792240000000  0.5255770000000 1.0
C      1  0.5228450000000  0.4626130000000  0.5110340000000 1.0
C      1  0.4985550000000  0.4555770000000  0.5260220000000 1.0
C      1  0.4998900000000  0.5014590000000  0.4394420000000 1.0
C      1  0.4994400000000  0.5004790000000  0.5158690000000 1.0
C      1  0.4978850000000  0.5013370000000  0.5430140000000 1.0
C      1  0.4999020000000  0.4995740000000  0.4906080000000 1.0
C      1  0.5003310000000  0.4978880000000  0.4636050000000 1.0
END
