TITL C-2441164-471-204 0.244956458669638 125000 -24041.0192103739 0 0 198 (C1) n - 1
REM
REM in /home/bkarasulu/work/CARBON/AIRSS/Generating-Clusters/ReaxFF-fromJPCA2015/Units_Real/with-SteepDescent/Higher-Symm
REM
REM
REM
REM
REM
REM ./C.cell (1df0a924f5614ab8850e4351716899ee)
REM
REM compiler GCC version 9.2.1 20190827 (Red Hat 9.2.1-1)
REM options -cpp -mtune=generic -march=x86-64 -g -O0 -fpre-include=/usr/include/finclude/math-vector-fortran.h
REM seed 627241902 -1669491010 1290498275 27716455 1793833035 1539501641 560267903 664796769 -122482546 346821491 636003461 -558238401 -1667544554 -1436273415 119951478 1109176526 82192462 1820345502 812760862 1688968277 313346019 -768266134 -269162516 556982277 351656430 1495691645 -1100091163 -296330964 1115868386 -1393984644 -248633120 2031843861 1650400625
REM
CELL 1.54180   50.00000   50.00000   50.00000   90.00000   90.00000   90.00000
LATT -1
SFAC C  
C      1  0.4834990000000  0.4812190000000  0.5248030000000 1.0
C      1  0.4939130000000  0.5120720000000  0.5235580000000 1.0
C      1  0.5237980000000  0.5018290000000  0.5291290000000 1.0
C      1  0.4280440000000  0.4430010000000  0.5303440000000 1.0
C      1  0.4946460000000  0.5991980000000  0.5308910000000 1.0
C      1  0.5808990000000  0.4620870000000  0.5303940000000 1.0
C      1  0.4971380000000  0.4495400000000  0.4947990000000 1.0
C      1  0.4471670000000  0.5306380000000  0.4831130000000 1.0
C      1  0.5464470000000  0.5301800000000  0.4876550000000 1.0
C      1  0.4370850000000  0.5824410000000  0.5166160000000 1.0
C      1  0.5925480000000  0.5103020000000  0.5144000000000 1.0
C      1  0.4714900000000  0.4135840000000  0.5177400000000 1.0
C      1  0.5907980000000  0.5030580000000  0.4238870000000 1.0
C      1  0.4584390000000  0.4209270000000  0.4250950000000 1.0
C      1  0.4571230000000  0.5752880000000  0.4338740000000 1.0
C      1  0.4860100000000  0.4441190000000  0.5596740000000 1.0
C      1  0.4591250000000  0.5423440000000  0.5599250000000 1.0
C      1  0.5579750000000  0.5138090000000  0.5596150000000 1.0
C      1  0.4357600000000  0.4883260000000  0.5101880000000 1.0
C      1  0.5244730000000  0.5624150000000  0.5096290000000 1.0
C      1  0.5399650000000  0.4433590000000  0.5101010000000 1.0
C      1  0.5510280000000  0.5113660000000  0.5867710000000 1.0
C      1  0.4853940000000  0.4516120000000  0.5888910000000 1.0
C      1  0.4648080000000  0.5407830000000  0.5931700000000 1.0
C      1  0.5566880000000  0.5956380000000  0.4560720000000 1.0
C      1  0.5696440000000  0.4074610000000  0.4483680000000 1.0
C      1  0.3863780000000  0.4833720000000  0.4496830000000 1.0
C      1  0.5358060000000  0.5353240000000  0.5965700000000 1.0
C      1  0.5131690000000  0.4492100000000  0.5992040000000 1.0
C      1  0.4499640000000  0.5141360000000  0.5972240000000 1.0
C      1  0.5725700000000  0.5725930000000  0.4643960000000 1.0
C      1  0.5192010000000  0.4072180000000  0.4739460000000 1.0
C      1  0.4054590000000  0.5293680000000  0.4730920000000 1.0
C      1  0.5622910000000  0.4883190000000  0.4678950000000 1.0
C      1  0.4721400000000  0.4471850000000  0.4635490000000 1.0
C      1  0.4743670000000  0.5591040000000  0.4614760000000 1.0
C      1  0.4938050000000  0.4807110000000  0.4508310000000 1.0
C      1  0.4880260000000  0.5326170000000  0.4575000000000 1.0
C      1  0.5243730000000  0.4814920000000  0.4573750000000 1.0
C      1  0.5993920000000  0.5563090000000  0.5143750000000 1.0
C      1  0.4984310000000  0.3828220000000  0.5117510000000 1.0
C      1  0.4010210000000  0.5572110000000  0.5127650000000 1.0
C      1  0.4887070000000  0.5211670000000  0.5998530000000 1.0
C      1  0.5146520000000  0.4892720000000  0.6004810000000 1.0
C      1  0.4896060000000  0.4962710000000  0.6130210000000 1.0
C      1  0.4623110000000  0.4893870000000  0.6056630000000 1.0
C      1  0.5080740000000  0.5411550000000  0.6026290000000 1.0
C      1  0.5338780000000  0.4688020000000  0.6072490000000 1.0
C      1  0.5736330000000  0.4918010000000  0.5260940000000 1.0
C      1  0.4576530000000  0.4360720000000  0.5277530000000 1.0
C      1  0.4569120000000  0.5613170000000  0.5209280000000 1.0
C      1  0.4271240000000  0.5716020000000  0.4699750000000 1.0
C      1  0.5981840000000  0.5292280000000  0.4663890000000 1.0
C      1  0.4696540000000  0.4009030000000  0.4689870000000 1.0
C      1  0.4616440000000  0.4498150000000  0.4199750000000 1.0
C      1  0.4692300000000  0.5532930000000  0.4177670000000 1.0
C      1  0.5614010000000  0.4941310000000  0.4228990000000 1.0
C      1  0.3889810000000  0.5083020000000  0.5099150000000 1.0
C      1  0.5631240000000  0.5913790000000  0.5102780000000 1.0
C      1  0.5484350000000  0.3979690000000  0.5098730000000 1.0
C      1  0.5673830000000  0.4111570000000  0.5270950000000 1.0
C      1  0.3900760000000  0.4848510000000  0.5263450000000 1.0
C      1  0.5431170000000  0.6043760000000  0.5261140000000 1.0
C      1  0.5056740000000  0.4250830000000  0.5629580000000 1.0
C      1  0.4329610000000  0.5330790000000  0.5600570000000 1.0
C      1  0.5675960000000  0.5545030000000  0.5652100000000 1.0
C      1  0.5818990000000  0.4394400000000  0.4877530000000 1.0
C      1  0.3989280000000  0.4607720000000  0.4942640000000 1.0
C      1  0.5117340000000  0.6023510000000  0.4875860000000 1.0
C      1  0.5334520000000  0.4921440000000  0.5032810000000 1.0
C      1  0.4776900000000  0.4710780000000  0.4970720000000 1.0
C      1  0.4902060000000  0.5314380000000  0.5024760000000 1.0
C      1  0.4185140000000  0.4862130000000  0.5683830000000 1.0
C      1  0.5282350000000  0.5787560000000  0.5698320000000 1.0
C      1  0.5531700000000  0.4367210000000  0.5684200000000 1.0
C      1  0.5915070000000  0.5524240000000  0.4850570000000 1.0
C      1  0.4953720000000  0.3924720000000  0.4827840000000 1.0
C      1  0.4070150000000  0.5560190000000  0.4843230000000 1.0
C      1  0.5456860000000  0.5747830000000  0.4937350000000 1.0
C      1  0.5404800000000  0.4160260000000  0.4897640000000 1.0
C      1  0.4067920000000  0.5066380000000  0.4893560000000 1.0
C      1  0.4841020000000  0.5434470000000  0.3960070000000 1.0
C      1  0.5445790000000  0.5019500000000  0.3997440000000 1.0
C      1  0.4795690000000  0.4665880000000  0.4027550000000 1.0
C      1  0.4678250000000  0.6008090000000  0.4812000000000 1.0
C      1  0.6071820000000  0.4700180000000  0.4791180000000 1.0
C      1  0.4129420000000  0.4381890000000  0.4802450000000 1.0
C      1  0.4409660000000  0.4454690000000  0.4881810000000 1.0
C      1  0.4909420000000  0.5813280000000  0.4857410000000 1.0
C      1  0.5680450000000  0.4652220000000  0.4833580000000 1.0
C      1  0.5347210000000  0.5262120000000  0.5395420000000 1.0
C      1  0.5031720000000  0.4625980000000  0.5369120000000 1.0
C      1  0.4714490000000  0.5194480000000  0.5445540000000 1.0
C      1  0.4934150000000  0.4555080000000  0.4509830000000 1.0
C      1  0.4579440000000  0.5162390000000  0.4542260000000 1.0
C      1  0.5357650000000  0.5292210000000  0.4603950000000 1.0
C      1  0.4146820000000  0.4111450000000  0.5013210000000 1.0
C      1  0.4525110000000  0.6050520000000  0.5063140000000 1.0
C      1  0.6109890000000  0.4854250000000  0.5033420000000 1.0
C      1  0.5621660000000  0.5588210000000  0.4426900000000 1.0
C      1  0.5244000000000  0.4243040000000  0.4522970000000 1.0
C      1  0.4115490000000  0.5238440000000  0.4461270000000 1.0
C      1  0.4713940000000  0.5156930000000  0.3947480000000 1.0
C      1  0.5298400000000  0.5269500000000  0.3956490000000 1.0
C      1  0.5059600000000  0.4610620000000  0.3913960000000 1.0
C      1  0.4776380000000  0.4886810000000  0.4738240000000 1.0
C      1  0.4946650000000  0.5137910000000  0.4794130000000 1.0
C      1  0.5194090000000  0.4971240000000  0.4805450000000 1.0
C      1  0.5124350000000  0.5368330000000  0.5548530000000 1.0
C      1  0.5271260000000  0.4771970000000  0.5498190000000 1.0
C      1  0.4650910000000  0.4880560000000  0.5480010000000 1.0
C      1  0.4125120000000  0.5496690000000  0.5527660000000 1.0
C      1  0.5930320000000  0.5386150000000  0.5613750000000 1.0
C      1  0.5019050000000  0.3988710000000  0.5555790000000 1.0
C      1  0.6122740000000  0.4700950000000  0.5274590000000 1.0
C      1  0.4157900000000  0.4173010000000  0.5272000000000 1.0
C      1  0.4695160000000  0.6100950000000  0.5293950000000 1.0
C      1  0.4528730000000  0.4886220000000  0.4577770000000 1.0
C      1  0.5124980000000  0.5457110000000  0.4544060000000 1.0
C      1  0.5393280000000  0.4565400000000  0.4552590000000 1.0
C      1  0.4504090000000  0.4678820000000  0.4987990000000 1.0
C      1  0.4972320000000  0.5590110000000  0.5037440000000 1.0
C      1  0.5490780000000  0.4684410000000  0.5005210000000 1.0
C      1  0.5831780000000  0.5772410000000  0.5252140000000 1.0
C      1  0.5247160000000  0.3901200000000  0.5223790000000 1.0
C      1  0.3885380000000  0.5330430000000  0.5232420000000 1.0
C      1  0.4834490000000  0.4855250000000  0.4246690000000 1.0
C      1  0.4922130000000  0.5079650000000  0.4129600000000 1.0
C      1  0.5193800000000  0.5045690000000  0.4087880000000 1.0
C      1  0.5739790000000  0.5298560000000  0.4980120000000 1.0
C      1  0.4941940000000  0.4230300000000  0.5040560000000 1.0
C      1  0.4461270000000  0.5370880000000  0.5122510000000 1.0
C      1  0.5958320000000  0.5287550000000  0.4370840000000 1.0
C      1  0.4773990000000  0.4036600000000  0.4408650000000 1.0
C      1  0.4293280000000  0.5673770000000  0.4413460000000 1.0
C      1  0.5950820000000  0.4655880000000  0.4538940000000 1.0
C      1  0.4245120000000  0.4406890000000  0.4516840000000 1.0
C      1  0.4916240000000  0.5945940000000  0.4466490000000 1.0
C      1  0.5533260000000  0.4121620000000  0.5521840000000 1.0
C      1  0.3981670000000  0.4974240000000  0.5517770000000 1.0
C      1  0.5459310000000  0.5928500000000  0.5521280000000 1.0
C      1  0.4655560000000  0.6013400000000  0.4520420000000 1.0
C      1  0.6038740000000  0.4888990000000  0.4436030000000 1.0
C      1  0.4398290000000  0.4184940000000  0.4457960000000 1.0
C      1  0.5449690000000  0.5583960000000  0.5823620000000 1.0
C      1  0.5267330000000  0.4326500000000  0.5807200000000 1.0
C      1  0.4291230000000  0.5109590000000  0.5790020000000 1.0
C      1  0.4586200000000  0.4299290000000  0.5556600000000 1.0
C      1  0.4635200000000  0.5669030000000  0.5472480000000 1.0
C      1  0.5807160000000  0.4977150000000  0.5530900000000 1.0
C      1  0.4126030000000  0.4703530000000  0.5171610000000 1.0
C      1  0.5166690000000  0.6055010000000  0.5153710000000 1.0
C      1  0.5755990000000  0.4365870000000  0.5157240000000 1.0
C      1  0.4064280000000  0.4981040000000  0.4326650000000 1.0
C      1  0.5499030000000  0.5814590000000  0.4307990000000 1.0
C      1  0.5487230000000  0.4180470000000  0.4333660000000 1.0
C      1  0.4306850000000  0.4388420000000  0.5583230000000 1.0
C      1  0.4773000000000  0.5915450000000  0.5515100000000 1.0
C      1  0.5983110000000  0.4729030000000  0.5525880000000 1.0
C      1  0.5029170000000  0.4166820000000  0.4351060000000 1.0
C      1  0.4262380000000  0.5417360000000  0.4328130000000 1.0
C      1  0.5694100000000  0.5378970000000  0.4305870000000 1.0
C      1  0.3940860000000  0.5269950000000  0.5509090000000 1.0
C      1  0.5689470000000  0.5769950000000  0.5497670000000 1.0
C      1  0.5297530000000  0.3946870000000  0.5497410000000 1.0
C      1  0.5149740000000  0.4541790000000  0.5142220000000 1.0
C      1  0.4508290000000  0.5117230000000  0.5057130000000 1.0
C      1  0.5353120000000  0.5372790000000  0.5123140000000 1.0
C      1  0.4466470000000  0.5061420000000  0.4062880000000 1.0
C      1  0.5131160000000  0.5496240000000  0.4031650000000 1.0
C      1  0.5235200000000  0.4538590000000  0.4111300000000 1.0
C      1  0.6024070000000  0.5346480000000  0.5336000000000 1.0
C      1  0.4828570000000  0.3918750000000  0.5342820000000 1.0
C      1  0.4153070000000  0.5716760000000  0.5331040000000 1.0
C      1  0.5117550000000  0.4852170000000  0.5733110000000 1.0
C      1  0.4865830000000  0.4909850000000  0.5679390000000 1.0
C      1  0.4922380000000  0.5190290000000  0.5656100000000 1.0
C      1  0.5533130000000  0.4810150000000  0.5887860000000 1.0
C      1  0.4601540000000  0.4649140000000  0.5902240000000 1.0
C      1  0.4895530000000  0.5585490000000  0.5892780000000 1.0
C      1  0.5498820000000  0.5181110000000  0.4369700000000 1.0
C      1  0.4993380000000  0.4433510000000  0.4279050000000 1.0
C      1  0.4507550000000  0.5298580000000  0.4265430000000 1.0
C      1  0.4615730000000  0.4277810000000  0.4787580000000 1.0
C      1  0.4520590000000  0.5590330000000  0.4783280000000 1.0
C      1  0.5797000000000  0.5090570000000  0.4749050000000 1.0
C      1  0.5523650000000  0.4654600000000  0.5644500000000 1.0
C      1  0.4415420000000  0.4667500000000  0.5655990000000 1.0
C      1  0.5037720000000  0.5632170000000  0.5635280000000 1.0
C      1  0.5633970000000  0.4619460000000  0.4382140000000 1.0
C      1  0.4413320000000  0.4651560000000  0.4384260000000 1.0
C      1  0.5108330000000  0.5736060000000  0.4439620000000 1.0
C      1  0.4299300000000  0.4859880000000  0.4191460000000 1.0
C      1  0.5244010000000  0.5723110000000  0.4179640000000 1.0
C      1  0.5510090000000  0.4434210000000  0.4179800000000 1.0
C      1  0.5659820000000  0.4200970000000  0.4728230000000 1.0
C      1  0.4006880000000  0.4823280000000  0.4760160000000 1.0
C      1  0.5354780000000  0.5938100000000  0.4748820000000 1.0
END
