TITL C-2441161-5029-762 0.0567054241881386 125000 -9471.51136911549 0 0 77 (C1) n - 1
REM
REM in /home/bkarasulu/work/CARBON/AIRSS/Generating-Clusters/ReaxFF-fromJPCA2015/Units_Real/with-SteepDescent/Higher-Symm
REM
REM
REM
REM
REM
REM ./C.cell (1df0a924f5614ab8850e4351716899ee)
REM
REM compiler GCC version 9.2.1 20190827 (Red Hat 9.2.1-1)
REM options -cpp -mtune=generic -march=x86-64 -g -O0 -fpre-include=/usr/include/finclude/math-vector-fortran.h
REM seed -525341039 778385663 -988724869 -1697301351 280893341 -1737765166 491938134 15876349 -1485655209 -869592277 -885542913 1560597460 -20495732 -621301694 -933631445 -368550306 769052634 -2116603505 1495926534 -349392159 1788808855 689714879 -893639835 -1329316723 1312629621 255875410 -1835571641 -32555358 338674680 -841437672 -1575192847 1814453819 386877861
REM
CELL 1.54180   50.00000   50.00000   50.00000   90.00000   90.00000   90.00000
LATT -1
SFAC C  
C      1  0.5041720000000  0.5043700000000  0.4295570000000 1.0
C      1  0.5030400000000  0.4482150000000  0.4536730000000 1.0
C      1  0.5032640000000  0.4312960000000  0.5130450000000 1.0
C      1  0.5035920000000  0.4658970000000  0.5608340000000 1.0
C      1  0.5025520000000  0.5258530000000  0.5650320000000 1.0
C      1  0.5034480000000  0.5670500000000  0.5196170000000 1.0
C      1  0.5018610000000  0.5572710000000  0.4602690000000 1.0
C      1  0.5683850000000  0.4985090000000  0.4666470000000 1.0
C      1  0.5683150000000  0.4730400000000  0.4807710000000 1.0
C      1  0.5683780000000  0.4683540000000  0.5086950000000 1.0
C      1  0.5684260000000  0.4870640000000  0.5300050000000 1.0
C      1  0.5678800000000  0.5150620000000  0.5291920000000 1.0
C      1  0.5681350000000  0.5318590000000  0.5063040000000 1.0
C      1  0.5676440000000  0.5250790000000  0.4786490000000 1.0
C      1  0.5101150000000  0.4319630000000  0.4839500000000 1.0
C      1  0.5122150000000  0.4444900000000  0.5424070000000 1.0
C      1  0.5109200000000  0.4980340000000  0.5699730000000 1.0
C      1  0.5109170000000  0.5536640000000  0.5450930000000 1.0
C      1  0.5108430000000  0.5689980000000  0.4860650000000 1.0
C      1  0.5119910000000  0.5321800000000  0.4385010000000 1.0
C      1  0.5091390000000  0.4718590000000  0.4353760000000 1.0
C      1  0.5190610000000  0.4975400000000  0.4677960000000 1.0
C      1  0.5186590000000  0.4734130000000  0.4823010000000 1.0
C      1  0.5184630000000  0.4696090000000  0.5096470000000 1.0
C      1  0.5227000000000  0.4886930000000  0.5289580000000 1.0
C      1  0.5179850000000  0.5157800000000  0.5278400000000 1.0
C      1  0.5186510000000  0.5313840000000  0.5048430000000 1.0
C      1  0.5186180000000  0.5237990000000  0.4782060000000 1.0
C      1  0.4760530000000  0.4299610000000  0.5169290000000 1.0
C      1  0.4760320000000  0.4657430000000  0.5635910000000 1.0
C      1  0.4781630000000  0.5376550000000  0.5622180000000 1.0
C      1  0.4768420000000  0.5708660000000  0.5153970000000 1.0
C      1  0.4755880000000  0.5542650000000  0.4516290000000 1.0
C      1  0.4777010000000  0.4982080000000  0.4277340000000 1.0
C      1  0.4768940000000  0.4431690000000  0.4557190000000 1.0
C      1  0.4788410000000  0.4980810000000  0.4684830000000 1.0
C      1  0.4786210000000  0.4740120000000  0.4821620000000 1.0
C      1  0.4783170000000  0.4702710000000  0.5098200000000 1.0
C      1  0.4752180000000  0.4881530000000  0.5306400000000 1.0
C      1  0.4782090000000  0.5153900000000  0.5283020000000 1.0
C      1  0.4784700000000  0.5312920000000  0.5054310000000 1.0
C      1  0.4785150000000  0.5239850000000  0.4786310000000 1.0
C      1  0.5391850000000  0.4498370000000  0.5448810000000 1.0
C      1  0.5381970000000  0.5039890000000  0.5671110000000 1.0
C      1  0.5382330000000  0.5545420000000  0.5392780000000 1.0
C      1  0.5381390000000  0.5642820000000  0.4816770000000 1.0
C      1  0.5390760000000  0.5318340000000  0.4327030000000 1.0
C      1  0.5371710000000  0.4674820000000  0.4407070000000 1.0
C      1  0.5376090000000  0.4335400000000  0.4890870000000 1.0
C      1  0.4433630000000  0.4440670000000  0.4877130000000 1.0
C      1  0.4413030000000  0.4553950000000  0.5354790000000 1.0
C      1  0.4442310000000  0.5012980000000  0.5587390000000 1.0
C      1  0.4419390000000  0.5445660000000  0.5350270000000 1.0
C      1  0.4440580000000  0.5564720000000  0.4866540000000 1.0
C      1  0.4419440000000  0.5237660000000  0.4486510000000 1.0
C      1  0.4426630000000  0.4748750000000  0.4485970000000 1.0
C      1  0.4692710000000  0.4323760000000  0.4825080000000 1.0
C      1  0.4664770000000  0.4429860000000  0.5417520000000 1.0
C      1  0.4702480000000  0.4935780000000  0.5693760000000 1.0
C      1  0.4667580000000  0.5567470000000  0.5439570000000 1.0
C      1  0.4704160000000  0.5688760000000  0.4861110000000 1.0
C      1  0.4673060000000  0.5308000000000  0.4367730000000 1.0
C      1  0.4684360000000  0.4703950000000  0.4362040000000 1.0
C      1  0.4498860000000  0.4575570000000  0.5103470000000 1.0
C      1  0.4479940000000  0.4814010000000  0.5404550000000 1.0
C      1  0.4507100000000  0.5197400000000  0.5399410000000 1.0
C      1  0.4497860000000  0.5432980000000  0.5095460000000 1.0
C      1  0.4495990000000  0.5338010000000  0.4722250000000 1.0
C      1  0.4506390000000  0.4993760000000  0.4555440000000 1.0
C      1  0.4499710000000  0.4652420000000  0.4727920000000 1.0
C      1  0.5449330000000  0.4493210000000  0.5150510000000 1.0
C      1  0.5458660000000  0.4804820000000  0.5483960000000 1.0
C      1  0.5449260000000  0.5251490000000  0.5461740000000 1.0
C      1  0.5446160000000  0.5516370000000  0.5092110000000 1.0
C      1  0.5440050000000  0.5390990000000  0.4658470000000 1.0
C      1  0.5440700000000  0.4936770000000  0.4506750000000 1.0
C      1  0.5441440000000  0.4571390000000  0.4708770000000 1.0
END
