TITL C-2441156-4686-887 -3.01431331656377e-10 125000 -385.378546557145 0 0 5 (Td) n - 1
REM
REM in /home/bkarasulu/work/CARBON/AIRSS/Generating-Clusters/ReaxFF-fromJPCA2015/Units_Real/with-SteepDescent/Higher-Symm
REM
REM
REM
REM
REM
REM ./C.cell (1df0a924f5614ab8850e4351716899ee)
REM
REM compiler GCC version 9.2.1 20190827 (Red Hat 9.2.1-1)
REM options -cpp -mtune=generic -march=x86-64 -g -O0 -fpre-include=/usr/include/finclude/math-vector-fortran.h
REM seed -2043109270 -443333811 -2119901306 -410924543 -1898917536 102597358 711809366 -217844730 326230078 1075854191 1324694530 -942450129 -483591455 437162780 389239099 995668172 -245586800 -197148741 -1241860807 -318477264 -343306331 1806797039 1315136725 344779335 1761221747 -1377430664 904307217 1850250194 -81284203 1829112477 -1798676291 218698060 1100112122
REM
CELL 1.54180   50.00000   50.00000   50.00000   90.00000   90.00000   90.00000
LATT -1
SFAC C  
C      1  0.4824840000000  0.5197400000000  0.5172850000000 1.0
C      1  0.5190700000000  0.4831540000000  0.5172850000000 1.0
C      1  0.5190700000000  0.5197400000000  0.4806990000000 1.0
C      1  0.4824840000000  0.4831540000000  0.4806990000000 1.0
C      1  0.5007770000000  0.5014470000000  0.4989920000000 1.0
END
