TITL C-2441159-1093-597 0.117869358730554 125000 -24187.0590705058 0 0 188 (C1) n - 1
REM
REM in /home/bkarasulu/work/CARBON/AIRSS/Generating-Clusters/ReaxFF-fromJPCA2015/Units_Real/with-SteepDescent/Higher-Symm
REM
REM
REM
REM
REM
REM ./C.cell (1df0a924f5614ab8850e4351716899ee)
REM
REM compiler GCC version 9.2.1 20190827 (Red Hat 9.2.1-1)
REM options -cpp -mtune=generic -march=x86-64 -g -O0 -fpre-include=/usr/include/finclude/math-vector-fortran.h
REM seed 2026078950 -702618844 -491741403 -1527447863 627546118 -1500556158 512647701 987123356 1363834602 -1530602288 1510430801 -760709118 -1295891722 605359577 465048973 -1746810649 -1882062852 1445313734 -1805683365 2071703381 1740336317 -147323352 442217091 -116948109 -1979960072 -1132758298 -1341822930 1781620774 -1805116819 1734750761 1898795254 -513302671 -1592265868
REM
CELL 1.54180   50.00000   50.00000   50.00000   90.00000   90.00000   90.00000
LATT -1
SFAC C  
C      1  0.5353640000000  0.5204440000000  0.4864440000000 1.0
C      1  0.4904670000000  0.5364580000000  0.4806250000000 1.0
C      1  0.4606860000000  0.5035320000000  0.4795130000000 1.0
C      1  0.4866910000000  0.4643490000000  0.4801950000000 1.0
C      1  0.5272930000000  0.4714780000000  0.4840700000000 1.0
C      1  0.4694080000000  0.5087170000000  0.5270920000000 1.0
C      1  0.5042690000000  0.5254980000000  0.5155130000000 1.0
C      1  0.5421620000000  0.5018170000000  0.5108800000000 1.0
C      1  0.5173190000000  0.4737540000000  0.5078620000000 1.0
C      1  0.4776870000000  0.4841320000000  0.5171660000000 1.0
C      1  0.5410800000000  0.4372920000000  0.5152620000000 1.0
C      1  0.5755540000000  0.5230010000000  0.5132770000000 1.0
C      1  0.5041800000000  0.5748100000000  0.5132520000000 1.0
C      1  0.4298210000000  0.5274370000000  0.5129270000000 1.0
C      1  0.4513800000000  0.4441110000000  0.5146790000000 1.0
C      1  0.4593980000000  0.4365590000000  0.4865980000000 1.0
C      1  0.4266810000000  0.5243490000000  0.4841340000000 1.0
C      1  0.4950880000000  0.5761900000000  0.4848900000000 1.0
C      1  0.5769680000000  0.5248160000000  0.4853890000000 1.0
C      1  0.5499440000000  0.4411120000000  0.4840910000000 1.0
C      1  0.4003990000000  0.5303930000000  0.4735410000000 1.0
C      1  0.4410820000000  0.4154560000000  0.4744750000000 1.0
C      1  0.5662950000000  0.4180730000000  0.4729460000000 1.0
C      1  0.6036550000000  0.5315900000000  0.4753890000000 1.0
C      1  0.4969170000000  0.6040240000000  0.4732380000000 1.0
C      1  0.6010740000000  0.5219470000000  0.5282910000000 1.0
C      1  0.5611210000000  0.4134710000000  0.5262670000000 1.0
C      1  0.4354950000000  0.4194310000000  0.5269450000000 1.0
C      1  0.4014330000000  0.5345890000000  0.5261570000000 1.0
C      1  0.5016560000000  0.6048510000000  0.5257340000000 1.0
C      1  0.4974960000000  0.4276370000000  0.5659800000000 1.0
C      1  0.5671380000000  0.4766640000000  0.5711480000000 1.0
C      1  0.5400780000000  0.5556870000000  0.5701450000000 1.0
C      1  0.4589700000000  0.5595300000000  0.5685190000000 1.0
C      1  0.4292270000000  0.4781540000000  0.5713520000000 1.0
C      1  0.5022400000000  0.4279880000000  0.4292650000000 1.0
C      1  0.4258050000000  0.4712350000000  0.4260670000000 1.0
C      1  0.4522630000000  0.5605710000000  0.4267130000000 1.0
C      1  0.5405950000000  0.5585670000000  0.4276790000000 1.0
C      1  0.5702690000000  0.4788210000000  0.4308390000000 1.0
C      1  0.4493970000000  0.4757590000000  0.4435900000000 1.0
C      1  0.4929290000000  0.4539280000000  0.4406970000000 1.0
C      1  0.5522440000000  0.4879650000000  0.4544440000000 1.0
C      1  0.5266420000000  0.5489680000000  0.4524130000000 1.0
C      1  0.4629610000000  0.5419210000000  0.4464920000000 1.0
C      1  0.5501990000000  0.4801980000000  0.5458440000000 1.0
C      1  0.4959990000000  0.4451890000000  0.5400330000000 1.0
C      1  0.4432520000000  0.4836760000000  0.5453160000000 1.0
C      1  0.4692740000000  0.5494850000000  0.5408480000000 1.0
C      1  0.5348550000000  0.5432890000000  0.5416670000000 1.0
C      1  0.5236060000000  0.4168850000000  0.5577130000000 1.0
C      1  0.5866520000000  0.4976320000000  0.5639210000000 1.0
C      1  0.5309790000000  0.5824670000000  0.5623170000000 1.0
C      1  0.4305520000000  0.5540140000000  0.5623400000000 1.0
C      1  0.4256600000000  0.4491050000000  0.5643540000000 1.0
C      1  0.4769610000000  0.4153940000000  0.4381980000000 1.0
C      1  0.4125000000000  0.4966020000000  0.4370120000000 1.0
C      1  0.4706760000000  0.5818110000000  0.4380150000000 1.0
C      1  0.5682960000000  0.5529760000000  0.4369660000000 1.0
C      1  0.5727190000000  0.4509530000000  0.4391470000000 1.0
C      1  0.4493100000000  0.5493180000000  0.5122280000000 1.0
C      1  0.4358320000000  0.4671590000000  0.5139640000000 1.0
C      1  0.5107060000000  0.4453880000000  0.5140450000000 1.0
C      1  0.5640190000000  0.4852740000000  0.5039630000000 1.0
C      1  0.5299340000000  0.5653990000000  0.5141840000000 1.0
C      1  0.5420500000000  0.5473870000000  0.4953290000000 1.0
C      1  0.5535330000000  0.4702200000000  0.4820940000000 1.0
C      1  0.4914940000000  0.4367580000000  0.4900950000000 1.0
C      1  0.4415710000000  0.4841860000000  0.4905440000000 1.0
C      1  0.4688510000000  0.5524990000000  0.4913590000000 1.0
C      1  0.5552120000000  0.4527340000000  0.5839530000000 1.0
C      1  0.5597370000000  0.5392090000000  0.5845770000000 1.0
C      1  0.4819500000000  0.5709330000000  0.5838070000000 1.0
C      1  0.4256460000000  0.5043330000000  0.5853920000000 1.0
C      1  0.4745580000000  0.4314120000000  0.5839720000000 1.0
C      1  0.4421020000000  0.4502160000000  0.4124440000000 1.0
C      1  0.4396620000000  0.5357010000000  0.4134500000000 1.0
C      1  0.5163210000000  0.5696090000000  0.4143070000000 1.0
C      1  0.5720620000000  0.5034850000000  0.4148750000000 1.0
C      1  0.5275380000000  0.4316360000000  0.4146900000000 1.0
C      1  0.4744490000000  0.4575450000000  0.6006400000000 1.0
C      1  0.5296290000000  0.4622510000000  0.5984290000000 1.0
C      1  0.5443600000000  0.5179010000000  0.5979240000000 1.0
C      1  0.4947490000000  0.5492910000000  0.6008770000000 1.0
C      1  0.4535270000000  0.5105510000000  0.5975480000000 1.0
C      1  0.5245390000000  0.4585150000000  0.3994830000000 1.0
C      1  0.4669810000000  0.4654250000000  0.3989460000000 1.0
C      1  0.4581910000000  0.5136950000000  0.4069940000000 1.0
C      1  0.5016980000000  0.5466690000000  0.4039950000000 1.0
C      1  0.5465900000000  0.5092160000000  0.4012880000000 1.0
C      1  0.4122790000000  0.4563700000000  0.4695650000000 1.0
C      1  0.5169560000000  0.4035830000000  0.4726840000000 1.0
C      1  0.5986270000000  0.4849710000000  0.4655090000000 1.0
C      1  0.5443240000000  0.5881020000000  0.4701050000000 1.0
C      1  0.4310760000000  0.5692790000000  0.4689650000000 1.0
C      1  0.5898570000000  0.4568110000000  0.5300630000000 1.0
C      1  0.4828880000000  0.4036330000000  0.5303220000000 1.0
C      1  0.4005180000000  0.4846850000000  0.5288540000000 1.0
C      1  0.4539060000000  0.5887830000000  0.5289710000000 1.0
C      1  0.5720100000000  0.5670660000000  0.5292910000000 1.0
C      1  0.5185220000000  0.5967200000000  0.4552410000000 1.0
C      1  0.4139760000000  0.5470670000000  0.4534930000000 1.0
C      1  0.4288470000000  0.4330680000000  0.4550190000000 1.0
C      1  0.5429510000000  0.4122240000000  0.4570740000000 1.0
C      1  0.5987250000000  0.5124930000000  0.4526860000000 1.0
C      1  0.4815730000000  0.5962110000000  0.5442390000000 1.0
C      1  0.5874000000000  0.5447010000000  0.5440590000000 1.0
C      1  0.5737600000000  0.4321270000000  0.5445440000000 1.0
C      1  0.4572930000000  0.4122960000000  0.5446860000000 1.0
C      1  0.4022220000000  0.5121480000000  0.5445350000000 1.0
C      1  0.5255330000000  0.4970170000000  0.5492390000000 1.0
C      1  0.5121880000000  0.5218890000000  0.5437690000000 1.0
C      1  0.4784120000000  0.5214680000000  0.5504010000000 1.0
C      1  0.4753050000000  0.4821640000000  0.5583600000000 1.0
C      1  0.5035270000000  0.4764770000000  0.5530270000000 1.0
C      1  0.4806990000000  0.4985760000000  0.4557900000000 1.0
C      1  0.4960570000000  0.5201000000000  0.4575080000000 1.0
C      1  0.5215800000000  0.5211130000000  0.4505870000000 1.0
C      1  0.5244380000000  0.4816600000000  0.4468970000000 1.0
C      1  0.4996290000000  0.4757530000000  0.4581840000000 1.0
C      1  0.4883070000000  0.4778360000000  0.6193680000000 1.0
C      1  0.5168690000000  0.4825580000000  0.6184510000000 1.0
C      1  0.5226690000000  0.5109240000000  0.6178230000000 1.0
C      1  0.4964460000000  0.5245270000000  0.6197730000000 1.0
C      1  0.4759650000000  0.5038200000000  0.6185580000000 1.0
C      1  0.5119310000000  0.4785400000000  0.3799010000000 1.0
C      1  0.4833700000000  0.4829730000000  0.3799170000000 1.0
C      1  0.4785270000000  0.5109320000000  0.3852410000000 1.0
C      1  0.5041360000000  0.5255780000000  0.3837690000000 1.0
C      1  0.5251580000000  0.5044580000000  0.3814620000000 1.0
C      1  0.4494500000000  0.5256470000000  0.4671890000000 1.0
C      1  0.4578410000000  0.4632240000000  0.4719640000000 1.0
C      1  0.5248200000000  0.4486100000000  0.4673290000000 1.0
C      1  0.5567920000000  0.5141740000000  0.4685490000000 1.0
C      1  0.5063110000000  0.5563830000000  0.4697900000000 1.0
C      1  0.5519200000000  0.5217890000000  0.5290640000000 1.0
C      1  0.5457890000000  0.4596230000000  0.5311570000000 1.0
C      1  0.4730510000000  0.4574850000000  0.5282390000000 1.0
C      1  0.4429510000000  0.5088260000000  0.5309480000000 1.0
C      1  0.4928300000000  0.5512870000000  0.5247690000000 1.0
C      1  0.5015560000000  0.5852820000000  0.4345940000000 1.0
C      1  0.4197680000000  0.5266820000000  0.4335480000000 1.0
C      1  0.4488260000000  0.4312610000000  0.4345380000000 1.0
C      1  0.5482610000000  0.4305820000000  0.4358430000000 1.0
C      1  0.5814610000000  0.5246180000000  0.4331140000000 1.0
C      1  0.4990150000000  0.5849210000000  0.5636760000000 1.0
C      1  0.5800500000000  0.5285290000000  0.5663110000000 1.0
C      1  0.5510670000000  0.4319930000000  0.5630250000000 1.0
C      1  0.4512230000000  0.4301060000000  0.5664480000000 1.0
C      1  0.4179540000000  0.5243470000000  0.5650670000000 1.0
C      1  0.5271990000000  0.5125960000000  0.4232030000000 1.0
C      1  0.4862160000000  0.5350300000000  0.4278820000000 1.0
C      1  0.4618970000000  0.4975330000000  0.4318820000000 1.0
C      1  0.4809760000000  0.4627500000000  0.4184770000000 1.0
C      1  0.5237720000000  0.4720550000000  0.4215150000000 1.0
C      1  0.4626390000000  0.5163420000000  0.5737970000000 1.0
C      1  0.4992650000000  0.5349170000000  0.5803300000000 1.0
C      1  0.5320820000000  0.5044730000000  0.5762660000000 1.0
C      1  0.5175410000000  0.4663660000000  0.5753220000000 1.0
C      1  0.4747330000000  0.4724850000000  0.5800280000000 1.0
C      1  0.5483530000000  0.5876910000000  0.5002050000000 1.0
C      1  0.4300080000000  0.5708840000000  0.4990260000000 1.0
C      1  0.4102650000000  0.4564240000000  0.4995380000000 1.0
C      1  0.5131140000000  0.3976390000000  0.5013540000000 1.0
C      1  0.5932780000000  0.4830950000000  0.4952660000000 1.0
C      1  0.4523810000000  0.5883170000000  0.5000770000000 1.0
C      1  0.5665200000000  0.5647610000000  0.4992640000000 1.0
C      1  0.5944320000000  0.4555920000000  0.5020200000000 1.0
C      1  0.4856190000000  0.4047020000000  0.5009540000000 1.0
C      1  0.4030190000000  0.4841670000000  0.5000050000000 1.0
C      1  0.4909520000000  0.4043580000000  0.4600960000000 1.0
C      1  0.5881020000000  0.4587280000000  0.4624370000000 1.0
C      1  0.5638330000000  0.5705210000000  0.4592530000000 1.0
C      1  0.4543660000000  0.5828680000000  0.4612550000000 1.0
C      1  0.4068540000000  0.4823700000000  0.4607090000000 1.0
C      1  0.5117350000000  0.4033860000000  0.5345300000000 1.0
C      1  0.4085150000000  0.4573590000000  0.5416000000000 1.0
C      1  0.4328150000000  0.5724790000000  0.5405340000000 1.0
C      1  0.5515630000000  0.5830540000000  0.5422170000000 1.0
C      1  0.5940700000000  0.4835690000000  0.5408820000000 1.0
C      1  0.4987270000000  0.6182810000000  0.4998270000000 1.0
C      1  0.3876210000000  0.5362600000000  0.5006960000000 1.0
C      1  0.4295410000000  0.4070070000000  0.5010270000000 1.0
C      1  0.6146320000000  0.5298440000000  0.5026010000000 1.0
C      1  0.5711110000000  0.4055870000000  0.5000380000000 1.0
C      1  0.4992840000000  0.5095150000000  0.4209180000000 1.0
C      1  0.5024350000000  0.5066110000000  0.5787860000000 1.0
C      1  0.4984870000000  0.4942520000000  0.5022010000000 1.0
END
