TITL C-2441154-10-1004 -0.00106200310057323 125000 -10927.3529327772 0 0 75 (C1) n - 1
REM
REM in /home/bkarasulu/work/CARBON/AIRSS/Generating-Clusters/ReaxFF-fromJPCA2015/Units_Real/with-SteepDescent/Higher-Symm
REM
REM
REM
REM
REM
REM ./C.cell (1df0a924f5614ab8850e4351716899ee)
REM
REM compiler GCC version 9.2.1 20190827 (Red Hat 9.2.1-1)
REM options -cpp -mtune=generic -march=x86-64 -g -O0 -fpre-include=/usr/include/finclude/math-vector-fortran.h
REM seed -407606831 -2094252259 -1095164545 1757506562 1462594445 -2087208286 -202647026 -1094784525 1912179488 1891407743 -221083698 1807853999 991740858 776276782 -1930340354 -1772979619 -468704487 1740426084 -817224450 -193720318 -542256814 1632990739 -507412781 364214004 -1282044474 -1913496459 1832072449 2090122454 -1594871957 204887579 1391748874 -444207444 962052394
REM
CELL 1.54180   50.00000   50.00000   50.00000   90.00000   90.00000   90.00000
LATT -1
SFAC C  
C      1  0.5348800000000  0.5235670000000  0.5647410000000 1.0
C      1  0.5347260000000  0.4751310000000  0.4306870000000 1.0
C      1  0.4688130000000  0.4806850000000  0.5599630000000 1.0
C      1  0.4648910000000  0.5239730000000  0.4315140000000 1.0
C      1  0.5334140000000  0.5676480000000  0.5244750000000 1.0
C      1  0.5331530000000  0.4337640000000  0.4748440000000 1.0
C      1  0.4640180000000  0.5676410000000  0.4764850000000 1.0
C      1  0.4687350000000  0.4375190000000  0.5233410000000 1.0
C      1  0.5326720000000  0.5771930000000  0.4976270000000 1.0
C      1  0.5313770000000  0.4221500000000  0.5029670000000 1.0
C      1  0.4727330000000  0.4248790000000  0.4974190000000 1.0
C      1  0.4693110000000  0.5795430000000  0.5030300000000 1.0
C      1  0.5329300000000  0.4962120000000  0.5766060000000 1.0
C      1  0.5334400000000  0.5019030000000  0.4216930000000 1.0
C      1  0.4685680000000  0.4968260000000  0.4207610000000 1.0
C      1  0.4706380000000  0.5053950000000  0.5768090000000 1.0
C      1  0.5096210000000  0.5518400000000  0.5314040000000 1.0
C      1  0.5092330000000  0.4421440000000  0.4613750000000 1.0
C      1  0.4935470000000  0.4417380000000  0.5381210000000 1.0
C      1  0.4905600000000  0.5543070000000  0.4720180000000 1.0
C      1  0.5104260000000  0.5372280000000  0.5588030000000 1.0
C      1  0.5103040000000  0.4676710000000  0.4453810000000 1.0
C      1  0.4912390000000  0.5279320000000  0.4446830000000 1.0
C      1  0.4937370000000  0.4615150000000  0.5589920000000 1.0
C      1  0.5475520000000  0.4658750000000  0.5095600000000 1.0
C      1  0.5460380000000  0.5326420000000  0.4920830000000 1.0
C      1  0.4575880000000  0.5346910000000  0.5099800000000 1.0
C      1  0.4586860000000  0.4689040000000  0.4873600000000 1.0
C      1  0.5468080000000  0.5083510000000  0.4663570000000 1.0
C      1  0.5423400000000  0.4851010000000  0.5307440000000 1.0
C      1  0.4593240000000  0.5186860000000  0.5348610000000 1.0
C      1  0.4578480000000  0.4910150000000  0.4650040000000 1.0
C      1  0.4615180000000  0.5265570000000  0.5619020000000 1.0
C      1  0.4605760000000  0.4784910000000  0.4394120000000 1.0
C      1  0.5434560000000  0.4766770000000  0.5582130000000 1.0
C      1  0.5421710000000  0.5199910000000  0.4399260000000 1.0
C      1  0.4602330000000  0.5614460000000  0.5208290000000 1.0
C      1  0.4631070000000  0.4417130000000  0.4776950000000 1.0
C      1  0.5411940000000  0.5587830000000  0.4797160000000 1.0
C      1  0.5430930000000  0.4390580000000  0.5202180000000 1.0
C      1  0.4414380000000  0.5492630000000  0.4720300000000 1.0
C      1  0.4435780000000  0.4536370000000  0.5265240000000 1.0
C      1  0.5553830000000  0.4500550000000  0.4673110000000 1.0
C      1  0.5585740000000  0.5539400000000  0.5322000000000 1.0
C      1  0.4399620000000  0.4709230000000  0.5492500000000 1.0
C      1  0.4421770000000  0.5299840000000  0.4500080000000 1.0
C      1  0.5596370000000  0.4681000000000  0.4462050000000 1.0
C      1  0.5595330000000  0.5314740000000  0.5504950000000 1.0
C      1  0.5168920000000  0.5237000000000  0.4293430000000 1.0
C      1  0.5176460000000  0.4709450000000  0.5722770000000 1.0
C      1  0.4850570000000  0.4747170000000  0.4294680000000 1.0
C      1  0.4867480000000  0.5295520000000  0.5734110000000 1.0
C      1  0.5188500000000  0.4289830000000  0.5279930000000 1.0
C      1  0.5161760000000  0.5699040000000  0.4757500000000 1.0
C      1  0.4861180000000  0.4302400000000  0.4716740000000 1.0
C      1  0.4852290000000  0.5694760000000  0.5250390000000 1.0
C      1  0.5241790000000  0.4883180000000  0.4681560000000 1.0
C      1  0.5210160000000  0.5026500000000  0.5224940000000 1.0
C      1  0.4820150000000  0.5115590000000  0.4685880000000 1.0
C      1  0.4698920000000  0.4938340000000  0.5326590000000 1.0
C      1  0.5243790000000  0.4738100000000  0.4923300000000 1.0
C      1  0.5238890000000  0.5291750000000  0.5121790000000 1.0
C      1  0.4762880000000  0.4807500000000  0.5084960000000 1.0
C      1  0.4819670000000  0.5309060000000  0.4890100000000 1.0
C      1  0.5700750000000  0.4873060000000  0.4660790000000 1.0
C      1  0.5794540000000  0.5171340000000  0.5303600000000 1.0
C      1  0.4325250000000  0.5089620000000  0.4686790000000 1.0
C      1  0.4236560000000  0.4893530000000  0.5353200000000 1.0
C      1  0.5748030000000  0.4763510000000  0.4928180000000 1.0
C      1  0.5709770000000  0.5375940000000  0.5109870000000 1.0
C      1  0.4323980000000  0.4683310000000  0.5025850000000 1.0
C      1  0.4314040000000  0.5267680000000  0.4919850000000 1.0
C      1  0.5783920000000  0.4963470000000  0.5118520000000 1.0
C      1  0.4245220000000  0.4958060000000  0.5079100000000 1.0
C      1  0.5031970000000  0.4834900000000  0.5086600000000 1.0
END
