TITL C-2441169-1362-1345 0.0213019444801753 125000 -7877.28920147624 0 0 60 (C1) n - 1
REM
REM in /home/bkarasulu/work/CARBON/AIRSS/Generating-Clusters/ReaxFF-fromJPCA2015/Units_Real/with-SteepDescent/Higher-Symm
REM
REM
REM
REM
REM
REM ./C.cell (1df0a924f5614ab8850e4351716899ee)
REM
REM compiler GCC version 9.2.1 20190827 (Red Hat 9.2.1-1)
REM options -cpp -mtune=generic -march=x86-64 -g -O0 -fpre-include=/usr/include/finclude/math-vector-fortran.h
REM seed -1428914613 813356698 -952750302 1042374658 -1586246120 1682349237 -324204296 -318263843 1238729 1561468403 -734941816 -846393994 -1848715448 517873188 669042158 -1370674619 1938258091 -1816734329 1111209448 -145580152 1257710214 -611738595 1196184728 -160403055 1406982710 -527062998 -866176346 -1149319799 235102020 810991716 564448778 -992702696 -2014467390
REM
CELL 1.54180   50.00000   50.00000   50.00000   90.00000   90.00000   90.00000
LATT -1
SFAC C  
C      1  0.4975670000000  0.5235880000000  0.4845480000000 1.0
C      1  0.4954170000000  0.4919520000000  0.5558670000000 1.0
C      1  0.5684900000000  0.5231340000000  0.4940790000000 1.0
C      1  0.4861220000000  0.4884380000000  0.5112150000000 1.0
C      1  0.4348310000000  0.4755690000000  0.4926280000000 1.0
C      1  0.4838320000000  0.4667090000000  0.4838230000000 1.0
C      1  0.5326560000000  0.4693740000000  0.4773090000000 1.0
C      1  0.5392770000000  0.4871700000000  0.4982130000000 1.0
C      1  0.5371780000000  0.5602170000000  0.5114940000000 1.0
C      1  0.5490660000000  0.5355050000000  0.4761830000000 1.0
C      1  0.5212800000000  0.4820990000000  0.4354140000000 1.0
C      1  0.5550140000000  0.5183790000000  0.5217100000000 1.0
C      1  0.4712390000000  0.5270650000000  0.4786160000000 1.0
C      1  0.5380370000000  0.5614610000000  0.4840490000000 1.0
C      1  0.5739960000000  0.5023320000000  0.4739890000000 1.0
C      1  0.4551250000000  0.4971820000000  0.5529890000000 1.0
C      1  0.5009150000000  0.5144830000000  0.5116320000000 1.0
C      1  0.5248960000000  0.5063630000000  0.4474030000000 1.0
C      1  0.5288160000000  0.5081690000000  0.5125260000000 1.0
C      1  0.5587970000000  0.4558960000000  0.4815200000000 1.0
C      1  0.5438720000000  0.4869490000000  0.5462940000000 1.0
C      1  0.5261580000000  0.5589460000000  0.5363670000000 1.0
C      1  0.4556680000000  0.4936800000000  0.5240520000000 1.0
C      1  0.5094890000000  0.4534140000000  0.4697860000000 1.0
C      1  0.5419070000000  0.4584730000000  0.5479150000000 1.0
C      1  0.4353900000000  0.5174960000000  0.4649160000000 1.0
C      1  0.4804880000000  0.4250750000000  0.4818390000000 1.0
C      1  0.4470000000000  0.5403480000000  0.4896260000000 1.0
C      1  0.4490380000000  0.4538650000000  0.5077660000000 1.0
C      1  0.4921430000000  0.5565660000000  0.4528590000000 1.0
C      1  0.5419960000000  0.5339070000000  0.5435000000000 1.0
C      1  0.5058590000000  0.4797180000000  0.5318610000000 1.0
C      1  0.4508910000000  0.5200620000000  0.5340650000000 1.0
C      1  0.5100990000000  0.4574490000000  0.4356510000000 1.0
C      1  0.5006560000000  0.5027940000000  0.4637980000000 1.0
C      1  0.4482390000000  0.5257050000000  0.4420310000000 1.0
C      1  0.5524200000000  0.5143100000000  0.4567210000000 1.0
C      1  0.4328130000000  0.5254940000000  0.5111520000000 1.0
C      1  0.4853290000000  0.5512890000000  0.5159970000000 1.0
C      1  0.4471340000000  0.4909680000000  0.4694980000000 1.0
C      1  0.4296590000000  0.4971630000000  0.5109390000000 1.0
C      1  0.4602600000000  0.4441160000000  0.4825310000000 1.0
C      1  0.4724350000000  0.4743680000000  0.5536930000000 1.0
C      1  0.4680290000000  0.4533320000000  0.5306240000000 1.0
C      1  0.4653850000000  0.5363240000000  0.5479180000000 1.0
C      1  0.5459810000000  0.4354790000000  0.4994430000000 1.0
C      1  0.5120540000000  0.4525890000000  0.5428570000000 1.0
C      1  0.4992660000000  0.4207210000000  0.5022090000000 1.0
C      1  0.4670580000000  0.5641370000000  0.4963350000000 1.0
C      1  0.4694830000000  0.5624860000000  0.5366480000000 1.0
C      1  0.4758560000000  0.4864320000000  0.4636310000000 1.0
C      1  0.4742340000000  0.5333770000000  0.4505430000000 1.0
C      1  0.5089240000000  0.5534270000000  0.4759590000000 1.0
C      1  0.5206610000000  0.4289480000000  0.4843300000000 1.0
C      1  0.5683710000000  0.4812470000000  0.4932380000000 1.0
C      1  0.4924020000000  0.4383870000000  0.5267920000000 1.0
C      1  0.4967520000000  0.5618420000000  0.5409330000000 1.0
C      1  0.5293910000000  0.5091860000000  0.5529580000000 1.0
C      1  0.4853640000000  0.5723530000000  0.4757460000000 1.0
C      1  0.5492990000000  0.4524960000000  0.5217750000000 1.0
END
