TITL C-2441156-4686-1249 0.0146737643281965 125000 -11254.0547364557 0 0 78 (C1) n - 1
REM
REM in /home/bkarasulu/work/CARBON/AIRSS/Generating-Clusters/ReaxFF-fromJPCA2015/Units_Real/with-SteepDescent/Higher-Symm
REM
REM
REM
REM
REM
REM ./C.cell (1df0a924f5614ab8850e4351716899ee)
REM
REM compiler GCC version 9.2.1 20190827 (Red Hat 9.2.1-1)
REM options -cpp -mtune=generic -march=x86-64 -g -O0 -fpre-include=/usr/include/finclude/math-vector-fortran.h
REM seed 590344992 2036342840 818936404 1739006180 1556307314 929609626 270156559 -1482469304 2001571698 1184223269 -933405472 1541351286 1808613724 1235010083 1857546794 906305300 -303607779 530794342 -42996937 -17494112 -1795084661 439979456 -1406679215 716932720 -527448193 591820088 -699188426 543324597 1764322482 1890063670 1826313174 2030979208 -988766279
REM
CELL 1.54180   50.00000   50.00000   50.00000   90.00000   90.00000   90.00000
LATT -1
SFAC C  
C      1  0.4945170000000  0.4435400000000  0.4492840000000 1.0
C      1  0.4676990000000  0.4598740000000  0.4950140000000 1.0
C      1  0.4693510000000  0.4357730000000  0.5510600000000 1.0
C      1  0.5406890000000  0.4572280000000  0.5370780000000 1.0
C      1  0.5421580000000  0.4542330000000  0.4789930000000 1.0
C      1  0.4957830000000  0.5405530000000  0.4584790000000 1.0
C      1  0.4481730000000  0.5672170000000  0.4882940000000 1.0
C      1  0.4685700000000  0.5661100000000  0.5488980000000 1.0
C      1  0.5293310000000  0.5599120000000  0.5349400000000 1.0
C      1  0.5548010000000  0.5580880000000  0.4872560000000 1.0
C      1  0.4342030000000  0.5255910000000  0.5502380000000 1.0
C      1  0.5249600000000  0.5262030000000  0.5673310000000 1.0
C      1  0.5764250000000  0.5159960000000  0.4979880000000 1.0
C      1  0.5263940000000  0.5269700000000  0.4244780000000 1.0
C      1  0.4369990000000  0.5229630000000  0.4635050000000 1.0
C      1  0.4397070000000  0.4758060000000  0.5488910000000 1.0
C      1  0.5295610000000  0.4807190000000  0.5704200000000 1.0
C      1  0.5862580000000  0.4682570000000  0.5023990000000 1.0
C      1  0.5180770000000  0.4774750000000  0.4256730000000 1.0
C      1  0.4332150000000  0.4741660000000  0.4543230000000 1.0
C      1  0.5146530000000  0.5512550000000  0.5578280000000 1.0
C      1  0.5630380000000  0.5399190000000  0.5074990000000 1.0
C      1  0.5219280000000  0.5469670000000  0.4460930000000 1.0
C      1  0.4479280000000  0.5500250000000  0.4627730000000 1.0
C      1  0.4431180000000  0.5528120000000  0.5400650000000 1.0
C      1  0.5213670000000  0.4551250000000  0.5581570000000 1.0
C      1  0.5658380000000  0.4477990000000  0.4982670000000 1.0
C      1  0.5190040000000  0.4507030000000  0.4376200000000 1.0
C      1  0.4493820000000  0.4542900000000  0.4691440000000 1.0
C      1  0.4458120000000  0.4485110000000  0.5375880000000 1.0
C      1  0.5273960000000  0.4206090000000  0.5050570000000 1.0
C      1  0.5293720000000  0.4263130000000  0.4772950000000 1.0
C      1  0.4848440000000  0.4247650000000  0.4671480000000 1.0
C      1  0.4809400000000  0.4303510000000  0.4951290000000 1.0
C      1  0.4905120000000  0.4207200000000  0.5415250000000 1.0
C      1  0.5181350000000  0.5750390000000  0.5122360000000 1.0
C      1  0.5336670000000  0.5754240000000  0.4878740000000 1.0
C      1  0.4789030000000  0.5790070000000  0.4625040000000 1.0
C      1  0.4737650000000  0.5856180000000  0.4889850000000 1.0
C      1  0.4835900000000  0.5795010000000  0.5339650000000 1.0
C      1  0.4960680000000  0.4404640000000  0.5605540000000 1.0
C      1  0.5485330000000  0.4364290000000  0.5185480000000 1.0
C      1  0.5381580000000  0.4404000000000  0.4552080000000 1.0
C      1  0.4669110000000  0.4398640000000  0.4511820000000 1.0
C      1  0.4469010000000  0.4470010000000  0.5093780000000 1.0
C      1  0.4864260000000  0.5493970000000  0.5602050000000 1.0
C      1  0.5520300000000  0.5425810000000  0.5337610000000 1.0
C      1  0.5397780000000  0.5617840000000  0.4629870000000 1.0
C      1  0.4718570000000  0.5562500000000  0.4473490000000 1.0
C      1  0.4428010000000  0.5581270000000  0.5133020000000 1.0
C      1  0.5516920000000  0.4938790000000  0.5555020000000 1.0
C      1  0.5823740000000  0.4802590000000  0.4769440000000 1.0
C      1  0.4911600000000  0.4898290000000  0.4226850000000 1.0
C      1  0.4229980000000  0.4858080000000  0.4776190000000 1.0
C      1  0.4619820000000  0.4866090000000  0.5630700000000 1.0
C      1  0.5513290000000  0.5229640000000  0.5559780000000 1.0
C      1  0.5712590000000  0.5053150000000  0.4703410000000 1.0
C      1  0.5023440000000  0.5147000000000  0.4158610000000 1.0
C      1  0.4317750000000  0.5096880000000  0.4898010000000 1.0
C      1  0.4540830000000  0.5143590000000  0.5680750000000 1.0
C      1  0.5424000000000  0.5002740000000  0.4612310000000 1.0
C      1  0.4898690000000  0.5136020000000  0.4676780000000 1.0
C      1  0.4521810000000  0.5029500000000  0.5117340000000 1.0
C      1  0.4775990000000  0.5230060000000  0.5527610000000 1.0
C      1  0.5245040000000  0.5047030000000  0.5122670000000 1.0
C      1  0.5260160000000  0.4836350000000  0.4782770000000 1.0
C      1  0.4753030000000  0.4985740000000  0.4473990000000 1.0
C      1  0.4771920000000  0.4886150000000  0.5126420000000 1.0
C      1  0.4861980000000  0.4951800000000  0.5465210000000 1.0
C      1  0.5474920000000  0.4874430000000  0.5260560000000 1.0
C      1  0.5762530000000  0.4928690000000  0.5155400000000 1.0
C      1  0.4329090000000  0.5009600000000  0.5348010000000 1.0
C      1  0.5094240000000  0.5011750000000  0.5661270000000 1.0
C      1  0.4457990000000  0.5004240000000  0.4463340000000 1.0
C      1  0.5366550000000  0.4995330000000  0.4321340000000 1.0
C      1  0.4920600000000  0.5861680000000  0.5119430000000 1.0
C      1  0.4997600000000  0.4199720000000  0.5142750000000 1.0
C      1  0.5022020000000  0.4981470000000  0.4937300000000 1.0
END
