TITL C-2441163-1170-1138 0.0295779337567222 125000 -13295.4868686373 0 0 93 (C1) n - 1
REM
REM in /home/bkarasulu/work/CARBON/AIRSS/Generating-Clusters/ReaxFF-fromJPCA2015/Units_Real/with-SteepDescent/Higher-Symm
REM
REM
REM
REM
REM
REM ./C.cell (1df0a924f5614ab8850e4351716899ee)
REM
REM compiler GCC version 9.2.1 20190827 (Red Hat 9.2.1-1)
REM options -cpp -mtune=generic -march=x86-64 -g -O0 -fpre-include=/usr/include/finclude/math-vector-fortran.h
REM seed 15727526 457666486 536959975 1037090096 1761142668 1385427866 1853402318 -977154965 246771975 1351181565 398151873 -1221370887 1049589432 -967234135 1957204438 265024078 1224401138 -567090055 42439451 -384510409 123142162 -225313994 600904879 -1621669447 -932629633 -1939523215 1170255484 -1018232251 -1069534331 1541939194 -243707560 -1870745124 -2092035141
REM
CELL 1.54180   50.00000   50.00000   50.00000   90.00000   90.00000   90.00000
LATT -1
SFAC C  
C      1  0.4659840000000  0.5229380000000  0.4339310000000 1.0
C      1  0.4604710000000  0.5224520000000  0.5620600000000 1.0
C      1  0.5743780000000  0.5229360000000  0.5035080000000 1.0
C      1  0.4778850000000  0.4436880000000  0.4781090000000 1.0
C      1  0.4860390000000  0.4482660000000  0.5299680000000 1.0
C      1  0.5283720000000  0.4466850000000  0.4948030000000 1.0
C      1  0.5292210000000  0.5682670000000  0.5198180000000 1.0
C      1  0.5028530000000  0.5684520000000  0.4644610000000 1.0
C      1  0.4680800000000  0.5685920000000  0.5155050000000 1.0
C      1  0.5164150000000  0.4721260000000  0.4868550000000 1.0
C      1  0.4865450000000  0.4750840000000  0.4919900000000 1.0
C      1  0.4921470000000  0.4743210000000  0.5207190000000 1.0
C      1  0.5273960000000  0.4445530000000  0.5595920000000 1.0
C      1  0.5381260000000  0.4442900000000  0.4467120000000 1.0
C      1  0.4378590000000  0.4420290000000  0.4943610000000 1.0
C      1  0.4477460000000  0.5683010000000  0.4940330000000 1.0
C      1  0.5213580000000  0.5684150000000  0.5480250000000 1.0
C      1  0.5316220000000  0.5683460000000  0.4575340000000 1.0
C      1  0.5217640000000  0.4257220000000  0.4609420000000 1.0
C      1  0.4627660000000  0.4257620000000  0.4947160000000 1.0
C      1  0.5234390000000  0.4271290000000  0.5382110000000 1.0
C      1  0.5558020000000  0.4424540000000  0.4854830000000 1.0
C      1  0.4576870000000  0.4438450000000  0.4575010000000 1.0
C      1  0.4843440000000  0.4428910000000  0.5585490000000 1.0
C      1  0.5159150000000  0.5058070000000  0.5768990000000 1.0
C      1  0.5589810000000  0.5056450000000  0.4476200000000 1.0
C      1  0.4267210000000  0.5052630000000  0.4759440000000 1.0
C      1  0.4848420000000  0.4240940000000  0.5134150000000 1.0
C      1  0.5154350000000  0.4232610000000  0.5118090000000 1.0
C      1  0.4981870000000  0.4224120000000  0.4744200000000 1.0
C      1  0.5366530000000  0.5487290000000  0.4367660000000 1.0
C      1  0.4273400000000  0.5485310000000  0.4999410000000 1.0
C      1  0.5365160000000  0.5482780000000  0.5625670000000 1.0
C      1  0.5398770000000  0.4925900000000  0.5654230000000 1.0
C      1  0.5366440000000  0.4925100000000  0.4328850000000 1.0
C      1  0.4237360000000  0.4910870000000  0.5022200000000 1.0
C      1  0.5221050000000  0.4692810000000  0.4438360000000 1.0
C      1  0.4364300000000  0.4656060000000  0.5108500000000 1.0
C      1  0.5356450000000  0.4707300000000  0.5457330000000 1.0
C      1  0.4726970000000  0.5353440000000  0.4739480000000 1.0
C      1  0.4916310000000  0.5351750000000  0.5384130000000 1.0
C      1  0.5382800000000  0.5349170000000  0.4882970000000 1.0
C      1  0.4807640000000  0.5412750000000  0.5142430000000 1.0
C      1  0.5192980000000  0.5409200000000  0.5080600000000 1.0
C      1  0.4996800000000  0.5414830000000  0.4777290000000 1.0
C      1  0.4539720000000  0.5569380000000  0.4664530000000 1.0
C      1  0.4942190000000  0.5573880000000  0.5575580000000 1.0
C      1  0.5527410000000  0.5573990000000  0.4766760000000 1.0
C      1  0.5115540000000  0.5317370000000  0.4313310000000 1.0
C      1  0.4349920000000  0.5316240000000  0.5243890000000 1.0
C      1  0.5522970000000  0.5306990000000  0.5428570000000 1.0
C      1  0.5889270000000  0.4995310000000  0.5102840000000 1.0
C      1  0.4644890000000  0.4996170000000  0.4177680000000 1.0
C      1  0.4465990000000  0.4996400000000  0.5721070000000 1.0
C      1  0.4599360000000  0.4576090000000  0.5611600000000 1.0
C      1  0.5709490000000  0.4581240000000  0.5044960000000 1.0
C      1  0.4677820000000  0.4583550000000  0.4353570000000 1.0
C      1  0.5144130000000  0.5347930000000  0.5740670000000 1.0
C      1  0.5570190000000  0.5345670000000  0.4505030000000 1.0
C      1  0.4294510000000  0.5344640000000  0.4753960000000 1.0
C      1  0.4759160000000  0.5101790000000  0.4616080000000 1.0
C      1  0.4791010000000  0.5097980000000  0.5404700000000 1.0
C      1  0.5457230000000  0.5090740000000  0.4981930000000 1.0
C      1  0.4785210000000  0.5660560000000  0.4488790000000 1.0
C      1  0.4665170000000  0.5660130000000  0.5444280000000 1.0
C      1  0.5548850000000  0.5663790000000  0.5071350000000 1.0
C      1  0.5261920000000  0.4964300000000  0.4755570000000 1.0
C      1  0.4698040000000  0.4989490000000  0.4881030000000 1.0
C      1  0.5085900000000  0.4943860000000  0.5333060000000 1.0
C      1  0.4293150000000  0.4897230000000  0.5499370000000 1.0
C      1  0.5781390000000  0.4894240000000  0.5364650000000 1.0
C      1  0.4926170000000  0.4897360000000  0.4139410000000 1.0
C      1  0.4677090000000  0.4800980000000  0.5780860000000 1.0
C      1  0.5832650000000  0.4799490000000  0.4890680000000 1.0
C      1  0.4484990000000  0.4803880000000  0.4332840000000 1.0
C      1  0.4331190000000  0.4544820000000  0.4681430000000 1.0
C      1  0.5045860000000  0.4552110000000  0.5753570000000 1.0
C      1  0.5623150000000  0.4547320000000  0.4595600000000 1.0
C      1  0.4645110000000  0.5156510000000  0.5121600000000 1.0
C      1  0.5278590000000  0.5145990000000  0.5235920000000 1.0
C      1  0.5083260000000  0.5158350000000  0.4623720000000 1.0
C      1  0.4207840000000  0.5056050000000  0.5269980000000 1.0
C      1  0.5633770000000  0.5059880000000  0.5553730000000 1.0
C      1  0.5164780000000  0.5060840000000  0.4171460000000 1.0
C      1  0.4833410000000  0.5454060000000  0.4295030000000 1.0
C      1  0.4475180000000  0.5451190000000  0.5494580000000 1.0
C      1  0.5689880000000  0.5452480000000  0.5207320000000 1.0
C      1  0.5715750000000  0.4823940000000  0.4624250000000 1.0
C      1  0.4322850000000  0.4823440000000  0.4576650000000 1.0
C      1  0.4967630000000  0.4828030000000  0.5809680000000 1.0
C      1  0.4958140000000  0.4666080000000  0.4304550000000 1.0
C      1  0.4409640000000  0.4655040000000  0.5400100000000 1.0
C      1  0.5615890000000  0.4668400000000  0.5308200000000 1.0
END
