TITL C-2441164-471-1114 0.0956028320334476 125000 -19202.7136588548 0 0 140 (C1) n - 1
REM
REM in /home/bkarasulu/work/CARBON/AIRSS/Generating-Clusters/ReaxFF-fromJPCA2015/Units_Real/with-SteepDescent/Higher-Symm
REM
REM
REM
REM
REM
REM ./C.cell (1df0a924f5614ab8850e4351716899ee)
REM
REM compiler GCC version 9.2.1 20190827 (Red Hat 9.2.1-1)
REM options -cpp -mtune=generic -march=x86-64 -g -O0 -fpre-include=/usr/include/finclude/math-vector-fortran.h
REM seed -1673028831 1839516296 -1620963379 -1610505493 1499294569 -1297620991 1542354878 -80973811 856425841 1738248758 196762009 170154617 -2013861615 1273455580 592021938 802051201 506960204 1862456544 -336164841 -1327934046 -93967893 -756181323 421484242 -1764391776 2122601266 -1672544120 2081142459 -2058252209 1267184073 1493934320 1364502032 -1337053148 -42013495
REM
CELL 1.54180   50.00000   50.00000   50.00000   90.00000   90.00000   90.00000
LATT -1
SFAC C  
C      1  0.4690480000000  0.5866710000000  0.5206750000000 1.0
C      1  0.4775410000000  0.5884400000000  0.4671900000000 1.0
C      1  0.5304730000000  0.5873250000000  0.4789060000000 1.0
C      1  0.5215040000000  0.5873360000000  0.5319380000000 1.0
C      1  0.4684410000000  0.4109460000000  0.5215720000000 1.0
C      1  0.4784560000000  0.4117070000000  0.4682540000000 1.0
C      1  0.5314360000000  0.4116240000000  0.4786590000000 1.0
C      1  0.5218850000000  0.4115620000000  0.5320940000000 1.0
C      1  0.4254380000000  0.4421520000000  0.4676510000000 1.0
C      1  0.5335730000000  0.4412970000000  0.4263390000000 1.0
C      1  0.5749260000000  0.4425270000000  0.5331890000000 1.0
C      1  0.4669120000000  0.4413890000000  0.5733620000000 1.0
C      1  0.4259500000000  0.5561320000000  0.4669650000000 1.0
C      1  0.5328270000000  0.5578680000000  0.4272860000000 1.0
C      1  0.5744240000000  0.5560780000000  0.5324120000000 1.0
C      1  0.4663660000000  0.5571120000000  0.5738130000000 1.0
C      1  0.4651310000000  0.4539130000000  0.4546390000000 1.0
C      1  0.5478050000000  0.4516610000000  0.4659120000000 1.0
C      1  0.5353720000000  0.4531030000000  0.5460590000000 1.0
C      1  0.4521080000000  0.4518840000000  0.5342700000000 1.0
C      1  0.4656300000000  0.5465080000000  0.4525800000000 1.0
C      1  0.5484260000000  0.5469610000000  0.4660270000000 1.0
C      1  0.5344890000000  0.5455310000000  0.5466870000000 1.0
C      1  0.4520520000000  0.5458300000000  0.5340470000000 1.0
C      1  0.5975140000000  0.5137160000000  0.5114850000000 1.0
C      1  0.4889720000000  0.5161110000000  0.5900550000000 1.0
C      1  0.4038630000000  0.5140790000000  0.4886020000000 1.0
C      1  0.5108460000000  0.5172550000000  0.4107700000000 1.0
C      1  0.5986410000000  0.4846020000000  0.5123700000000 1.0
C      1  0.4893370000000  0.4823800000000  0.5894950000000 1.0
C      1  0.4031430000000  0.4848580000000  0.4884990000000 1.0
C      1  0.5107220000000  0.4820020000000  0.4103120000000 1.0
C      1  0.5574930000000  0.4363130000000  0.4429530000000 1.0
C      1  0.5577540000000  0.4381120000000  0.5572270000000 1.0
C      1  0.4424730000000  0.4373480000000  0.5572970000000 1.0
C      1  0.4426320000000  0.4385780000000  0.4436900000000 1.0
C      1  0.5577450000000  0.5619560000000  0.4429500000000 1.0
C      1  0.5573680000000  0.5610750000000  0.5564020000000 1.0
C      1  0.4432300000000  0.5607900000000  0.5560130000000 1.0
C      1  0.4421670000000  0.5607180000000  0.4423060000000 1.0
C      1  0.5147740000000  0.5221830000000  0.5136240000000 1.0
C      1  0.4862120000000  0.5214950000000  0.5145960000000 1.0
C      1  0.4856400000000  0.5202420000000  0.4863770000000 1.0
C      1  0.5139250000000  0.5207490000000  0.4851060000000 1.0
C      1  0.5145440000000  0.4741870000000  0.5132330000000 1.0
C      1  0.4863510000000  0.4771570000000  0.5150410000000 1.0
C      1  0.4853350000000  0.4784350000000  0.4870800000000 1.0
C      1  0.5131010000000  0.4761180000000  0.4848320000000 1.0
C      1  0.5601250000000  0.4352730000000  0.5097080000000 1.0
C      1  0.4908160000000  0.4370840000000  0.5583870000000 1.0
C      1  0.4401230000000  0.4351750000000  0.4909620000000 1.0
C      1  0.5093650000000  0.4370390000000  0.4409310000000 1.0
C      1  0.5593900000000  0.5628710000000  0.5093410000000 1.0
C      1  0.4907170000000  0.5622120000000  0.5598270000000 1.0
C      1  0.4419630000000  0.5615040000000  0.4901370000000 1.0
C      1  0.5089990000000  0.5611030000000  0.4426790000000 1.0
C      1  0.4658980000000  0.4639670000000  0.5902030000000 1.0
C      1  0.4086940000000  0.4654500000000  0.4673500000000 1.0
C      1  0.5351520000000  0.4646330000000  0.4105920000000 1.0
C      1  0.5917690000000  0.4656690000000  0.5333300000000 1.0
C      1  0.4648030000000  0.5337270000000  0.5896060000000 1.0
C      1  0.4087050000000  0.5335860000000  0.4665070000000 1.0
C      1  0.5342030000000  0.5360710000000  0.4100640000000 1.0
C      1  0.5916620000000  0.5332390000000  0.5325900000000 1.0
C      1  0.5290390000000  0.4721190000000  0.4624750000000 1.0
C      1  0.5378760000000  0.4768480000000  0.5296450000000 1.0
C      1  0.4690200000000  0.4742150000000  0.5373350000000 1.0
C      1  0.4629200000000  0.4742480000000  0.4736120000000 1.0
C      1  0.5303880000000  0.5256600000000  0.4628850000000 1.0
C      1  0.5376400000000  0.5218250000000  0.5304640000000 1.0
C      1  0.4693910000000  0.5249460000000  0.5367810000000 1.0
C      1  0.4648070000000  0.5257270000000  0.4704900000000 1.0
C      1  0.5608020000000  0.5329580000000  0.5760560000000 1.0
C      1  0.4228060000000  0.5359360000000  0.5602600000000 1.0
C      1  0.4387170000000  0.5344620000000  0.4227820000000 1.0
C      1  0.5772080000000  0.5377170000000  0.4386850000000 1.0
C      1  0.5607340000000  0.4660760000000  0.5764190000000 1.0
C      1  0.4226550000000  0.4614510000000  0.5617400000000 1.0
C      1  0.4389320000000  0.4652490000000  0.4244630000000 1.0
C      1  0.5771160000000  0.4635890000000  0.4402660000000 1.0
C      1  0.4862110000000  0.5471780000000  0.4332380000000 1.0
C      1  0.5671420000000  0.5481990000000  0.4868260000000 1.0
C      1  0.5140320000000  0.5469940000000  0.5667640000000 1.0
C      1  0.4349820000000  0.5459520000000  0.5128520000000 1.0
C      1  0.4857910000000  0.4523140000000  0.4346980000000 1.0
C      1  0.5665180000000  0.4500250000000  0.4868710000000 1.0
C      1  0.5143880000000  0.4522460000000  0.5654450000000 1.0
C      1  0.4329880000000  0.4499620000000  0.5137780000000 1.0
C      1  0.5413930000000  0.5148520000000  0.5871560000000 1.0
C      1  0.4124490000000  0.5170480000000  0.5413920000000 1.0
C      1  0.4578660000000  0.5154310000000  0.4133500000000 1.0
C      1  0.5800270000000  0.5119680000000  0.4554400000000 1.0
C      1  0.5414900000000  0.4844180000000  0.5872490000000 1.0
C      1  0.4200360000000  0.4867310000000  0.5446720000000 1.0
C      1  0.4577130000000  0.4839260000000  0.4137220000000 1.0
C      1  0.5866220000000  0.4825230000000  0.4592500000000 1.0
C      1  0.4610910000000  0.5875450000000  0.4434140000000 1.0
C      1  0.5543400000000  0.5888550000000  0.4625590000000 1.0
C      1  0.5387800000000  0.5870040000000  0.5552420000000 1.0
C      1  0.4449840000000  0.5881430000000  0.5363650000000 1.0
C      1  0.4618000000000  0.4119110000000  0.4445790000000 1.0
C      1  0.5550550000000  0.4107290000000  0.4618870000000 1.0
C      1  0.5382900000000  0.4121760000000  0.5559130000000 1.0
C      1  0.4444930000000  0.4102120000000  0.5378990000000 1.0
C      1  0.5558930000000  0.4865200000000  0.5080400000000 1.0
C      1  0.4850600000000  0.4855120000000  0.5586730000000 1.0
C      1  0.4455200000000  0.4866330000000  0.4931030000000 1.0
C      1  0.5158210000000  0.4862530000000  0.4409450000000 1.0
C      1  0.5558690000000  0.5118840000000  0.5084600000000 1.0
C      1  0.4848700000000  0.5124830000000  0.5581710000000 1.0
C      1  0.4431610000000  0.5094860000000  0.4770820000000 1.0
C      1  0.5168390000000  0.5128120000000  0.4408700000000 1.0
C      1  0.5360940000000  0.4195620000000  0.5072050000000 1.0
C      1  0.4932130000000  0.4202410000000  0.5356230000000 1.0
C      1  0.4642520000000  0.4196470000000  0.4932210000000 1.0
C      1  0.5068860000000  0.4205400000000  0.4640290000000 1.0
C      1  0.5356990000000  0.5790200000000  0.5071840000000 1.0
C      1  0.4932350000000  0.5786040000000  0.5366000000000 1.0
C      1  0.4661280000000  0.5768610000000  0.4921150000000 1.0
C      1  0.5054490000000  0.5768770000000  0.4660970000000 1.0
C      1  0.4204760000000  0.4772950000000  0.4425770000000 1.0
C      1  0.5598370000000  0.4762380000000  0.4212740000000 1.0
C      1  0.5798980000000  0.4775550000000  0.5586820000000 1.0
C      1  0.4406540000000  0.4742910000000  0.5798920000000 1.0
C      1  0.4181630000000  0.5243390000000  0.4398860000000 1.0
C      1  0.5594810000000  0.5254310000000  0.4199360000000 1.0
C      1  0.5809640000000  0.5219810000000  0.5585470000000 1.0
C      1  0.4402230000000  0.5222420000000  0.5783250000000 1.0
C      1  0.5809460000000  0.4744650000000  0.4895530000000 1.0
C      1  0.5159860000000  0.4713110000000  0.5860690000000 1.0
C      1  0.4227330000000  0.4769270000000  0.5104220000000 1.0
C      1  0.4834080000000  0.4711750000000  0.4138990000000 1.0
C      1  0.5783670000000  0.5221580000000  0.4896210000000 1.0
C      1  0.5158130000000  0.5275500000000  0.5871260000000 1.0
C      1  0.4140220000000  0.5260760000000  0.5136760000000 1.0
C      1  0.4835780000000  0.5281090000000  0.4131100000000 1.0
C      1  0.4329840000000  0.5023390000000  0.4514150000000 1.0
C      1  0.5587350000000  0.5014720000000  0.4359400000000 1.0
C      1  0.5630840000000  0.5001530000000  0.5518420000000 1.0
C      1  0.4417470000000  0.4972240000000  0.5628110000000 1.0
END
