TITL C-2441154-10-752 0.0689591293371571 125000 -9712.0182601158 0 0 82 (C1) n - 1
REM
REM in /home/bkarasulu/work/CARBON/AIRSS/Generating-Clusters/ReaxFF-fromJPCA2015/Units_Real/with-SteepDescent/Higher-Symm
REM
REM
REM
REM
REM
REM ./C.cell (1df0a924f5614ab8850e4351716899ee)
REM
REM compiler GCC version 9.2.1 20190827 (Red Hat 9.2.1-1)
REM options -cpp -mtune=generic -march=x86-64 -g -O0 -fpre-include=/usr/include/finclude/math-vector-fortran.h
REM seed -1269336457 2095563203 1694048694 1432793478 131360249 -39933241 -963509783 311776458 -1009590888 359448098 -250738218 -456558451 279089050 1660551231 -2068321052 -928276043 -1830110998 1171549207 -430918833 302434482 -140377520 -514747253 -525407906 661814758 292626202 -1436161359 583480622 -1556088708 -1175328020 -1484420498 1057005257 1855149599 1392035946
REM
CELL 1.54180   50.00000   50.00000   50.00000   90.00000   90.00000   90.00000
LATT -1
SFAC C  
C      1  0.5343930000000  0.5359940000000  0.5390970000000 1.0
C      1  0.5355160000000  0.5142650000000  0.4475130000000 1.0
C      1  0.5391770000000  0.4412130000000  0.5155450000000 1.0
C      1  0.4802370000000  0.5000730000000  0.4731660000000 1.0
C      1  0.4868000000000  0.4874580000000  0.5097950000000 1.0
C      1  0.4916560000000  0.5221130000000  0.5119210000000 1.0
C      1  0.4283410000000  0.5130100000000  0.5138330000000 1.0
C      1  0.4282400000000  0.5148960000000  0.4840140000000 1.0
C      1  0.4270790000000  0.4692150000000  0.4986370000000 1.0
C      1  0.5290440000000  0.5431650000000  0.4355570000000 1.0
C      1  0.5373680000000  0.4248560000000  0.4914080000000 1.0
C      1  0.5380140000000  0.5308170000000  0.5699580000000 1.0
C      1  0.5465130000000  0.4484020000000  0.4592900000000 1.0
C      1  0.5442970000000  0.4906870000000  0.5652060000000 1.0
C      1  0.5521120000000  0.5566820000000  0.4774230000000 1.0
C      1  0.5596960000000  0.4554930000000  0.5055330000000 1.0
C      1  0.5613970000000  0.5277410000000  0.5368250000000 1.0
C      1  0.5624270000000  0.5178810000000  0.4554960000000 1.0
C      1  0.4559430000000  0.4886750000000  0.4412920000000 1.0
C      1  0.4588940000000  0.4579470000000  0.5393990000000 1.0
C      1  0.4591100000000  0.5549370000000  0.5203510000000 1.0
C      1  0.5150520000000  0.5139500000000  0.5258710000000 1.0
C      1  0.5228500000000  0.5104080000000  0.4791860000000 1.0
C      1  0.5153320000000  0.4872890000000  0.4943410000000 1.0
C      1  0.4746960000000  0.5232410000000  0.4560450000000 1.0
C      1  0.4776620000000  0.4419580000000  0.5021180000000 1.0
C      1  0.4765160000000  0.5322780000000  0.5503190000000 1.0
C      1  0.5606770000000  0.5138240000000  0.5623470000000 1.0
C      1  0.5572950000000  0.5463520000000  0.4529810000000 1.0
C      1  0.5614580000000  0.4386690000000  0.4812520000000 1.0
C      1  0.5325970000000  0.5642650000000  0.5278040000000 1.0
C      1  0.5337030000000  0.4909410000000  0.4319020000000 1.0
C      1  0.5330740000000  0.4447730000000  0.5425280000000 1.0
C      1  0.5109520000000  0.5349590000000  0.4727970000000 1.0
C      1  0.5093070000000  0.4617910000000  0.4804630000000 1.0
C      1  0.5105620000000  0.4907410000000  0.5425280000000 1.0
C      1  0.4630840000000  0.4863640000000  0.5380760000000 1.0
C      1  0.4632480000000  0.5435520000000  0.4965080000000 1.0
C      1  0.4628100000000  0.4736580000000  0.4659530000000 1.0
C      1  0.5468120000000  0.4764710000000  0.4538530000000 1.0
C      1  0.5463350000000  0.4722490000000  0.5439940000000 1.0
C      1  0.5472280000000  0.5516820000000  0.5039570000000 1.0
C      1  0.5064890000000  0.4920360000000  0.5722350000000 1.0
C      1  0.5013680000000  0.5655550000000  0.4823110000000 1.0
C      1  0.5058020000000  0.4487970000000  0.4536350000000 1.0
C      1  0.5623540000000  0.4791670000000  0.5197790000000 1.0
C      1  0.5639680000000  0.5275490000000  0.5091990000000 1.0
C      1  0.5632600000000  0.4946830000000  0.4718670000000 1.0
C      1  0.5072260000000  0.4313140000000  0.5426060000000 1.0
C      1  0.5087160000000  0.5686010000000  0.5424480000000 1.0
C      1  0.5089330000000  0.4983650000000  0.4180300000000 1.0
C      1  0.4488790000000  0.5307930000000  0.5574420000000 1.0
C      1  0.4514510000000  0.5358940000000  0.4441480000000 1.0
C      1  0.4505270000000  0.4311710000000  0.4943410000000 1.0
C      1  0.4986430000000  0.4877960000000  0.4554490000000 1.0
C      1  0.4991120000000  0.4698730000000  0.5299800000000 1.0
C      1  0.4998550000000  0.5497910000000  0.5081170000000 1.0
C      1  0.4681800000000  0.4174580000000  0.5137510000000 1.0
C      1  0.4686520000000  0.5505460000000  0.5677450000000 1.0
C      1  0.4765500000000  0.5308390000000  0.4273620000000 1.0
C      1  0.4342680000000  0.5005540000000  0.4583150000000 1.0
C      1  0.4324840000000  0.4614110000000  0.5248570000000 1.0
C      1  0.4378220000000  0.5370970000000  0.5267980000000 1.0
C      1  0.4550680000000  0.5035320000000  0.5741020000000 1.0
C      1  0.4486230000000  0.5584150000000  0.4631100000000 1.0
C      1  0.4578340000000  0.4343410000000  0.4675290000000 1.0
C      1  0.4834880000000  0.4866490000000  0.4308560000000 1.0
C      1  0.4856690000000  0.4504210000000  0.5485010000000 1.0
C      1  0.4850130000000  0.5682360000000  0.5256790000000 1.0
C      1  0.4320420000000  0.4739790000000  0.4718220000000 1.0
C      1  0.4337400000000  0.4903220000000  0.5327570000000 1.0
C      1  0.4355930000000  0.5427050000000  0.4861490000000 1.0
C      1  0.5135360000000  0.4329520000000  0.4769230000000 1.0
C      1  0.5126030000000  0.5199460000000  0.5764810000000 1.0
C      1  0.5124650000000  0.5560560000000  0.4556070000000 1.0
C      1  0.4960710000000  0.4241050000000  0.5168540000000 1.0
C      1  0.4978250000000  0.5459470000000  0.5631570000000 1.0
C      1  0.5048930000000  0.5267510000000  0.4237430000000 1.0
C      1  0.4753440000000  0.4856590000000  0.5681060000000 1.0
C      1  0.4718690000000  0.5646780000000  0.4789590000000 1.0
C      1  0.4762120000000  0.4481860000000  0.4519870000000 1.0
C      1  0.5651140000000  0.5001230000000  0.5001960000000 1.0
END
