TITL C-2441164-471-1231 0.0863398946247518 125000 -12750.7701680164 0 0 104 (C1) n - 1
REM
REM in /home/bkarasulu/work/CARBON/AIRSS/Generating-Clusters/ReaxFF-fromJPCA2015/Units_Real/with-SteepDescent/Higher-Symm
REM
REM
REM
REM
REM
REM ./C.cell (1df0a924f5614ab8850e4351716899ee)
REM
REM compiler GCC version 9.2.1 20190827 (Red Hat 9.2.1-1)
REM options -cpp -mtune=generic -march=x86-64 -g -O0 -fpre-include=/usr/include/finclude/math-vector-fortran.h
REM seed -1946334427 -174924034 941725213 -1856620482 -134406871 -1910647771 -815913177 1173711763 -173306216 848163784 -209672366 2064866143 1138077376 -2091822009 499839964 1458384161 -1733866325 254498675 55924787 1484331597 -1024660443 1834816388 -1596612607 -496490508 -2113173381 993968256 403671112 -192846867 -1392427503 422005571 -1422005631 -548535894 1479773128
REM
CELL 1.54180   50.00000   50.00000   50.00000   90.00000   90.00000   90.00000
LATT -1
SFAC C  
C      1  0.4553610000000  0.5070160000000  0.5129690000000 1.0
C      1  0.5462980000000  0.4930370000000  0.5129110000000 1.0
C      1  0.5461350000000  0.5061310000000  0.4864310000000 1.0
C      1  0.4550800000000  0.4928630000000  0.4871090000000 1.0
C      1  0.5764550000000  0.4396390000000  0.5079320000000 1.0
C      1  0.4223380000000  0.5609000000000  0.5070820000000 1.0
C      1  0.4255070000000  0.4416750000000  0.4993480000000 1.0
C      1  0.5753440000000  0.5593800000000  0.4991010000000 1.0
C      1  0.5101600000000  0.4182970000000  0.4884140000000 1.0
C      1  0.4892240000000  0.5802430000000  0.4896260000000 1.0
C      1  0.4891410000000  0.4197200000000  0.5099620000000 1.0
C      1  0.5098490000000  0.5815530000000  0.5115770000000 1.0
C      1  0.4923800000000  0.5778890000000  0.4616990000000 1.0
C      1  0.5072720000000  0.4204560000000  0.4601530000000 1.0
C      1  0.5070400000000  0.5792710000000  0.5397320000000 1.0
C      1  0.4910420000000  0.4220130000000  0.5379500000000 1.0
C      1  0.5038850000000  0.5632630000000  0.5622450000000 1.0
C      1  0.4973870000000  0.4374410000000  0.5603990000000 1.0
C      1  0.4961590000000  0.5629090000000  0.4388650000000 1.0
C      1  0.5038430000000  0.4373360000000  0.4382360000000 1.0
C      1  0.5754380000000  0.5173330000000  0.4796570000000 1.0
C      1  0.4259280000000  0.4841630000000  0.4811740000000 1.0
C      1  0.4262190000000  0.5172500000000  0.5188550000000 1.0
C      1  0.5754010000000  0.4817160000000  0.5197620000000 1.0
C      1  0.5209560000000  0.4776410000000  0.5168550000000 1.0
C      1  0.4779060000000  0.5280560000000  0.5100390000000 1.0
C      1  0.4764600000000  0.4692290000000  0.4874040000000 1.0
C      1  0.5220150000000  0.5227330000000  0.4860750000000 1.0
C      1  0.5519450000000  0.4494390000000  0.5146470000000 1.0
C      1  0.4477410000000  0.5516850000000  0.5151310000000 1.0
C      1  0.4432760000000  0.4450630000000  0.4822960000000 1.0
C      1  0.5556620000000  0.5531140000000  0.4841650000000 1.0
C      1  0.5823110000000  0.5325280000000  0.5036900000000 1.0
C      1  0.4186110000000  0.4680580000000  0.5046530000000 1.0
C      1  0.4193970000000  0.5339660000000  0.4960370000000 1.0
C      1  0.5815830000000  0.4655710000000  0.4960000000000 1.0
C      1  0.4827850000000  0.4828140000000  0.5379900000000 1.0
C      1  0.5167620000000  0.5173750000000  0.5370300000000 1.0
C      1  0.5161460000000  0.4828230000000  0.4610710000000 1.0
C      1  0.4848540000000  0.5178070000000  0.4605340000000 1.0
C      1  0.5358210000000  0.5140310000000  0.4215360000000 1.0
C      1  0.4641600000000  0.4856290000000  0.4228920000000 1.0
C      1  0.4604420000000  0.5137220000000  0.5801540000000 1.0
C      1  0.5390640000000  0.4863660000000  0.5799810000000 1.0
C      1  0.4746540000000  0.4435350000000  0.4480800000000 1.0
C      1  0.5249870000000  0.5564710000000  0.4482320000000 1.0
C      1  0.5258000000000  0.4439900000000  0.5515040000000 1.0
C      1  0.4758350000000  0.5557610000000  0.5534740000000 1.0
C      1  0.4975240000000  0.5140600000000  0.4345410000000 1.0
C      1  0.5026870000000  0.4856660000000  0.4352530000000 1.0
C      1  0.5060930000000  0.5124850000000  0.5628700000000 1.0
C      1  0.4939340000000  0.4878040000000  0.5633440000000 1.0
C      1  0.5000300000000  0.5360920000000  0.4765130000000 1.0
C      1  0.5036470000000  0.4661300000000  0.4804610000000 1.0
C      1  0.5023000000000  0.5353280000000  0.5205680000000 1.0
C      1  0.4992980000000  0.4658790000000  0.5216330000000 1.0
C      1  0.5590900000000  0.4976730000000  0.4306100000000 1.0
C      1  0.4405610000000  0.5020270000000  0.4311980000000 1.0
C      1  0.4395050000000  0.4968320000000  0.5686460000000 1.0
C      1  0.5601840000000  0.5030840000000  0.5688330000000 1.0
C      1  0.5638720000000  0.4666190000000  0.4711370000000 1.0
C      1  0.4366610000000  0.5327360000000  0.4711600000000 1.0
C      1  0.4359640000000  0.4661790000000  0.5297890000000 1.0
C      1  0.5646690000000  0.5340470000000  0.5290700000000 1.0
C      1  0.4681550000000  0.5508920000000  0.4394420000000 1.0
C      1  0.5316790000000  0.4490850000000  0.4396870000000 1.0
C      1  0.5315850000000  0.5508370000000  0.5600130000000 1.0
C      1  0.4690430000000  0.4494330000000  0.5602930000000 1.0
C      1  0.5438080000000  0.5274970000000  0.5751750000000 1.0
C      1  0.4562540000000  0.4725360000000  0.5752370000000 1.0
C      1  0.4562900000000  0.5268790000000  0.4252300000000 1.0
C      1  0.5436990000000  0.4725210000000  0.4251050000000 1.0
C      1  0.5438420000000  0.4864470000000  0.4676130000000 1.0
C      1  0.4578080000000  0.5135450000000  0.4685940000000 1.0
C      1  0.4564720000000  0.4866610000000  0.5308670000000 1.0
C      1  0.5439770000000  0.5140990000000  0.5304560000000 1.0
C      1  0.4560110000000  0.5533760000000  0.4655840000000 1.0
C      1  0.5439760000000  0.4460000000000  0.4660830000000 1.0
C      1  0.5432880000000  0.5538970000000  0.5336960000000 1.0
C      1  0.4568450000000  0.4456660000000  0.5342900000000 1.0
C      1  0.5387610000000  0.4695420000000  0.5556850000000 1.0
C      1  0.4619260000000  0.5298400000000  0.5553370000000 1.0
C      1  0.4630760000000  0.4715960000000  0.4487020000000 1.0
C      1  0.5375070000000  0.5298080000000  0.4460600000000 1.0
C      1  0.4404290000000  0.4277140000000  0.4656800000000 1.0
C      1  0.5581920000000  0.5711350000000  0.4676070000000 1.0
C      1  0.5585710000000  0.4298600000000  0.5314930000000 1.0
C      1  0.4377500000000  0.5709340000000  0.5293510000000 1.0
C      1  0.5636290000000  0.5183390000000  0.4531910000000 1.0
C      1  0.4358470000000  0.4820330000000  0.4539390000000 1.0
C      1  0.4362770000000  0.5176930000000  0.5461120000000 1.0
C      1  0.5640000000000  0.4819110000000  0.5465190000000 1.0
C      1  0.4765160000000  0.4897310000000  0.5865500000000 1.0
C      1  0.5231390000000  0.5105670000000  0.5862940000000 1.0
C      1  0.5225030000000  0.4885310000000  0.4138190000000 1.0
C      1  0.4770590000000  0.5107500000000  0.4134720000000 1.0
C      1  0.5316860000000  0.4348140000000  0.5258650000000 1.0
C      1  0.4653530000000  0.5675050000000  0.5294420000000 1.0
C      1  0.4650310000000  0.4314290000000  0.4703990000000 1.0
C      1  0.5327260000000  0.5665210000000  0.4738040000000 1.0
C      1  0.4754720000000  0.4468200000000  0.5093550000000 1.0
C      1  0.5235530000000  0.5549170000000  0.5106260000000 1.0
C      1  0.5238610000000  0.4445040000000  0.4883620000000 1.0
C      1  0.4763310000000  0.5525950000000  0.4886850000000 1.0
END
