TITL C-2441163-1170-605 0.00994649411472997 125000 -9893.93610911992 0 0 72 (C1) n - 1
REM
REM in /home/bkarasulu/work/CARBON/AIRSS/Generating-Clusters/ReaxFF-fromJPCA2015/Units_Real/with-SteepDescent/Higher-Symm
REM
REM
REM
REM
REM
REM ./C.cell (1df0a924f5614ab8850e4351716899ee)
REM
REM compiler GCC version 9.2.1 20190827 (Red Hat 9.2.1-1)
REM options -cpp -mtune=generic -march=x86-64 -g -O0 -fpre-include=/usr/include/finclude/math-vector-fortran.h
REM seed 1633255523 1996725929 -1756033484 1574027695 -328198076 663898576 2043721950 1082064759 -507452420 1408876778 -1255512884 -849278660 -743798595 -31933626 1857695095 295375057 411797134 -1896942124 1279221637 -69533104 -507971068 559560321 -538754681 -549345249 145903194 1474539920 947509996 750420304 466586227 933392825 -1673786900 793123987 852800875
REM
CELL 1.54180   50.00000   50.00000   50.00000   90.00000   90.00000   90.00000
LATT -1
SFAC C  
C      1  0.5328760000000  0.5280280000000  0.4389370000000 1.0
C      1  0.5433410000000  0.5003220000000  0.4387190000000 1.0
C      1  0.5334110000000  0.4724680000000  0.4392480000000 1.0
C      1  0.5078330000000  0.4576180000000  0.4388850000000 1.0
C      1  0.4786220000000  0.4621180000000  0.4389910000000 1.0
C      1  0.4596120000000  0.4847420000000  0.4390700000000 1.0
C      1  0.4591310000000  0.5143470000000  0.4389890000000 1.0
C      1  0.4780670000000  0.5370800000000  0.4389450000000 1.0
C      1  0.5071610000000  0.5424190000000  0.4390380000000 1.0
C      1  0.5088460000000  0.5373750000000  0.4777610000000 1.0
C      1  0.5293320000000  0.5229660000000  0.4778720000000 1.0
C      1  0.5359920000000  0.4978030000000  0.4780640000000 1.0
C      1  0.5265070000000  0.4735960000000  0.4780540000000 1.0
C      1  0.5043660000000  0.4618500000000  0.4775690000000 1.0
C      1  0.4797570000000  0.4689160000000  0.4779570000000 1.0
C      1  0.4640000000000  0.4889280000000  0.4779170000000 1.0
C      1  0.4665880000000  0.5145560000000  0.4782070000000 1.0
C      1  0.4840360000000  0.5337780000000  0.4777590000000 1.0
C      1  0.5552720000000  0.5079370000000  0.5668120000000 1.0
C      1  0.5517490000000  0.4783120000000  0.5662670000000 1.0
C      1  0.5163250000000  0.4437710000000  0.5654250000000 1.0
C      1  0.4867930000000  0.4438050000000  0.5653790000000 1.0
C      1  0.4484630000000  0.4742540000000  0.5657290000000 1.0
C      1  0.4426660000000  0.5032310000000  0.5659090000000 1.0
C      1  0.4672080000000  0.5455390000000  0.5662960000000 1.0
C      1  0.4951820000000  0.5560070000000  0.5667110000000 1.0
C      1  0.5333160000000  0.5421050000000  0.5657440000000 1.0
C      1  0.4330510000000  0.4658770000000  0.4863500000000 1.0
C      1  0.4258060000000  0.5179870000000  0.4860140000000 1.0
C      1  0.4544690000000  0.5602330000000  0.4860540000000 1.0
C      1  0.5041020000000  0.5756940000000  0.4859250000000 1.0
C      1  0.5519750000000  0.5551300000000  0.4860200000000 1.0
C      1  0.5753600000000  0.5088720000000  0.4858120000000 1.0
C      1  0.5635900000000  0.4584810000000  0.4863940000000 1.0
C      1  0.5221580000000  0.4283160000000  0.4860990000000 1.0
C      1  0.4694530000000  0.4299420000000  0.4861860000000 1.0
C      1  0.5468940000000  0.4579220000000  0.4620030000000 1.0
C      1  0.5094590000000  0.4372430000000  0.4610220000000 1.0
C      1  0.4667400000000  0.4465670000000  0.4620280000000 1.0
C      1  0.4402520000000  0.4800890000000  0.4615340000000 1.0
C      1  0.4420430000000  0.5232660000000  0.4621010000000 1.0
C      1  0.4702860000000  0.5553290000000  0.4615720000000 1.0
C      1  0.5128520000000  0.5621210000000  0.4613110000000 1.0
C      1  0.5494060000000  0.5389250000000  0.4616280000000 1.0
C      1  0.5621900000000  0.4980530000000  0.4618710000000 1.0
C      1  0.5633810000000  0.4916290000000  0.5458880000000 1.0
C      1  0.5361630000000  0.4592070000000  0.5513360000000 1.0
C      1  0.5010520000000  0.4348020000000  0.5440190000000 1.0
C      1  0.4663400000000  0.4576700000000  0.5512610000000 1.0
C      1  0.4364450000000  0.4871040000000  0.5444170000000 1.0
C      1  0.4525360000000  0.5262170000000  0.5513890000000 1.0
C      1  0.4777650000000  0.5601870000000  0.5457990000000 1.0
C      1  0.5180210000000  0.5569390000000  0.5487880000000 1.0
C      1  0.5515470000000  0.5302290000000  0.5488490000000 1.0
C      1  0.4516770000000  0.4478210000000  0.5010340000000 1.0
C      1  0.4281820000000  0.4915250000000  0.4997570000000 1.0
C      1  0.4399010000000  0.5388860000000  0.5008240000000 1.0
C      1  0.4786900000000  0.5689270000000  0.5001030000000 1.0
C      1  0.5277950000000  0.5657750000000  0.5000960000000 1.0
C      1  0.5637140000000  0.5324550000000  0.5003760000000 1.0
C      1  0.5710820000000  0.4837860000000  0.5001170000000 1.0
C      1  0.5430300000000  0.4438660000000  0.5011930000000 1.0
C      1  0.4960810000000  0.4279800000000  0.4993970000000 1.0
C      1  0.5428840000000  0.5243750000000  0.5203360000000 1.0
C      1  0.5499290000000  0.4897620000000  0.5208830000000 1.0
C      1  0.5320270000000  0.4625840000000  0.5223530000000 1.0
C      1  0.4978650000000  0.4497850000000  0.5200400000000 1.0
C      1  0.4685660000000  0.4622080000000  0.5221760000000 1.0
C      1  0.4499140000000  0.4933170000000  0.5201030000000 1.0
C      1  0.4572900000000  0.5253100000000  0.5221850000000 1.0
C      1  0.4836380000000  0.5480070000000  0.5208770000000 1.0
C      1  0.5179480000000  0.5457290000000  0.5202270000000 1.0
END
