TITL C-2441167-4473-1151 0.0630631717992904 125000 -22534.9193899403 0 0 162 (C1) n - 1
REM
REM in /home/bkarasulu/work/CARBON/AIRSS/Generating-Clusters/ReaxFF-fromJPCA2015/Units_Real/with-SteepDescent/Higher-Symm
REM
REM
REM
REM
REM
REM ./C.cell (1df0a924f5614ab8850e4351716899ee)
REM
REM compiler GCC version 9.2.1 20190827 (Red Hat 9.2.1-1)
REM options -cpp -mtune=generic -march=x86-64 -g -O0 -fpre-include=/usr/include/finclude/math-vector-fortran.h
REM seed -1476979732 1815391967 741935750 2058010856 1250632767 -317116060 2055671992 -1614821481 -1188793713 1354580378 856279447 -1283566449 1493830348 -2103229598 291969460 2014915580 -708517048 -934717695 -1659108542 978696889 -1462951017 -1972087197 215704917 898095480 1031339086 1410144585 -961139020 -859771423 1948478223 108746984 -899764236 -347969491 -1948619408
REM
CELL 1.54180   50.00000   50.00000   50.00000   90.00000   90.00000   90.00000
LATT -1
SFAC C  
C      1  0.4902040000000  0.5462990000000  0.4585800000000 1.0
C      1  0.5152240000000  0.5326800000000  0.4613710000000 1.0
C      1  0.5354930000000  0.5440990000000  0.4775370000000 1.0
C      1  0.5475030000000  0.5280250000000  0.4970210000000 1.0
C      1  0.5482740000000  0.5376360000000  0.5238300000000 1.0
C      1  0.5269950000000  0.5283650000000  0.5405970000000 1.0
C      1  0.4993900000000  0.5271350000000  0.5464050000000 1.0
C      1  0.4733700000000  0.5386260000000  0.5442910000000 1.0
C      1  0.4571320000000  0.5297840000000  0.5224680000000 1.0
C      1  0.4538530000000  0.5304870000000  0.4941030000000 1.0
C      1  0.4664180000000  0.5338230000000  0.4687520000000 1.0
C      1  0.5350220000000  0.5132580000000  0.5891250000000 1.0
C      1  0.4803990000000  0.5063420000000  0.5978980000000 1.0
C      1  0.4369890000000  0.5105710000000  0.5667290000000 1.0
C      1  0.4107310000000  0.5067560000000  0.5225730000000 1.0
C      1  0.4109720000000  0.5083750000000  0.4699210000000 1.0
C      1  0.4427330000000  0.5076570000000  0.4294120000000 1.0
C      1  0.4910320000000  0.5051670000000  0.4028310000000 1.0
C      1  0.5386000000000  0.5065140000000  0.4233790000000 1.0
C      1  0.5826890000000  0.5089150000000  0.4516360000000 1.0
C      1  0.5959120000000  0.5071010000000  0.5058360000000 1.0
C      1  0.5761270000000  0.5089760000000  0.5561280000000 1.0
C      1  0.4254210000000  0.4250190000000  0.5078730000000 1.0
C      1  0.4223020000000  0.4372150000000  0.4463640000000 1.0
C      1  0.4611690000000  0.4258580000000  0.4339560000000 1.0
C      1  0.5087120000000  0.4285280000000  0.4045140000000 1.0
C      1  0.5434810000000  0.4291870000000  0.4282910000000 1.0
C      1  0.5800130000000  0.4271300000000  0.4702760000000 1.0
C      1  0.5803070000000  0.4232710000000  0.5236020000000 1.0
C      1  0.5718720000000  0.4341820000000  0.5637060000000 1.0
C      1  0.5215060000000  0.4326810000000  0.5792330000000 1.0
C      1  0.4657440000000  0.4265180000000  0.5747480000000 1.0
C      1  0.4196330000000  0.4384470000000  0.5497940000000 1.0
C      1  0.5239130000000  0.4720540000000  0.4002890000000 1.0
C      1  0.5662980000000  0.4747170000000  0.4249220000000 1.0
C      1  0.5976420000000  0.4774370000000  0.4758610000000 1.0
C      1  0.5933540000000  0.4725520000000  0.5404660000000 1.0
C      1  0.5583340000000  0.4736550000000  0.5821330000000 1.0
C      1  0.5127570000000  0.4773900000000  0.5994080000000 1.0
C      1  0.4464040000000  0.4714940000000  0.5872420000000 1.0
C      1  0.4102600000000  0.4784950000000  0.5524100000000 1.0
C      1  0.4052000000000  0.4679770000000  0.4966140000000 1.0
C      1  0.4159300000000  0.4772880000000  0.4433350000000 1.0
C      1  0.4596430000000  0.4728320000000  0.4122490000000 1.0
C      1  0.5978590000000  0.4498870000000  0.4642870000000 1.0
C      1  0.5967290000000  0.4468620000000  0.5226930000000 1.0
C      1  0.5802840000000  0.4600500000000  0.5675030000000 1.0
C      1  0.5314520000000  0.4569330000000  0.5910940000000 1.0
C      1  0.4631740000000  0.4467420000000  0.5953720000000 1.0
C      1  0.4216840000000  0.4585850000000  0.5697290000000 1.0
C      1  0.4102780000000  0.4469570000000  0.5181140000000 1.0
C      1  0.4087740000000  0.4570320000000  0.4630390000000 1.0
C      1  0.4479440000000  0.4492810000000  0.4248560000000 1.0
C      1  0.5009990000000  0.4509210000000  0.3897690000000 1.0
C      1  0.5493050000000  0.4539870000000  0.4137540000000 1.0
C      1  0.4250560000000  0.5611190000000  0.4719560000000 1.0
C      1  0.4532060000000  0.5619150000000  0.4362480000000 1.0
C      1  0.4951080000000  0.5612470000000  0.4182210000000 1.0
C      1  0.5390280000000  0.5634810000000  0.4305040000000 1.0
C      1  0.5721560000000  0.5623650000000  0.4621110000000 1.0
C      1  0.5784920000000  0.5650540000000  0.5061490000000 1.0
C      1  0.5623610000000  0.5651840000000  0.5513120000000 1.0
C      1  0.5259360000000  0.5622530000000  0.5754180000000 1.0
C      1  0.4835750000000  0.5637430000000  0.5773040000000 1.0
C      1  0.4424230000000  0.5648490000000  0.5537840000000 1.0
C      1  0.4223980000000  0.5619460000000  0.5153690000000 1.0
C      1  0.5288820000000  0.5240240000000  0.4015860000000 1.0
C      1  0.5783110000000  0.5259160000000  0.4282490000000 1.0
C      1  0.6048450000000  0.5264670000000  0.4846500000000 1.0
C      1  0.5974810000000  0.5249250000000  0.5432710000000 1.0
C      1  0.5604000000000  0.5285560000000  0.5911390000000 1.0
C      1  0.5005150000000  0.5258710000000  0.6076910000000 1.0
C      1  0.4442000000000  0.5253900000000  0.5907110000000 1.0
C      1  0.4048770000000  0.5266890000000  0.5440530000000 1.0
C      1  0.3942070000000  0.5231290000000  0.4886840000000 1.0
C      1  0.4197040000000  0.5256090000000  0.4323100000000 1.0
C      1  0.4682910000000  0.5233820000000  0.3992410000000 1.0
C      1  0.5512620000000  0.4995580000000  0.4938950000000 1.0
C      1  0.5432450000000  0.4862780000000  0.5236730000000 1.0
C      1  0.5274630000000  0.4991900000000  0.5446050000000 1.0
C      1  0.4985410000000  0.4980350000000  0.5528190000000 1.0
C      1  0.4738250000000  0.4870440000000  0.5417610000000 1.0
C      1  0.4544390000000  0.4998740000000  0.5233900000000 1.0
C      1  0.4506910000000  0.5010550000000  0.4931880000000 1.0
C      1  0.4655990000000  0.5046190000000  0.4659910000000 1.0
C      1  0.4899660000000  0.4944720000000  0.4513130000000 1.0
C      1  0.5152400000000  0.5051440000000  0.4600710000000 1.0
C      1  0.5401030000000  0.4928520000000  0.4680480000000 1.0
C      1  0.4286050000000  0.4839330000000  0.5288420000000 1.0
C      1  0.4252150000000  0.4873380000000  0.4848130000000 1.0
C      1  0.4468810000000  0.4859530000000  0.4487580000000 1.0
C      1  0.4835520000000  0.4857370000000  0.4237960000000 1.0
C      1  0.5238030000000  0.4815650000000  0.4283270000000 1.0
C      1  0.5633520000000  0.4866480000000  0.4516940000000 1.0
C      1  0.5780680000000  0.4856380000000  0.4955750000000 1.0
C      1  0.5687860000000  0.4881110000000  0.5372220000000 1.0
C      1  0.5391850000000  0.4926730000000  0.5697770000000 1.0
C      1  0.4934560000000  0.4873230000000  0.5804420000000 1.0
C      1  0.4560480000000  0.4884220000000  0.5648500000000 1.0
C      1  0.4959580000000  0.5735650000000  0.4474110000000 1.0
C      1  0.5260220000000  0.5775930000000  0.4515000000000 1.0
C      1  0.5443430000000  0.5723920000000  0.4748460000000 1.0
C      1  0.5532910000000  0.5780940000000  0.5068330000000 1.0
C      1  0.5425180000000  0.5782740000000  0.5340440000000 1.0
C      1  0.5175380000000  0.5762890000000  0.5510200000000 1.0
C      1  0.4882910000000  0.5777430000000  0.5522730000000 1.0
C      1  0.4616740000000  0.5787700000000  0.5370270000000 1.0
C      1  0.4476590000000  0.5767590000000  0.5112260000000 1.0
C      1  0.4486660000000  0.5768090000000  0.4812680000000 1.0
C      1  0.4647810000000  0.5786280000000  0.4570050000000 1.0
C      1  0.5044770000000  0.5512350000000  0.5924960000000 1.0
C      1  0.4588330000000  0.5477470000000  0.5722980000000 1.0
C      1  0.4181630000000  0.5530020000000  0.5424370000000 1.0
C      1  0.4091170000000  0.5490360000000  0.4926050000000 1.0
C      1  0.4274420000000  0.5514320000000  0.4443480000000 1.0
C      1  0.4697980000000  0.5493320000000  0.4136780000000 1.0
C      1  0.5209810000000  0.5513930000000  0.4103320000000 1.0
C      1  0.5666430000000  0.5520090000000  0.4360540000000 1.0
C      1  0.5904920000000  0.5524100000000  0.4820990000000 1.0
C      1  0.5765120000000  0.5473900000000  0.5320080000000 1.0
C      1  0.5536830000000  0.5537410000000  0.5764120000000 1.0
C      1  0.5165380000000  0.5007090000000  0.3894840000000 1.0
C      1  0.5666670000000  0.5029280000000  0.4139270000000 1.0
C      1  0.6076980000000  0.5045740000000  0.4660340000000 1.0
C      1  0.6082640000000  0.5013000000000  0.5317900000000 1.0
C      1  0.5744750000000  0.5040460000000  0.5851410000000 1.0
C      1  0.5191550000000  0.5039700000000  0.6113870000000 1.0
C      1  0.4522990000000  0.5015160000000  0.6036360000000 1.0
C      1  0.4079210000000  0.5056690000000  0.5632280000000 1.0
C      1  0.3906510000000  0.4981510000000  0.5037380000000 1.0
C      1  0.4036300000000  0.5036410000000  0.4423330000000 1.0
C      1  0.4496880000000  0.5005760000000  0.4024320000000 1.0
C      1  0.5672000000000  0.4286600000000  0.4969890000000 1.0
C      1  0.5612860000000  0.4150740000000  0.5473890000000 1.0
C      1  0.5334780000000  0.4226820000000  0.5534360000000 1.0
C      1  0.4945160000000  0.4292270000000  0.5668240000000 1.0
C      1  0.4444920000000  0.4233210000000  0.5525240000000 1.0
C      1  0.4499350000000  0.4266930000000  0.5241210000000 1.0
C      1  0.4427280000000  0.4264150000000  0.4836760000000 1.0
C      1  0.4413440000000  0.4176040000000  0.4554560000000 1.0
C      1  0.4905750000000  0.4258250000000  0.4420060000000 1.0
C      1  0.5157250000000  0.4170350000000  0.4285520000000 1.0
C      1  0.5531090000000  0.4281560000000  0.4566410000000 1.0
C      1  0.4522110000000  0.4530680000000  0.4873500000000 1.0
C      1  0.4651850000000  0.4645740000000  0.4636740000000 1.0
C      1  0.4906260000000  0.4514880000000  0.4552130000000 1.0
C      1  0.5178500000000  0.4634820000000  0.4520550000000 1.0
C      1  0.5384080000000  0.4493590000000  0.4688140000000 1.0
C      1  0.5516210000000  0.4540980000000  0.4949740000000 1.0
C      1  0.5348800000000  0.4607070000000  0.5174960000000 1.0
C      1  0.5225810000000  0.4438480000000  0.5366170000000 1.0
C      1  0.4963960000000  0.4446010000000  0.5436700000000 1.0
C      1  0.4781550000000  0.4617040000000  0.5281650000000 1.0
C      1  0.4523190000000  0.4548000000000  0.5166800000000 1.0
C      1  0.4998600000000  0.5951480000000  0.5008170000000 1.0
C      1  0.4955980000000  0.4654710000000  0.5035280000000 1.0
C      1  0.5007110000000  0.5182580000000  0.5000220000000 1.0
C      1  0.5027500000000  0.4142280000000  0.4957510000000 1.0
C      1  0.5001550000000  0.5444120000000  0.5011300000000 1.0
C      1  0.5009890000000  0.4387460000000  0.4969660000000 1.0
C      1  0.5002460000000  0.4923240000000  0.4994210000000 1.0
C      1  0.4998210000000  0.5704840000000  0.5013820000000 1.0
END
