TITL C-2441160-1326-588 0.0403655001976934 125000 -18990.7028514832 0 0 136 (C1) n - 1
REM
REM in /home/bkarasulu/work/CARBON/AIRSS/Generating-Clusters/ReaxFF-fromJPCA2015/Units_Real/with-SteepDescent/Higher-Symm
REM
REM
REM
REM
REM
REM ./C.cell (1df0a924f5614ab8850e4351716899ee)
REM
REM compiler GCC version 9.2.1 20190827 (Red Hat 9.2.1-1)
REM options -cpp -mtune=generic -march=x86-64 -g -O0 -fpre-include=/usr/include/finclude/math-vector-fortran.h
REM seed -1064044815 150231137 1951962187 1016585674 1124211054 -284149414 2087696647 -1771910075 793436367 1230943398 286338669 -1658768524 -686220716 955098621 201289009 -119524333 935669313 1938337081 -1008276657 1769840250 575975709 2093801910 1206726137 758563469 2049620446 -1729113286 314108668 1161607491 1762244625 -1540952977 1279683251 1412888270 1069076561
REM
CELL 1.54180   50.00000   50.00000   50.00000   90.00000   90.00000   90.00000
LATT -1
SFAC C  
C      1  0.4013860000000  0.4903890000000  0.4826470000000 1.0
C      1  0.4018120000000  0.5192180000000  0.4915330000000 1.0
C      1  0.4047550000000  0.5105710000000  0.5196530000000 1.0
C      1  0.4017770000000  0.4823210000000  0.5117770000000 1.0
C      1  0.6046850000000  0.4968680000000  0.4821670000000 1.0
C      1  0.6043010000000  0.5215250000000  0.4986110000000 1.0
C      1  0.5978080000000  0.5037460000000  0.5223130000000 1.0
C      1  0.5958500000000  0.4793540000000  0.5048840000000 1.0
C      1  0.4332720000000  0.4643420000000  0.4563400000000 1.0
C      1  0.4344010000000  0.5440710000000  0.4641360000000 1.0
C      1  0.4369250000000  0.5368220000000  0.5385240000000 1.0
C      1  0.4341970000000  0.4560690000000  0.5355820000000 1.0
C      1  0.5245020000000  0.4975670000000  0.4539620000000 1.0
C      1  0.5263670000000  0.5445470000000  0.5020830000000 1.0
C      1  0.5275590000000  0.5062000000000  0.5589470000000 1.0
C      1  0.5207640000000  0.4470870000000  0.5062320000000 1.0
C      1  0.5848050000000  0.5388180000000  0.5039860000000 1.0
C      1  0.5687070000000  0.5044400000000  0.5254300000000 1.0
C      1  0.5661800000000  0.4819230000000  0.5077490000000 1.0
C      1  0.5877180000000  0.5009960000000  0.4584980000000 1.0
C      1  0.5329380000000  0.5384010000000  0.4755020000000 1.0
C      1  0.5429800000000  0.5216500000000  0.5392110000000 1.0
C      1  0.5377180000000  0.4524890000000  0.5274590000000 1.0
C      1  0.5328010000000  0.4712380000000  0.4629730000000 1.0
C      1  0.4831680000000  0.4438540000000  0.4752680000000 1.0
C      1  0.4819860000000  0.5243640000000  0.4441300000000 1.0
C      1  0.4826400000000  0.5556390000000  0.5255370000000 1.0
C      1  0.4844470000000  0.4770850000000  0.5556560000000 1.0
C      1  0.5266770000000  0.4751240000000  0.5132200000000 1.0
C      1  0.5436010000000  0.4851680000000  0.4876180000000 1.0
C      1  0.5377100000000  0.5107440000000  0.4738630000000 1.0
C      1  0.5255950000000  0.5222050000000  0.5183610000000 1.0
C      1  0.5376280000000  0.4472220000000  0.4485900000000 1.0
C      1  0.5356430000000  0.5593250000000  0.4545810000000 1.0
C      1  0.5387020000000  0.5534530000000  0.5501980000000 1.0
C      1  0.5371550000000  0.4412190000000  0.5542400000000 1.0
C      1  0.4719860000000  0.4966670000000  0.4397280000000 1.0
C      1  0.4736340000000  0.5601850000000  0.4966990000000 1.0
C      1  0.4735850000000  0.5043570000000  0.5586200000000 1.0
C      1  0.4739150000000  0.4406590000000  0.5032290000000 1.0
C      1  0.4372550000000  0.4732900000000  0.4286410000000 1.0
C      1  0.4408890000000  0.5712160000000  0.4721760000000 1.0
C      1  0.4312160000000  0.5233010000000  0.5679430000000 1.0
C      1  0.4397340000000  0.4287470000000  0.5270680000000 1.0
C      1  0.5095550000000  0.5626450000000  0.5158230000000 1.0
C      1  0.5119040000000  0.4827940000000  0.5633660000000 1.0
C      1  0.5104000000000  0.4351530000000  0.4830550000000 1.0
C      1  0.5086440000000  0.5147850000000  0.4372440000000 1.0
C      1  0.4508160000000  0.4867400000000  0.4836960000000 1.0
C      1  0.4506970000000  0.5165200000000  0.4867600000000 1.0
C      1  0.4530680000000  0.5132370000000  0.5168820000000 1.0
C      1  0.4529780000000  0.4826870000000  0.5134170000000 1.0
C      1  0.4472560000000  0.4320750000000  0.4996830000000 1.0
C      1  0.4439700000000  0.5016740000000  0.4319520000000 1.0
C      1  0.4431830000000  0.5689950000000  0.5014280000000 1.0
C      1  0.4449130000000  0.4980950000000  0.5659170000000 1.0
C      1  0.5364650000000  0.5175750000000  0.5844270000000 1.0
C      1  0.5426980000000  0.4129350000000  0.5219070000000 1.0
C      1  0.5315140000000  0.4727410000000  0.4178640000000 1.0
C      1  0.5397230000000  0.5798320000000  0.4750650000000 1.0
C      1  0.4704720000000  0.4631270000000  0.5790790000000 1.0
C      1  0.4710980000000  0.4200770000000  0.4607650000000 1.0
C      1  0.4682100000000  0.5376610000000  0.4208480000000 1.0
C      1  0.4708240000000  0.5806250000000  0.5389790000000 1.0
C      1  0.4834550000000  0.5775670000000  0.4398000000000 1.0
C      1  0.4720110000000  0.5579190000000  0.5780810000000 1.0
C      1  0.4832480000000  0.4224510000000  0.5573700000000 1.0
C      1  0.4814670000000  0.4449010000000  0.4202420000000 1.0
C      1  0.4420390000000  0.5276640000000  0.4215330000000 1.0
C      1  0.4448290000000  0.5836080000000  0.5278050000000 1.0
C      1  0.4442150000000  0.4736730000000  0.5791840000000 1.0
C      1  0.4448210000000  0.4192800000000  0.4737970000000 1.0
C      1  0.5748730000000  0.4759910000000  0.4465090000000 1.0
C      1  0.5776140000000  0.5457600000000  0.4788380000000 1.0
C      1  0.5781980000000  0.5330670000000  0.5554450000000 1.0
C      1  0.5801690000000  0.4485170000000  0.5262230000000 1.0
C      1  0.5053160000000  0.4415280000000  0.5880980000000 1.0
C      1  0.5080530000000  0.4190980000000  0.4387920000000 1.0
C      1  0.5136040000000  0.5586330000000  0.4165980000000 1.0
C      1  0.5072120000000  0.5769050000000  0.5609720000000 1.0
C      1  0.4825510000000  0.5184680000000  0.5855500000000 1.0
C      1  0.4855550000000  0.4142460000000  0.5157230000000 1.0
C      1  0.4829150000000  0.4861770000000  0.4130540000000 1.0
C      1  0.4869030000000  0.5838890000000  0.4842830000000 1.0
C      1  0.4667400000000  0.5826770000000  0.4632170000000 1.0
C      1  0.4583660000000  0.5353110000000  0.5826470000000 1.0
C      1  0.4648110000000  0.4154810000000  0.5359590000000 1.0
C      1  0.4627220000000  0.4649820000000  0.4142420000000 1.0
C      1  0.4130280000000  0.4594900000000  0.5230690000000 1.0
C      1  0.4121460000000  0.4765700000000  0.4610380000000 1.0
C      1  0.4138550000000  0.5405480000000  0.4776260000000 1.0
C      1  0.4128940000000  0.5257010000000  0.5436310000000 1.0
C      1  0.5154770000000  0.5915400000000  0.4883130000000 1.0
C      1  0.5097710000000  0.5278390000000  0.5893150000000 1.0
C      1  0.5137310000000  0.4082140000000  0.5200540000000 1.0
C      1  0.5110760000000  0.4888490000000  0.4053050000000 1.0
C      1  0.5404620000000  0.5789660000000  0.5360620000000 1.0
C      1  0.5475190000000  0.4608630000000  0.5755250000000 1.0
C      1  0.5481270000000  0.4220240000000  0.4618100000000 1.0
C      1  0.5370380000000  0.5370020000000  0.4185990000000 1.0
C      1  0.5191100000000  0.5899810000000  0.5173130000000 1.0
C      1  0.5206340000000  0.4668530000000  0.5854770000000 1.0
C      1  0.5201800000000  0.4144930000000  0.4655190000000 1.0
C      1  0.5170930000000  0.5178360000000  0.4087520000000 1.0
C      1  0.4789440000000  0.4190330000000  0.4327640000000 1.0
C      1  0.4832740000000  0.5615290000000  0.4149300000000 1.0
C      1  0.4800090000000  0.5833540000000  0.5672520000000 1.0
C      1  0.4767810000000  0.4351800000000  0.5834300000000 1.0
C      1  0.4946830000000  0.4893330000000  0.4832180000000 1.0
C      1  0.4945460000000  0.5158460000000  0.4890180000000 1.0
C      1  0.4997790000000  0.5124970000000  0.5175160000000 1.0
C      1  0.4994620000000  0.4829000000000  0.5116770000000 1.0
C      1  0.5679230000000  0.4809530000000  0.5685270000000 1.0
C      1  0.5685590000000  0.4314340000000  0.4810410000000 1.0
C      1  0.5561900000000  0.5188510000000  0.4331180000000 1.0
C      1  0.5634560000000  0.5710710000000  0.5187690000000 1.0
C      1  0.5190230000000  0.4456250000000  0.4257160000000 1.0
C      1  0.5134320000000  0.5737700000000  0.4409400000000 1.0
C      1  0.5190600000000  0.5538190000000  0.5707790000000 1.0
C      1  0.5126070000000  0.4272260000000  0.5632560000000 1.0
C      1  0.4744020000000  0.5328590000000  0.4773820000000 1.0
C      1  0.4768210000000  0.5224480000000  0.5332320000000 1.0
C      1  0.4767840000000  0.4680560000000  0.5231210000000 1.0
C      1  0.4742660000000  0.4769230000000  0.4671680000000 1.0
C      1  0.5544640000000  0.4883740000000  0.4286590000000 1.0
C      1  0.5624670000000  0.5689320000000  0.4892970000000 1.0
C      1  0.5658350000000  0.5123330000000  0.5719390000000 1.0
C      1  0.5662960000000  0.4285720000000  0.5113040000000 1.0
C      1  0.5746460000000  0.5263590000000  0.4548830000000 1.0
C      1  0.5795490000000  0.5501130000000  0.5306010000000 1.0
C      1  0.5777530000000  0.4653600000000  0.5478050000000 1.0
C      1  0.5744560000000  0.4537210000000  0.4644330000000 1.0
C      1  0.4275520000000  0.5374980000000  0.4405510000000 1.0
C      1  0.4279710000000  0.5603930000000  0.5269990000000 1.0
C      1  0.4277200000000  0.4664780000000  0.5594630000000 1.0
C      1  0.4277040000000  0.4401450000000  0.4661180000000 1.0
END
