TITL C-2441167-4473-124 0.113064458409211 125000 -21350.5033166023 0 0 162 (C1) n - 1
REM
REM in /home/bkarasulu/work/CARBON/AIRSS/Generating-Clusters/ReaxFF-fromJPCA2015/Units_Real/with-SteepDescent/Higher-Symm
REM
REM
REM
REM
REM
REM ./C.cell (1df0a924f5614ab8850e4351716899ee)
REM
REM compiler GCC version 9.2.1 20190827 (Red Hat 9.2.1-1)
REM options -cpp -mtune=generic -march=x86-64 -g -O0 -fpre-include=/usr/include/finclude/math-vector-fortran.h
REM seed 659708949 -757372765 -1734606577 475671211 707236570 -159089302 -1566731627 543808827 -1920860969 -1080168317 1095664694 -313229113 1616420984 -217869167 784176646 -1933848160 378029237 -732709835 -1983119961 -298737931 -23195414 -1600947838 -871264293 -1237445602 1723005256 -475455705 -1198175262 -530105695 632387910 -685063089 2081172845 -20907667 -1773347988
REM
CELL 1.54180   50.00000   50.00000   50.00000   90.00000   90.00000   90.00000
LATT -1
SFAC C  
C      1  0.3973250000000  0.4779700000000  0.5311020000000 1.0
C      1  0.4882800000000  0.3954580000000  0.5314950000000 1.0
C      1  0.5950350000000  0.4552680000000  0.5325300000000 1.0
C      1  0.5698570000000  0.5773400000000  0.5324140000000 1.0
C      1  0.4487650000000  0.5911780000000  0.5327080000000 1.0
C      1  0.5115550000000  0.4577510000000  0.4183690000000 1.0
C      1  0.5269570000000  0.4996660000000  0.4159360000000 1.0
C      1  0.5138210000000  0.5432640000000  0.4187650000000 1.0
C      1  0.4764490000000  0.5190360000000  0.4085700000000 1.0
C      1  0.4748480000000  0.4781210000000  0.4147580000000 1.0
C      1  0.6073040000000  0.4928870000000  0.4810910000000 1.0
C      1  0.5396280000000  0.5957950000000  0.4829680000000 1.0
C      1  0.4224860000000  0.5666830000000  0.4768690000000 1.0
C      1  0.4122080000000  0.4444270000000  0.4834010000000 1.0
C      1  0.5281110000000  0.3978650000000  0.4795210000000 1.0
C      1  0.5382890000000  0.4852550000000  0.4651170000000 1.0
C      1  0.5265010000000  0.5337300000000  0.4658020000000 1.0
C      1  0.4764730000000  0.5383110000000  0.4697860000000 1.0
C      1  0.4656360000000  0.4953570000000  0.4601610000000 1.0
C      1  0.4989920000000  0.4597780000000  0.4665740000000 1.0
C      1  0.4745770000000  0.6001990000000  0.5278710000000 1.0
C      1  0.3988630000000  0.5052560000000  0.5270230000000 1.0
C      1  0.4626940000000  0.4050030000000  0.5270380000000 1.0
C      1  0.5770730000000  0.4346310000000  0.5280890000000 1.0
C      1  0.5856930000000  0.5556290000000  0.5277150000000 1.0
C      1  0.5376810000000  0.5706530000000  0.5563470000000 1.0
C      1  0.4448320000000  0.5586220000000  0.5567820000000 1.0
C      1  0.4276480000000  0.4653400000000  0.5557830000000 1.0
C      1  0.5102110000000  0.4206280000000  0.5553400000000 1.0
C      1  0.5788750000000  0.4846410000000  0.5558740000000 1.0
C      1  0.5639550000000  0.5349180000000  0.4251730000000 1.0
C      1  0.4708510000000  0.5662750000000  0.4279470000000 1.0
C      1  0.4292740000000  0.5101170000000  0.4266980000000 1.0
C      1  0.4688310000000  0.4314300000000  0.4273470000000 1.0
C      1  0.5563010000000  0.4547160000000  0.4251280000000 1.0
C      1  0.5090020000000  0.4769050000000  0.6006270000000 1.0
C      1  0.5260270000000  0.5006410000000  0.6012710000000 1.0
C      1  0.5077250000000  0.5235440000000  0.6005320000000 1.0
C      1  0.4799770000000  0.5137110000000  0.5998480000000 1.0
C      1  0.4810150000000  0.4849040000000  0.5994480000000 1.0
C      1  0.4607080000000  0.4703130000000  0.5806060000000 1.0
C      1  0.5162380000000  0.4529070000000  0.5821570000000 1.0
C      1  0.5522700000000  0.5005780000000  0.5838520000000 1.0
C      1  0.5145160000000  0.5466190000000  0.5814230000000 1.0
C      1  0.4597830000000  0.5279450000000  0.5813140000000 1.0
C      1  0.5752750000000  0.5483850000000  0.4492150000000 1.0
C      1  0.4826100000000  0.5884140000000  0.4448890000000 1.0
C      1  0.4106660000000  0.5044980000000  0.4513110000000 1.0
C      1  0.4699170000000  0.4117520000000  0.4492400000000 1.0
C      1  0.5735030000000  0.4487090000000  0.4495270000000 1.0
C      1  0.4462140000000  0.5085190000000  0.4772040000000 1.0
C      1  0.4758190000000  0.4490390000000  0.4795770000000 1.0
C      1  0.5423350000000  0.4586910000000  0.4771030000000 1.0
C      1  0.5518350000000  0.5269620000000  0.4769350000000 1.0
C      1  0.4911790000000  0.5573290000000  0.4815420000000 1.0
C      1  0.4648480000000  0.4730890000000  0.4886760000000 1.0
C      1  0.5173820000000  0.4569890000000  0.4894590000000 1.0
C      1  0.5461120000000  0.5018000000000  0.4884250000000 1.0
C      1  0.5140520000000  0.5449750000000  0.4891250000000 1.0
C      1  0.4609880000000  0.5277380000000  0.4900820000000 1.0
C      1  0.4290540000000  0.4967510000000  0.4957480000000 1.0
C      1  0.4830070000000  0.4306500000000  0.4989090000000 1.0
C      1  0.5612510000000  0.4607110000000  0.4970060000000 1.0
C      1  0.5566610000000  0.5449500000000  0.4981280000000 1.0
C      1  0.4759730000000  0.5688350000000  0.5022190000000 1.0
C      1  0.5815840000000  0.5296710000000  0.5410330000000 1.0
C      1  0.4972990000000  0.5854240000000  0.5401620000000 1.0
C      1  0.4173530000000  0.5234750000000  0.5403980000000 1.0
C      1  0.4524260000000  0.4281920000000  0.5413940000000 1.0
C      1  0.5518600000000  0.4328140000000  0.5416790000000 1.0
C      1  0.4603850000000  0.4768170000000  0.4396480000000 1.0
C      1  0.5079850000000  0.4600600000000  0.4431680000000 1.0
C      1  0.5332100000000  0.4954220000000  0.4424910000000 1.0
C      1  0.5093060000000  0.5286250000000  0.4440910000000 1.0
C      1  0.4830020000000  0.5190730000000  0.4512800000000 1.0
C      1  0.4918200000000  0.4339520000000  0.5741200000000 1.0
C      1  0.5603910000000  0.4715830000000  0.5748120000000 1.0
C      1  0.5452170000000  0.5479140000000  0.5735020000000 1.0
C      1  0.4691070000000  0.5573500000000  0.5734410000000 1.0
C      1  0.4346680000000  0.4879470000000  0.5728720000000 1.0
C      1  0.4323810000000  0.4267840000000  0.4908480000000 1.0
C      1  0.5494270000000  0.4131160000000  0.4897630000000 1.0
C      1  0.5985070000000  0.5168780000000  0.4925800000000 1.0
C      1  0.5132110000000  0.6003420000000  0.4897910000000 1.0
C      1  0.4126750000000  0.5434040000000  0.4913920000000 1.0
C      1  0.4405350000000  0.5887440000000  0.4817700000000 1.0
C      1  0.3994800000000  0.4682600000000  0.4791800000000 1.0
C      1  0.5005180000000  0.3949200000000  0.4790680000000 1.0
C      1  0.6020760000000  0.4659200000000  0.4811240000000 1.0
C      1  0.5638010000000  0.5836340000000  0.4787590000000 1.0
C      1  0.4744100000000  0.5120500000000  0.5603110000000 1.0
C      1  0.4768750000000  0.4824510000000  0.5599840000000 1.0
C      1  0.5052720000000  0.4760300000000  0.5603790000000 1.0
C      1  0.5355610000000  0.5034930000000  0.5601580000000 1.0
C      1  0.5018340000000  0.5243450000000  0.5600920000000 1.0
C      1  0.4671790000000  0.5963670000000  0.4936560000000 1.0
C      1  0.3985980000000  0.4980140000000  0.4946820000000 1.0
C      1  0.4718420000000  0.4036330000000  0.4943010000000 1.0
C      1  0.5845290000000  0.4428400000000  0.4945760000000 1.0
C      1  0.5809830000000  0.5614970000000  0.4952490000000 1.0
C      1  0.5682200000000  0.4286800000000  0.4734380000000 1.0
C      1  0.5894130000000  0.5403610000000  0.4750990000000 1.0
C      1  0.4892360000000  0.5987480000000  0.4726660000000 1.0
C      1  0.4027180000000  0.5206400000000  0.4752960000000 1.0
C      1  0.4519690000000  0.4127180000000  0.4737240000000 1.0
C      1  0.5250790000000  0.5027100000000  0.5092970000000 1.0
C      1  0.5056080000000  0.5234120000000  0.5093720000000 1.0
C      1  0.4790510000000  0.5123850000000  0.5095380000000 1.0
C      1  0.4821060000000  0.4836450000000  0.5094500000000 1.0
C      1  0.5107490000000  0.4778920000000  0.5092470000000 1.0
C      1  0.5402650000000  0.4325880000000  0.4325310000000 1.0
C      1  0.5759080000000  0.5109390000000  0.4320770000000 1.0
C      1  0.5075920000000  0.5834200000000  0.4356880000000 1.0
C      1  0.4324120000000  0.5342730000000  0.4342670000000 1.0
C      1  0.4442470000000  0.4362640000000  0.4383970000000 1.0
C      1  0.4947530000000  0.5668730000000  0.5655180000000 1.0
C      1  0.4330160000000  0.5151880000000  0.5651560000000 1.0
C      1  0.4656100000000  0.4414530000000  0.5662630000000 1.0
C      1  0.5434310000000  0.4498510000000  0.5671810000000 1.0
C      1  0.5644640000000  0.5279180000000  0.5660100000000 1.0
C      1  0.4443040000000  0.4726420000000  0.5325530000000 1.0
C      1  0.5061860000000  0.4393540000000  0.5331410000000 1.0
C      1  0.5616220000000  0.4875040000000  0.5322830000000 1.0
C      1  0.5295910000000  0.5540810000000  0.5338490000000 1.0
C      1  0.4567860000000  0.5440860000000  0.5343680000000 1.0
C      1  0.5458320000000  0.5909250000000  0.5365420000000 1.0
C      1  0.4285020000000  0.5725860000000  0.5364730000000 1.0
C      1  0.4095330000000  0.4529470000000  0.5360360000000 1.0
C      1  0.5157840000000  0.3993540000000  0.5357800000000 1.0
C      1  0.6007170000000  0.4827570000000  0.5362680000000 1.0
C      1  0.4438400000000  0.5593080000000  0.4363780000000 1.0
C      1  0.4368130000000  0.4625430000000  0.4412850000000 1.0
C      1  0.5221750000000  0.4185500000000  0.4446420000000 1.0
C      1  0.5789820000000  0.4870760000000  0.4366990000000 1.0
C      1  0.5310880000000  0.5769570000000  0.4403980000000 1.0
C      1  0.4309720000000  0.4353260000000  0.5218790000000 1.0
C      1  0.5390230000000  0.4152110000000  0.5213880000000 1.0
C      1  0.5937450000000  0.5093040000000  0.5222220000000 1.0
C      1  0.5192170000000  0.5926260000000  0.5214360000000 1.0
C      1  0.4189000000000  0.5469650000000  0.5209820000000 1.0
C      1  0.4459090000000  0.5694370000000  0.4631280000000 1.0
C      1  0.4151150000000  0.4761960000000  0.4566210000000 1.0
C      1  0.4974540000000  0.4139880000000  0.4577730000000 1.0
C      1  0.5814100000000  0.4710970000000  0.4596050000000 1.0
C      1  0.5558310000000  0.5699510000000  0.4541520000000 1.0
C      1  0.4700830000000  0.4741500000000  0.5339970000000 1.0
C      1  0.5141630000000  0.4646800000000  0.5348990000000 1.0
C      1  0.5411860000000  0.5035070000000  0.5334130000000 1.0
C      1  0.5094910000000  0.5365360000000  0.5348090000000 1.0
C      1  0.4658310000000  0.5194710000000  0.5343850000000 1.0
C      1  0.5376150000000  0.5282230000000  0.4129340000000 1.0
C      1  0.4854860000000  0.5469890000000  0.4122840000000 1.0
C      1  0.4533370000000  0.5012950000000  0.4091550000000 1.0
C      1  0.4847750000000  0.4502800000000  0.4114670000000 1.0
C      1  0.5366000000000  0.4718520000000  0.4104440000000 1.0
C      1  0.5339420000000  0.5591420000000  0.5061480000000 1.0
C      1  0.4540490000000  0.5505800000000  0.5070750000000 1.0
C      1  0.4390510000000  0.4710170000000  0.5038590000000 1.0
C      1  0.5106450000000  0.4326590000000  0.5056890000000 1.0
C      1  0.5671270000000  0.4865600000000  0.5042060000000 1.0
C      1  0.4955300000000  0.4990710000000  0.4104130000000 1.0
C      1  0.5126190000000  0.5008320000000  0.5644680000000 1.0
END
