TITL C-2441154-10-621 0.011340371445543 125000 -6359.49310161625 0 0 48 (C1) n - 1
REM
REM in /home/bkarasulu/work/CARBON/AIRSS/Generating-Clusters/ReaxFF-fromJPCA2015/Units_Real/with-SteepDescent/Higher-Symm
REM
REM
REM
REM
REM
REM ./C.cell (1df0a924f5614ab8850e4351716899ee)
REM
REM compiler GCC version 9.2.1 20190827 (Red Hat 9.2.1-1)
REM options -cpp -mtune=generic -march=x86-64 -g -O0 -fpre-include=/usr/include/finclude/math-vector-fortran.h
REM seed -527387252 -1213654473 -1901257436 1387451903 -1320027793 -1851394748 -789653795 1362825201 1827463680 1879510400 478862434 485336123 208112443 -1222027661 793336656 -250649039 157862024 -815550404 -683937872 -704094591 -1680255145 -1896532862 -1607519370 386299391 811024578 -1337338734 -1873900253 -875356009 1446445678 1110536805 -1768936946 80139301 1929243456
REM
CELL 1.54180   50.00000   50.00000   50.00000   90.00000   90.00000   90.00000
LATT -1
SFAC C  
C      1  0.5000280000000  0.4854040000000  0.5683200000000 1.0
C      1  0.4345060000000  0.4856160000000  0.5199600000000 1.0
C      1  0.4623680000000  0.4854120000000  0.4448720000000 1.0
C      1  0.5420550000000  0.4857850000000  0.4471530000000 1.0
C      1  0.5651920000000  0.4850730000000  0.5228740000000 1.0
C      1  0.5028450000000  0.5149280000000  0.5701880000000 1.0
C      1  0.5676720000000  0.5146200000000  0.5206270000000 1.0
C      1  0.5399800000000  0.5148640000000  0.4445730000000 1.0
C      1  0.4578190000000  0.5147480000000  0.4444250000000 1.0
C      1  0.4351010000000  0.5149980000000  0.5231170000000 1.0
C      1  0.4877750000000  0.5158780000000  0.4717940000000 1.0
C      1  0.5212360000000  0.5172610000000  0.4813350000000 1.0
C      1  0.5306360000000  0.5132440000000  0.5072730000000 1.0
C      1  0.4994300000000  0.5090650000000  0.5312890000000 1.0
C      1  0.4700820000000  0.5136400000000  0.5069290000000 1.0
C      1  0.5124370000000  0.4828550000000  0.4772310000000 1.0
C      1  0.4807940000000  0.4857590000000  0.4823830000000 1.0
C      1  0.4728920000000  0.4865840000000  0.5106260000000 1.0
C      1  0.5083570000000  0.4787540000000  0.5275850000000 1.0
C      1  0.5287180000000  0.4842510000000  0.5028810000000 1.0
C      1  0.4459670000000  0.5272980000000  0.4980820000000 1.0
C      1  0.4856440000000  0.5281640000000  0.4462320000000 1.0
C      1  0.5470400000000  0.5273320000000  0.4705720000000 1.0
C      1  0.5421510000000  0.5257540000000  0.5313650000000 1.0
C      1  0.4831130000000  0.5243380000000  0.5499060000000 1.0
C      1  0.5562740000000  0.4719930000000  0.4982730000000 1.0
C      1  0.5155920000000  0.4729290000000  0.4498020000000 1.0
C      1  0.4554540000000  0.4730030000000  0.4703990000000 1.0
C      1  0.4586170000000  0.4733320000000  0.5326560000000 1.0
C      1  0.5216550000000  0.4716830000000  0.5537940000000 1.0
C      1  0.4333610000000  0.4776200000000  0.4905490000000 1.0
C      1  0.4893150000000  0.4777420000000  0.4343440000000 1.0
C      1  0.5610880000000  0.4776170000000  0.4688320000000 1.0
C      1  0.5509470000000  0.4777590000000  0.5484250000000 1.0
C      1  0.4722560000000  0.4779530000000  0.5605090000000 1.0
C      1  0.5693860000000  0.5224110000000  0.4914640000000 1.0
C      1  0.5139790000000  0.5223390000000  0.4325360000000 1.0
C      1  0.4407200000000  0.5223840000000  0.4676390000000 1.0
C      1  0.4518250000000  0.5215370000000  0.5466800000000 1.0
C      1  0.5301800000000  0.5224860000000  0.5598690000000 1.0
C      1  0.5018350000000  0.4995430000000  0.4216790000000 1.0
C      1  0.5767760000000  0.4997620000000  0.4766280000000 1.0
C      1  0.5477640000000  0.5010400000000  0.5639840000000 1.0
C      1  0.4540820000000  0.4992840000000  0.5638090000000 1.0
C      1  0.4254170000000  0.5001960000000  0.4756520000000 1.0
C      1  0.5010730000000  0.5496780000000  0.5009700000000 1.0
C      1  0.4999290000000  0.4546080000000  0.5092630000000 1.0
C      1  0.4936300000000  0.5247060000000  0.5091290000000 1.0
END
