TITL C-2441165-58-1371 0.00180394715548903 125000 -4994.87066112199 0 0 35 (C1) n - 1
REM
REM in /home/bkarasulu/work/CARBON/AIRSS/Generating-Clusters/ReaxFF-fromJPCA2015/Units_Real/with-SteepDescent/Higher-Symm
REM
REM
REM
REM
REM
REM ./C.cell (1df0a924f5614ab8850e4351716899ee)
REM
REM compiler GCC version 9.2.1 20190827 (Red Hat 9.2.1-1)
REM options -cpp -mtune=generic -march=x86-64 -g -O0 -fpre-include=/usr/include/finclude/math-vector-fortran.h
REM seed 1567312507 -1733390482 493832371 -681731489 1509843089 1792246182 78121720 1952983760 -460627646 1556728514 168305543 504616823 -962854734 251379603 807094696 303108351 148247626 -1641889452 1855846085 1501950045 1196692816 -1955703340 1945287434 1466307240 1869490744 -1987650877 -855009258 -963494299 1513321391 -1143349342 2024383300 39087652 -100016561
REM
CELL 1.54180   50.00000   50.00000   50.00000   90.00000   90.00000   90.00000
LATT -1
SFAC C  
C      1  0.5252930000000  0.4590470000000  0.5223330000000 1.0
C      1  0.4734050000000  0.5400100000000  0.5221550000000 1.0
C      1  0.5213790000000  0.5337030000000  0.4690650000000 1.0
C      1  0.4771500000000  0.4678560000000  0.4698640000000 1.0
C      1  0.5264650000000  0.4762750000000  0.4711150000000 1.0
C      1  0.4726620000000  0.5242510000000  0.4715160000000 1.0
C      1  0.5236160000000  0.5125480000000  0.5331130000000 1.0
C      1  0.4740010000000  0.4870090000000  0.5332430000000 1.0
C      1  0.4284400000000  0.5036170000000  0.4831780000000 1.0
C      1  0.5694240000000  0.4973800000000  0.4835240000000 1.0
C      1  0.4318640000000  0.4918670000000  0.5117470000000 1.0
C      1  0.5654250000000  0.5096770000000  0.5116710000000 1.0
C      1  0.5494810000000  0.5357450000000  0.5115940000000 1.0
C      1  0.4481620000000  0.4649190000000  0.5126150000000 1.0
C      1  0.5531790000000  0.4717480000000  0.4818410000000 1.0
C      1  0.4456260000000  0.5287270000000  0.4816360000000 1.0
C      1  0.5035490000000  0.4589270000000  0.4796250000000 1.0
C      1  0.4952840000000  0.5420190000000  0.4799320000000 1.0
C      1  0.5228070000000  0.5391960000000  0.5237230000000 1.0
C      1  0.4754920000000  0.4609000000000  0.5235930000000 1.0
C      1  0.5467390000000  0.5427530000000  0.4826930000000 1.0
C      1  0.4520330000000  0.4579730000000  0.4838220000000 1.0
C      1  0.5520330000000  0.4595970000000  0.5090800000000 1.0
C      1  0.4468160000000  0.5412920000000  0.5084990000000 1.0
C      1  0.5226150000000  0.5050320000000  0.4771590000000 1.0
C      1  0.4805660000000  0.4963660000000  0.4765710000000 1.0
C      1  0.5167560000000  0.4874540000000  0.5226210000000 1.0
C      1  0.4831420000000  0.5124830000000  0.5262770000000 1.0
C      1  0.4370070000000  0.5180600000000  0.5211420000000 1.0
C      1  0.5591370000000  0.4838700000000  0.5215700000000 1.0
C      1  0.4374320000000  0.4790320000000  0.4725520000000 1.0
C      1  0.5603420000000  0.5210410000000  0.4704860000000 1.0
C      1  0.5007260000000  0.4519070000000  0.5080380000000 1.0
C      1  0.4977900000000  0.5486460000000  0.5083150000000 1.0
C      1  0.5014010000000  0.4998090000000  0.4982620000000 1.0
END
