TITL C-2441161-5029-258 0.0708733911553243 125000 -20111.2628202827 0 0 147 (C1) n - 1
REM
REM in /home/bkarasulu/work/CARBON/AIRSS/Generating-Clusters/ReaxFF-fromJPCA2015/Units_Real/with-SteepDescent/Higher-Symm
REM
REM
REM
REM
REM
REM ./C.cell (1df0a924f5614ab8850e4351716899ee)
REM
REM compiler GCC version 9.2.1 20190827 (Red Hat 9.2.1-1)
REM options -cpp -mtune=generic -march=x86-64 -g -O0 -fpre-include=/usr/include/finclude/math-vector-fortran.h
REM seed -766407520 -217920003 407614310 -1249823078 -1947456164 298232679 963252790 974078406 -1303849841 573668632 219961980 1612700016 -233174680 -724772291 1687709144 1836872275 -1314550098 1097005610 2068625543 1087015899 573684870 -207280324 1787005861 1106502397 -311449358 -92961543 -1799739679 795429261 -1020989068 948605902 -1285427785 1448381068 -1400346947
REM
CELL 1.54180   50.00000   50.00000   50.00000   90.00000   90.00000   90.00000
LATT -1
SFAC C  
C      1  0.5567730000000  0.5291950000000  0.5119840000000 1.0
C      1  0.5472460000000  0.5273620000000  0.4845020000000 1.0
C      1  0.5578870000000  0.5068440000000  0.4698930000000 1.0
C      1  0.5508970000000  0.4800950000000  0.4740570000000 1.0
C      1  0.5511740000000  0.4706400000000  0.5024970000000 1.0
C      1  0.5566450000000  0.4828690000000  0.5283260000000 1.0
C      1  0.5474810000000  0.5089630000000  0.5306730000000 1.0
C      1  0.4159040000000  0.4783330000000  0.4484530000000 1.0
C      1  0.4259140000000  0.4505230000000  0.4785970000000 1.0
C      1  0.4169930000000  0.4448650000000  0.5306880000000 1.0
C      1  0.4163860000000  0.4916200000000  0.5609330000000 1.0
C      1  0.4200680000000  0.5411740000000  0.5393390000000 1.0
C      1  0.4245130000000  0.5584430000000  0.4972520000000 1.0
C      1  0.4236040000000  0.5355930000000  0.4535810000000 1.0
C      1  0.4460950000000  0.5029200000000  0.4168060000000 1.0
C      1  0.4461830000000  0.4327470000000  0.4427360000000 1.0
C      1  0.4432250000000  0.4160390000000  0.5147440000000 1.0
C      1  0.4431950000000  0.4569850000000  0.5759410000000 1.0
C      1  0.4448570000000  0.5337400000000  0.5797950000000 1.0
C      1  0.4468950000000  0.5846320000000  0.5189400000000 1.0
C      1  0.4478490000000  0.5677830000000  0.4454570000000 1.0
C      1  0.5354750000000  0.4113980000000  0.4873180000000 1.0
C      1  0.5384490000000  0.4342230000000  0.5585180000000 1.0
C      1  0.5429440000000  0.5069000000000  0.5853250000000 1.0
C      1  0.5384160000000  0.5721380000000  0.5503580000000 1.0
C      1  0.5344630000000  0.5806830000000  0.4786800000000 1.0
C      1  0.5402970000000  0.5324050000000  0.4187710000000 1.0
C      1  0.5403310000000  0.4577280000000  0.4260090000000 1.0
C      1  0.4936960000000  0.4960420000000  0.5905250000000 1.0
C      1  0.4883100000000  0.5718630000000  0.5639380000000 1.0
C      1  0.4875400000000  0.5811100000000  0.4880060000000 1.0
C      1  0.4887460000000  0.5413530000000  0.4235340000000 1.0
C      1  0.4933520000000  0.4625540000000  0.4120580000000 1.0
C      1  0.4859480000000  0.4186240000000  0.4759840000000 1.0
C      1  0.4929050000000  0.4209380000000  0.5584430000000 1.0
C      1  0.4347760000000  0.4243840000000  0.4874900000000 1.0
C      1  0.4310050000000  0.4419860000000  0.5558260000000 1.0
C      1  0.4279290000000  0.5088470000000  0.5793280000000 1.0
C      1  0.4359460000000  0.5644800000000  0.5410910000000 1.0
C      1  0.4375960000000  0.5689540000000  0.4751360000000 1.0
C      1  0.4378020000000  0.5288350000000  0.4301990000000 1.0
C      1  0.4307360000000  0.4579170000000  0.4351160000000 1.0
C      1  0.4557240000000  0.5258710000000  0.4822580000000 1.0
C      1  0.4546120000000  0.5008600000000  0.4678430000000 1.0
C      1  0.4502220000000  0.4733220000000  0.4770150000000 1.0
C      1  0.4575500000000  0.4651550000000  0.5089740000000 1.0
C      1  0.4611960000000  0.4834570000000  0.5304150000000 1.0
C      1  0.4557830000000  0.5110530000000  0.5306820000000 1.0
C      1  0.4579200000000  0.5305300000000  0.5100970000000 1.0
C      1  0.4081250000000  0.5231780000000  0.4725760000000 1.0
C      1  0.4043090000000  0.4922530000000  0.4694990000000 1.0
C      1  0.4061010000000  0.4691220000000  0.4889030000000 1.0
C      1  0.4066840000000  0.4696560000000  0.5184700000000 1.0
C      1  0.4073230000000  0.4933420000000  0.5340720000000 1.0
C      1  0.4049960000000  0.5220040000000  0.5265110000000 1.0
C      1  0.4065200000000  0.5372050000000  0.4994560000000 1.0
C      1  0.5151980000000  0.5497210000000  0.4148970000000 1.0
C      1  0.5212890000000  0.4613870000000  0.4041950000000 1.0
C      1  0.5114960000000  0.4050560000000  0.4707060000000 1.0
C      1  0.5198730000000  0.4138230000000  0.5578810000000 1.0
C      1  0.5211460000000  0.4931770000000  0.5998980000000 1.0
C      1  0.5170280000000  0.5761610000000  0.5696780000000 1.0
C      1  0.5124030000000  0.5975130000000  0.4864280000000 1.0
C      1  0.5775830000000  0.5100770000000  0.4481480000000 1.0
C      1  0.5779080000000  0.4657600000000  0.4608870000000 1.0
C      1  0.5783910000000  0.4508170000000  0.5035360000000 1.0
C      1  0.5813680000000  0.4730850000000  0.5418840000000 1.0
C      1  0.5811400000000  0.5161720000000  0.5519980000000 1.0
C      1  0.5831150000000  0.5416730000000  0.5179590000000 1.0
C      1  0.5826940000000  0.5445190000000  0.4752040000000 1.0
C      1  0.6021750000000  0.4885610000000  0.5275390000000 1.0
C      1  0.5997510000000  0.5180650000000  0.5310310000000 1.0
C      1  0.6025500000000  0.5426260000000  0.4976050000000 1.0
C      1  0.6074950000000  0.5266650000000  0.4738140000000 1.0
C      1  0.6031660000000  0.5006310000000  0.4613440000000 1.0
C      1  0.6017210000000  0.4751700000000  0.4759640000000 1.0
C      1  0.6015810000000  0.4692340000000  0.5049780000000 1.0
C      1  0.4781630000000  0.5360390000000  0.4682690000000 1.0
C      1  0.4826250000000  0.5095340000000  0.4572300000000 1.0
C      1  0.4791480000000  0.4673280000000  0.4701460000000 1.0
C      1  0.4825330000000  0.4568650000000  0.4967170000000 1.0
C      1  0.4859860000000  0.4709880000000  0.5385510000000 1.0
C      1  0.4778860000000  0.5211120000000  0.5444370000000 1.0
C      1  0.4840430000000  0.5387450000000  0.5218260000000 1.0
C      1  0.4513940000000  0.4758480000000  0.4256520000000 1.0
C      1  0.4562590000000  0.4217500000000  0.4676920000000 1.0
C      1  0.4463760000000  0.4402880000000  0.5307310000000 1.0
C      1  0.4402050000000  0.4839990000000  0.5734860000000 1.0
C      1  0.4511080000000  0.5549430000000  0.5626480000000 1.0
C      1  0.4577950000000  0.5827220000000  0.4922520000000 1.0
C      1  0.4594120000000  0.5485690000000  0.4267990000000 1.0
C      1  0.5614560000000  0.5075180000000  0.4241350000000 1.0
C      1  0.5768240000000  0.4365690000000  0.4583930000000 1.0
C      1  0.5637320000000  0.4282940000000  0.5111200000000 1.0
C      1  0.5772040000000  0.4721510000000  0.5716030000000 1.0
C      1  0.5631670000000  0.5280200000000  0.5700610000000 1.0
C      1  0.5667750000000  0.5723180000000  0.5208570000000 1.0
C      1  0.5746550000000  0.5576050000000  0.4491980000000 1.0
C      1  0.4726600000000  0.5311500000000  0.5894510000000 1.0
C      1  0.4725470000000  0.5921970000000  0.5308430000000 1.0
C      1  0.4732020000000  0.5823650000000  0.4467390000000 1.0
C      1  0.4726040000000  0.5053070000000  0.4061100000000 1.0
C      1  0.4716340000000  0.4316380000000  0.4290190000000 1.0
C      1  0.4712790000000  0.4083710000000  0.5157430000000 1.0
C      1  0.4699380000000  0.4513830000000  0.5811470000000 1.0
C      1  0.5437460000000  0.4340040000000  0.5298950000000 1.0
C      1  0.5486110000000  0.4820600000000  0.5682970000000 1.0
C      1  0.5424620000000  0.5445070000000  0.5581030000000 1.0
C      1  0.5441890000000  0.5681670000000  0.5036160000000 1.0
C      1  0.5469450000000  0.5477670000000  0.4439450000000 1.0
C      1  0.5425530000000  0.4868670000000  0.4299820000000 1.0
C      1  0.5485720000000  0.4321680000000  0.4713400000000 1.0
C      1  0.5178110000000  0.4638770000000  0.5985800000000 1.0
C      1  0.5160000000000  0.5555320000000  0.5898800000000 1.0
C      1  0.5176650000000  0.6054240000000  0.5146230000000 1.0
C      1  0.5202140000000  0.5758870000000  0.4273730000000 1.0
C      1  0.5182060000000  0.4885700000000  0.3927350000000 1.0
C      1  0.5189010000000  0.4110620000000  0.4424340000000 1.0
C      1  0.5169710000000  0.3977910000000  0.5346500000000 1.0
C      1  0.4908950000000  0.4286610000000  0.5034950000000 1.0
C      1  0.4840180000000  0.4484210000000  0.5561960000000 1.0
C      1  0.4913860000000  0.5161200000000  0.5696240000000 1.0
C      1  0.4920600000000  0.5687700000000  0.5344750000000 1.0
C      1  0.4918960000000  0.5619180000000  0.4663630000000 1.0
C      1  0.4913130000000  0.5134130000000  0.4270060000000 1.0
C      1  0.4773710000000  0.4612270000000  0.4364020000000 1.0
C      1  0.5219790000000  0.5306020000000  0.5740790000000 1.0
C      1  0.5225140000000  0.5776200000000  0.5263430000000 1.0
C      1  0.5255310000000  0.5659060000000  0.4564550000000 1.0
C      1  0.5208230000000  0.5052050000000  0.4179250000000 1.0
C      1  0.5351070000000  0.4365050000000  0.4457350000000 1.0
C      1  0.5244060000000  0.4186830000000  0.5139300000000 1.0
C      1  0.5330930000000  0.4579620000000  0.5742470000000 1.0
C      1  0.5220010000000  0.4676140000000  0.5011970000000 1.0
C      1  0.5088270000000  0.4799440000000  0.5232400000000 1.0
C      1  0.5195030000000  0.5065200000000  0.5285010000000 1.0
C      1  0.5083020000000  0.5269490000000  0.5117570000000 1.0
C      1  0.5189940000000  0.5247930000000  0.4852340000000 1.0
C      1  0.5068220000000  0.5022960000000  0.4718200000000 1.0
C      1  0.5194690000000  0.4767590000000  0.4739790000000 1.0
C      1  0.4928070000000  0.5821520000000  0.4265160000000 1.0
C      1  0.4891860000000  0.4850210000000  0.3946360000000 1.0
C      1  0.4919400000000  0.4132110000000  0.4353060000000 1.0
C      1  0.4879480000000  0.4004650000000  0.5376320000000 1.0
C      1  0.4886630000000  0.4678460000000  0.5952170000000 1.0
C      1  0.4868540000000  0.5566290000000  0.5893630000000 1.0
C      1  0.4902540000000  0.6098600000000  0.5178260000000 1.0
END
