TITL C-2441169-1362-39 0.0349917625819719 125000 -12422.1790849767 0 0 90 (C1) n - 1
REM
REM in /home/bkarasulu/work/CARBON/AIRSS/Generating-Clusters/ReaxFF-fromJPCA2015/Units_Real/with-SteepDescent/Higher-Symm
REM
REM
REM
REM
REM
REM ./C.cell (1df0a924f5614ab8850e4351716899ee)
REM
REM compiler GCC version 9.2.1 20190827 (Red Hat 9.2.1-1)
REM options -cpp -mtune=generic -march=x86-64 -g -O0 -fpre-include=/usr/include/finclude/math-vector-fortran.h
REM seed 493400251 -1161061535 1532882619 -566590239 1993542775 -1234441585 -1532905340 -1094621682 -645779317 1862437745 -841259855 -2137966361 852301189 -689532355 -975457404 1057957152 112084838 -1499400033 -1205836039 -2105276933 -476324343 873474551 1645404261 2117842718 1857299290 624178748 389874181 43939545 -1655175872 491613427 -238586775 -1835290508 1646040482
REM
CELL 1.54180   50.00000   50.00000   50.00000   90.00000   90.00000   90.00000
LATT -1
SFAC C  
C      1  0.5084700000000  0.5591160000000  0.5601790000000 1.0
C      1  0.5085470000000  0.4412950000000  0.5607730000000 1.0
C      1  0.4750450000000  0.4726010000000  0.5583630000000 1.0
C      1  0.4771040000000  0.5288370000000  0.5596270000000 1.0
C      1  0.4431310000000  0.5148970000000  0.4371190000000 1.0
C      1  0.4433520000000  0.4847070000000  0.4371930000000 1.0
C      1  0.4423960000000  0.4658760000000  0.4597190000000 1.0
C      1  0.4418130000000  0.5334840000000  0.4596430000000 1.0
C      1  0.4522290000000  0.4210040000000  0.5101770000000 1.0
C      1  0.4506880000000  0.5774190000000  0.5085500000000 1.0
C      1  0.4273830000000  0.4847240000000  0.5347800000000 1.0
C      1  0.4253860000000  0.5141760000000  0.5344300000000 1.0
C      1  0.5031490000000  0.4579590000000  0.4219360000000 1.0
C      1  0.5025720000000  0.5420460000000  0.4221490000000 1.0
C      1  0.5192920000000  0.5813390000000  0.4805990000000 1.0
C      1  0.5170200000000  0.4194080000000  0.4812260000000 1.0
C      1  0.5163660000000  0.5541860000000  0.5109320000000 1.0
C      1  0.5165900000000  0.4461930000000  0.5108650000000 1.0
C      1  0.4979230000000  0.5916770000000  0.4980620000000 1.0
C      1  0.4918720000000  0.4104340000000  0.4929120000000 1.0
C      1  0.5384500000000  0.5246070000000  0.4331980000000 1.0
C      1  0.5388340000000  0.4752810000000  0.4334020000000 1.0
C      1  0.5757440000000  0.5318820000000  0.5046620000000 1.0
C      1  0.5753040000000  0.4677500000000  0.5046120000000 1.0
C      1  0.4920820000000  0.5150410000000  0.4578640000000 1.0
C      1  0.4922380000000  0.4850130000000  0.4576340000000 1.0
C      1  0.4870570000000  0.5563420000000  0.4445390000000 1.0
C      1  0.4870350000000  0.4435890000000  0.4442890000000 1.0
C      1  0.4364430000000  0.4708230000000  0.5110020000000 1.0
C      1  0.4359930000000  0.5286650000000  0.5109340000000 1.0
C      1  0.4906780000000  0.5522550000000  0.5184770000000 1.0
C      1  0.4908750000000  0.4476300000000  0.5183210000000 1.0
C      1  0.4982140000000  0.5377650000000  0.5784770000000 1.0
C      1  0.4964390000000  0.4624010000000  0.5774650000000 1.0
C      1  0.5339900000000  0.4262030000000  0.5243990000000 1.0
C      1  0.5342800000000  0.5738500000000  0.5239830000000 1.0
C      1  0.4970300000000  0.5134530000000  0.5048150000000 1.0
C      1  0.4974230000000  0.4874580000000  0.5047080000000 1.0
C      1  0.4843040000000  0.5690360000000  0.5428850000000 1.0
C      1  0.4850140000000  0.4298960000000  0.5430910000000 1.0
C      1  0.4772640000000  0.5507770000000  0.4938320000000 1.0
C      1  0.4775200000000  0.4506310000000  0.4945370000000 1.0
C      1  0.4615480000000  0.5720620000000  0.4814080000000 1.0
C      1  0.4652040000000  0.4262080000000  0.4820300000000 1.0
C      1  0.4441050000000  0.5531890000000  0.5238170000000 1.0
C      1  0.4443080000000  0.4457430000000  0.5246850000000 1.0
C      1  0.5263370000000  0.5141790000000  0.4572400000000 1.0
C      1  0.5263520000000  0.4857300000000  0.4573700000000 1.0
C      1  0.5643710000000  0.5151110000000  0.5291190000000 1.0
C      1  0.5642360000000  0.4847850000000  0.5291050000000 1.0
C      1  0.5624460000000  0.5557960000000  0.4991390000000 1.0
C      1  0.5617940000000  0.4438710000000  0.4991200000000 1.0
C      1  0.5131780000000  0.5142160000000  0.5490380000000 1.0
C      1  0.5120350000000  0.4859270000000  0.5481870000000 1.0
C      1  0.4776580000000  0.4097930000000  0.5181640000000 1.0
C      1  0.4762080000000  0.5895660000000  0.5174020000000 1.0
C      1  0.4776410000000  0.5230160000000  0.4849610000000 1.0
C      1  0.4776170000000  0.4775870000000  0.4850980000000 1.0
C      1  0.5720200000000  0.5143150000000  0.4817830000000 1.0
C      1  0.5720270000000  0.4854110000000  0.4817510000000 1.0
C      1  0.5276190000000  0.5521570000000  0.4339040000000 1.0
C      1  0.5278650000000  0.4477990000000  0.4341220000000 1.0
C      1  0.5419960000000  0.4846830000000  0.4812310000000 1.0
C      1  0.5420350000000  0.5156800000000  0.4811510000000 1.0
C      1  0.4441790000000  0.5153380000000  0.5578080000000 1.0
C      1  0.4480780000000  0.4871290000000  0.5583150000000 1.0
C      1  0.5335000000000  0.5550730000000  0.5466300000000 1.0
C      1  0.5331680000000  0.4453020000000  0.5467210000000 1.0
C      1  0.4725570000000  0.4855510000000  0.4334330000000 1.0
C      1  0.4724070000000  0.5143090000000  0.4336590000000 1.0
C      1  0.4440160000000  0.5164980000000  0.4844400000000 1.0
C      1  0.4436620000000  0.4831860000000  0.4845950000000 1.0
C      1  0.5441850000000  0.4222770000000  0.4965270000000 1.0
C      1  0.5455290000000  0.5774310000000  0.4963890000000 1.0
C      1  0.5364530000000  0.5268600000000  0.5347280000000 1.0
C      1  0.5360030000000  0.4734670000000  0.5347340000000 1.0
C      1  0.4604670000000  0.4432370000000  0.4563220000000 1.0
C      1  0.4593670000000  0.5567900000000  0.4561920000000 1.0
C      1  0.5123450000000  0.4351130000000  0.4570320000000 1.0
C      1  0.5122620000000  0.5647340000000  0.4568870000000 1.0
C      1  0.5726080000000  0.5143070000000  0.5602560000000 1.0
C      1  0.5726650000000  0.4855910000000  0.5601490000000 1.0
C      1  0.5167770000000  0.4849360000000  0.4169630000000 1.0
C      1  0.5164270000000  0.5150530000000  0.4168340000000 1.0
C      1  0.5237570000000  0.5266540000000  0.5055060000000 1.0
C      1  0.5238380000000  0.4739540000000  0.5052940000000 1.0
C      1  0.5153750000000  0.4851970000000  0.5777850000000 1.0
C      1  0.5166290000000  0.5141300000000  0.5785050000000 1.0
C      1  0.4619140000000  0.4485830000000  0.5485270000000 1.0
C      1  0.4606930000000  0.5507580000000  0.5495820000000 1.0
END
