TITL C-2441154-10-983 0.0273297447844452 125000 -6482.08510442714 0 0 52 (C1) n - 1
REM
REM in /home/bkarasulu/work/CARBON/AIRSS/Generating-Clusters/ReaxFF-fromJPCA2015/Units_Real/with-SteepDescent/Higher-Symm
REM
REM
REM
REM
REM
REM ./C.cell (1df0a924f5614ab8850e4351716899ee)
REM
REM compiler GCC version 9.2.1 20190827 (Red Hat 9.2.1-1)
REM options -cpp -mtune=generic -march=x86-64 -g -O0 -fpre-include=/usr/include/finclude/math-vector-fortran.h
REM seed -1941425351 -1378238711 573322819 516741479 -1153950154 -510615794 -1885977736 1517959139 -547097906 1208584056 933865215 -1584851585 -155297211 -1109049790 -1209445566 272676632 582259117 2095030814 282893868 -987019381 886623217 -1762129995 -1300805206 -676646512 -1375579597 -1360033969 -1593264909 -771730196 -2063445293 1850602368 -137074591 637419095 1650324717
REM
CELL 1.54180   50.00000   50.00000   50.00000   90.00000   90.00000   90.00000
LATT -1
SFAC C  
C      1  0.5561900000000  0.5608960000000  0.5092710000000 1.0
C      1  0.5607800000000  0.4435450000000  0.5093260000000 1.0
C      1  0.4435860000000  0.4388270000000  0.5089490000000 1.0
C      1  0.4390060000000  0.5564680000000  0.5090900000000 1.0
C      1  0.5575910000000  0.5638570000000  0.4845110000000 1.0
C      1  0.5639880000000  0.4410760000000  0.4846650000000 1.0
C      1  0.4411070000000  0.4361340000000  0.4838470000000 1.0
C      1  0.4368060000000  0.5588590000000  0.4837380000000 1.0
C      1  0.4264670000000  0.5088870000000  0.5111460000000 1.0
C      1  0.5093030000000  0.5731940000000  0.5109090000000 1.0
C      1  0.5726480000000  0.4904000000000  0.5107230000000 1.0
C      1  0.4910200000000  0.4266620000000  0.5110240000000 1.0
C      1  0.4251070000000  0.5084600000000  0.4864670000000 1.0
C      1  0.5101830000000  0.5766760000000  0.4851070000000 1.0
C      1  0.5753270000000  0.4895260000000  0.4844690000000 1.0
C      1  0.4909990000000  0.4245690000000  0.4859670000000 1.0
C      1  0.4666190000000  0.5134660000000  0.4565990000000 1.0
C      1  0.5127300000000  0.5316800000000  0.4550020000000 1.0
C      1  0.5317480000000  0.4862480000000  0.4556730000000 1.0
C      1  0.4850510000000  0.4658550000000  0.4561510000000 1.0
C      1  0.4650830000000  0.5103570000000  0.5382410000000 1.0
C      1  0.5102770000000  0.5348700000000  0.5383810000000 1.0
C      1  0.5348600000000  0.4896270000000  0.5382770000000 1.0
C      1  0.4896380000000  0.4650800000000  0.5382400000000 1.0
C      1  0.4705620000000  0.4876790000000  0.4685710000000 1.0
C      1  0.4873580000000  0.5304840000000  0.4683080000000 1.0
C      1  0.5295980000000  0.5122500000000  0.4677320000000 1.0
C      1  0.5114790000000  0.4702000000000  0.4679090000000 1.0
C      1  0.4713320000000  0.4846720000000  0.5258380000000 1.0
C      1  0.4845750000000  0.5287570000000  0.5258470000000 1.0
C      1  0.5285920000000  0.5153000000000  0.5258400000000 1.0
C      1  0.5152340000000  0.4713980000000  0.5256680000000 1.0
C      1  0.4350120000000  0.5373140000000  0.4672680000000 1.0
C      1  0.5359960000000  0.5731510000000  0.4701190000000 1.0
C      1  0.5716960000000  0.4633960000000  0.4698360000000 1.0
C      1  0.4635430000000  0.4328990000000  0.4675450000000 1.0
C      1  0.4399310000000  0.5418940000000  0.5299310000000 1.0
C      1  0.5418190000000  0.5600610000000  0.5304200000000 1.0
C      1  0.5600670000000  0.4580200000000  0.5304680000000 1.0
C      1  0.4581070000000  0.4398780000000  0.5300340000000 1.0
C      1  0.4478410000000  0.5192430000000  0.4772610000000 1.0
C      1  0.5211030000000  0.5504030000000  0.4759580000000 1.0
C      1  0.5509580000000  0.4794250000000  0.4750980000000 1.0
C      1  0.4791300000000  0.4483230000000  0.4785240000000 1.0
C      1  0.4371120000000  0.5164290000000  0.5335360000000 1.0
C      1  0.5163690000000  0.5625590000000  0.5332100000000 1.0
C      1  0.5625370000000  0.4834620000000  0.5330660000000 1.0
C      1  0.4834810000000  0.4372490000000  0.5334630000000 1.0
C      1  0.5100060000000  0.4787730000000  0.4970440000000 1.0
C      1  0.4906770000000  0.5214530000000  0.4975430000000 1.0
C      1  0.5211050000000  0.5096210000000  0.4973790000000 1.0
C      1  0.4786650000000  0.4904910000000  0.4973410000000 1.0
END
