TITL C-2441161-5029-69 0.0158048628499565 125000 -14469.490206459 0 0 103 (C1) n - 1
REM
REM in /home/bkarasulu/work/CARBON/AIRSS/Generating-Clusters/ReaxFF-fromJPCA2015/Units_Real/with-SteepDescent/Higher-Symm
REM
REM
REM
REM
REM
REM ./C.cell (1df0a924f5614ab8850e4351716899ee)
REM
REM compiler GCC version 9.2.1 20190827 (Red Hat 9.2.1-1)
REM options -cpp -mtune=generic -march=x86-64 -g -O0 -fpre-include=/usr/include/finclude/math-vector-fortran.h
REM seed 998394545 -696881329 31211925 1994904806 -1611343655 2062806201 -2042537722 -1496311465 -1913632635 540826663 662620800 1523193504 1814252232 1263899335 -1552288498 -1199993922 1599973372 1165066986 506555646 598516961 -1204355563 -1234342355 -108109067 1286501186 -1567094275 -666421160 -1586604144 1259597086 -1641005289 -1326768867 1025763288 252876242 1108387500
REM
CELL 1.54180   50.00000   50.00000   50.00000   90.00000   90.00000   90.00000
LATT -1
SFAC C  
C      1  0.5138400000000  0.5171410000000  0.4752980000000 1.0
C      1  0.5283320000000  0.4947390000000  0.5225380000000 1.0
C      1  0.4922160000000  0.4740060000000  0.4708130000000 1.0
C      1  0.4867780000000  0.4775820000000  0.5219790000000 1.0
C      1  0.4872920000000  0.5025190000000  0.4758090000000 1.0
C      1  0.4936760000000  0.5242220000000  0.5208170000000 1.0
C      1  0.4250310000000  0.5281430000000  0.5228390000000 1.0
C      1  0.4834510000000  0.5781000000000  0.4782470000000 1.0
C      1  0.5626240000000  0.5501040000000  0.5226930000000 1.0
C      1  0.5761870000000  0.4727110000000  0.4780190000000 1.0
C      1  0.5128850000000  0.4272850000000  0.5208380000000 1.0
C      1  0.4397910000000  0.4523160000000  0.4768900000000 1.0
C      1  0.5543620000000  0.4422300000000  0.5285190000000 1.0
C      1  0.4755020000000  0.4221490000000  0.4728270000000 1.0
C      1  0.4135160000000  0.4775420000000  0.5176520000000 1.0
C      1  0.4364340000000  0.5614770000000  0.4837640000000 1.0
C      1  0.5245060000000  0.5850850000000  0.5184630000000 1.0
C      1  0.5790940000000  0.5214480000000  0.4841450000000 1.0
C      1  0.5396220000000  0.5218740000000  0.4136910000000 1.0
C      1  0.5350060000000  0.4758890000000  0.5904540000000 1.0
C      1  0.4980850000000  0.4638960000000  0.4078110000000 1.0
C      1  0.4581420000000  0.4764370000000  0.5857720000000 1.0
C      1  0.4565470000000  0.5316740000000  0.4188360000000 1.0
C      1  0.4995910000000  0.5457500000000  0.5879980000000 1.0
C      1  0.4322760000000  0.4919200000000  0.4556620000000 1.0
C      1  0.4581070000000  0.5588900000000  0.5472610000000 1.0
C      1  0.5276500000000  0.5650040000000  0.4539450000000 1.0
C      1  0.5732580000000  0.5077600000000  0.5476940000000 1.0
C      1  0.5442800000000  0.4420650000000  0.4572070000000 1.0
C      1  0.4705270000000  0.4361270000000  0.5454340000000 1.0
C      1  0.5295280000000  0.4825800000000  0.5493430000000 1.0
C      1  0.4964410000000  0.4572500000000  0.4480630000000 1.0
C      1  0.4842320000000  0.4916050000000  0.5488920000000 1.0
C      1  0.4802540000000  0.5103390000000  0.4490330000000 1.0
C      1  0.4995180000000  0.5212890000000  0.5495270000000 1.0
C      1  0.5213120000000  0.5105560000000  0.4489590000000 1.0
C      1  0.4988700000000  0.4268510000000  0.5463000000000 1.0
C      1  0.4316930000000  0.4616000000000  0.4498240000000 1.0
C      1  0.4336840000000  0.5407370000000  0.5475880000000 1.0
C      1  0.4994660000000  0.5759700000000  0.4541850000000 1.0
C      1  0.5674310000000  0.5377470000000  0.5483140000000 1.0
C      1  0.5683270000000  0.4596580000000  0.4527570000000 1.0
C      1  0.5870980000000  0.4969390000000  0.4949110000000 1.0
C      1  0.5396530000000  0.4250290000000  0.5094110000000 1.0
C      1  0.4547770000000  0.4310100000000  0.4919830000000 1.0
C      1  0.4136770000000  0.5047370000000  0.5060190000000 1.0
C      1  0.4588940000000  0.5771440000000  0.4954350000000 1.0
C      1  0.5478170000000  0.5713160000000  0.5061090000000 1.0
C      1  0.5487130000000  0.4819790000000  0.4804480000000 1.0
C      1  0.5104900000000  0.4561780000000  0.5131570000000 1.0
C      1  0.4521610000000  0.4775950000000  0.4812040000000 1.0
C      1  0.4526670000000  0.5190740000000  0.5185200000000 1.0
C      1  0.4840210000000  0.5480510000000  0.4818950000000 1.0
C      1  0.5394720000000  0.5322750000000  0.5192070000000 1.0
C      1  0.4543490000000  0.5051620000000  0.5837720000000 1.0
C      1  0.4823200000000  0.5429330000000  0.4135180000000 1.0
C      1  0.5260470000000  0.5349530000000  0.5850950000000 1.0
C      1  0.5441750000000  0.4924980000000  0.4147900000000 1.0
C      1  0.5139160000000  0.4576380000000  0.5859340000000 1.0
C      1  0.4702190000000  0.4653150000000  0.4152130000000 1.0
C      1  0.5620120000000  0.4833950000000  0.4358210000000 1.0
C      1  0.5186670000000  0.4378740000000  0.5650190000000 1.0
C      1  0.4524490000000  0.4492030000000  0.4329770000000 1.0
C      1  0.4379890000000  0.5145470000000  0.5616110000000 1.0
C      1  0.4807780000000  0.5616230000000  0.4355400000000 1.0
C      1  0.5435690000000  0.5453190000000  0.5644520000000 1.0
C      1  0.5330340000000  0.4270420000000  0.4801500000000 1.0
C      1  0.4531840000000  0.4364950000000  0.5208940000000 1.0
C      1  0.4200040000000  0.5086970000000  0.4768980000000 1.0
C      1  0.4688320000000  0.5734050000000  0.5236790000000 1.0
C      1  0.5471330000000  0.5652250000000  0.4768530000000 1.0
C      1  0.5796870000000  0.4910540000000  0.5230110000000 1.0
C      1  0.4984380000000  0.5706800000000  0.5219350000000 1.0
C      1  0.5590570000000  0.5383510000000  0.4747520000000 1.0
C      1  0.5653330000000  0.4664180000000  0.5170500000000 1.0
C      1  0.5036020000000  0.4266330000000  0.4793320000000 1.0
C      1  0.4387980000000  0.4624380000000  0.5239310000000 1.0
C      1  0.4378770000000  0.5324060000000  0.4770000000000 1.0
C      1  0.4577800000000  0.5031160000000  0.5427200000000 1.0
C      1  0.4796850000000  0.5381120000000  0.4537550000000 1.0
C      1  0.5246230000000  0.5361040000000  0.5443300000000 1.0
C      1  0.5435280000000  0.4947810000000  0.4556060000000 1.0
C      1  0.5386790000000  0.4543660000000  0.5507880000000 1.0
C      1  0.4746020000000  0.4364350000000  0.4469060000000 1.0
C      1  0.4435820000000  0.5083290000000  0.4292790000000 1.0
C      1  0.4743780000000  0.5551410000000  0.5713440000000 1.0
C      1  0.5330520000000  0.5481840000000  0.4302020000000 1.0
C      1  0.5621630000000  0.4950700000000  0.5709080000000 1.0
C      1  0.5238230000000  0.4501330000000  0.4378850000000 1.0
C      1  0.4642970000000  0.4517610000000  0.5695550000000 1.0
C      1  0.4585560000000  0.4779930000000  0.5087920000000 1.0
C      1  0.4623270000000  0.5226540000000  0.4910500000000 1.0
C      1  0.5022970000000  0.5464340000000  0.5053930000000 1.0
C      1  0.5346990000000  0.5276440000000  0.4907260000000 1.0
C      1  0.5380540000000  0.4738570000000  0.5054080000000 1.0
C      1  0.4971500000000  0.4535970000000  0.4883160000000 1.0
C      1  0.4793110000000  0.5267270000000  0.5774410000000 1.0
C      1  0.5120190000000  0.5282470000000  0.4219750000000 1.0
C      1  0.5338590000000  0.5015480000000  0.5766440000000 1.0
C      1  0.5254750000000  0.4681870000000  0.4139140000000 1.0
C      1  0.4860070000000  0.4721070000000  0.5749180000000 1.0
C      1  0.4687670000000  0.4937380000000  0.4269450000000 1.0
C      1  0.5019680000000  0.4998010000000  0.5132740000000 1.0
END
