TITL C-2441157-2117-1485 0.0993489435532209 125000 -21905.1974084006 0 0 164 (C1) n - 1
REM
REM in /home/bkarasulu/work/CARBON/AIRSS/Generating-Clusters/ReaxFF-fromJPCA2015/Units_Real/with-SteepDescent/Higher-Symm
REM
REM
REM
REM
REM
REM ./C.cell (1df0a924f5614ab8850e4351716899ee)
REM
REM compiler GCC version 9.2.1 20190827 (Red Hat 9.2.1-1)
REM options -cpp -mtune=generic -march=x86-64 -g -O0 -fpre-include=/usr/include/finclude/math-vector-fortran.h
REM seed -251356278 1966756795 -174239391 -1158374216 1532603317 1254488085 -888011100 -238034531 -2050388701 -757824344 2115462990 -600429319 345866106 934347843 -1262904220 1971942367 -954147905 1103641001 -430331680 -2049305999 1821241529 185827609 1204693090 2044829005 -188943990 1586802882 -1619316378 -1865467278 -1339383283 -606738851 1595443122 1417276449 -1594412594
REM
CELL 1.54180   50.00000   50.00000   50.00000   90.00000   90.00000   90.00000
LATT -1
SFAC C  
C      1  0.5217660000000  0.5339240000000  0.4511950000000 1.0
C      1  0.4851110000000  0.5284610000000  0.5509990000000 1.0
C      1  0.5216190000000  0.4662310000000  0.4491390000000 1.0
C      1  0.4778640000000  0.4657200000000  0.5507870000000 1.0
C      1  0.4586350000000  0.4465920000000  0.5844610000000 1.0
C      1  0.5385170000000  0.4480610000000  0.4130380000000 1.0
C      1  0.4575420000000  0.5529710000000  0.5827080000000 1.0
C      1  0.5406950000000  0.5502440000000  0.4152720000000 1.0
C      1  0.4575370000000  0.5851500000000  0.5470020000000 1.0
C      1  0.5396350000000  0.5821610000000  0.4515720000000 1.0
C      1  0.4582400000000  0.4148720000000  0.5485780000000 1.0
C      1  0.5409340000000  0.4172190000000  0.4503240000000 1.0
C      1  0.4066220000000  0.4596890000000  0.5191000000000 1.0
C      1  0.5978560000000  0.4616970000000  0.4864690000000 1.0
C      1  0.4050410000000  0.5400180000000  0.5177750000000 1.0
C      1  0.5943110000000  0.5395320000000  0.4805010000000 1.0
C      1  0.5011240000000  0.5973430000000  0.4758070000000 1.0
C      1  0.4986920000000  0.5967600000000  0.5235180000000 1.0
C      1  0.5018290000000  0.4023540000000  0.4796150000000 1.0
C      1  0.4986070000000  0.4022770000000  0.5212700000000 1.0
C      1  0.4443770000000  0.5136200000000  0.4882010000000 1.0
C      1  0.5554250000000  0.5131190000000  0.5134600000000 1.0
C      1  0.4418380000000  0.4868730000000  0.4880980000000 1.0
C      1  0.5517470000000  0.4861860000000  0.5150950000000 1.0
C      1  0.5300360000000  0.5515690000000  0.5877460000000 1.0
C      1  0.4696840000000  0.5517320000000  0.4118270000000 1.0
C      1  0.5305380000000  0.4475700000000  0.5870740000000 1.0
C      1  0.4694700000000  0.4484940000000  0.4116760000000 1.0
C      1  0.5069350000000  0.5710240000000  0.5824250000000 1.0
C      1  0.4918350000000  0.5713950000000  0.4172320000000 1.0
C      1  0.5084900000000  0.4274430000000  0.5813720000000 1.0
C      1  0.4909580000000  0.4275770000000  0.4177150000000 1.0
C      1  0.4024460000000  0.5160010000000  0.4989380000000 1.0
C      1  0.5973450000000  0.5175480000000  0.5024120000000 1.0
C      1  0.4019920000000  0.4838910000000  0.4995310000000 1.0
C      1  0.5977740000000  0.4863890000000  0.5039570000000 1.0
C      1  0.5572220000000  0.5534940000000  0.4891030000000 1.0
C      1  0.4426390000000  0.5534580000000  0.5144790000000 1.0
C      1  0.5579310000000  0.4429630000000  0.4851680000000 1.0
C      1  0.4445470000000  0.4469230000000  0.5128880000000 1.0
C      1  0.5707780000000  0.4861330000000  0.4655710000000 1.0
C      1  0.4301860000000  0.4888100000000  0.5355340000000 1.0
C      1  0.5703420000000  0.5108100000000  0.4662110000000 1.0
C      1  0.4344620000000  0.5131880000000  0.5360730000000 1.0
C      1  0.4733790000000  0.4823890000000  0.5260620000000 1.0
C      1  0.5276260000000  0.4830880000000  0.4746660000000 1.0
C      1  0.4832610000000  0.5108270000000  0.5279860000000 1.0
C      1  0.5274550000000  0.5165670000000  0.4754290000000 1.0
C      1  0.5879140000000  0.4720710000000  0.5260610000000 1.0
C      1  0.4079930000000  0.4700570000000  0.4751490000000 1.0
C      1  0.5900800000000  0.5298330000000  0.5270190000000 1.0
C      1  0.4106140000000  0.5297400000000  0.4752950000000 1.0
C      1  0.4233680000000  0.5241790000000  0.5608420000000 1.0
C      1  0.5775310000000  0.5227120000000  0.4405020000000 1.0
C      1  0.4221710000000  0.4761610000000  0.5606660000000 1.0
C      1  0.5787870000000  0.4739620000000  0.4401500000000 1.0
C      1  0.4931270000000  0.5148490000000  0.5765140000000 1.0
C      1  0.5076400000000  0.5159110000000  0.4246600000000 1.0
C      1  0.4917380000000  0.4826060000000  0.5772410000000 1.0
C      1  0.5068930000000  0.4852830000000  0.4228190000000 1.0
C      1  0.4765430000000  0.4617180000000  0.4580440000000 1.0
C      1  0.5268490000000  0.4600910000000  0.5419610000000 1.0
C      1  0.4731650000000  0.5384590000000  0.4588840000000 1.0
C      1  0.5290360000000  0.5446580000000  0.5401060000000 1.0
C      1  0.4631470000000  0.5687010000000  0.5020810000000 1.0
C      1  0.5410540000000  0.5733400000000  0.4983720000000 1.0
C      1  0.4689330000000  0.4419240000000  0.4989900000000 1.0
C      1  0.5347910000000  0.4366540000000  0.5002090000000 1.0
C      1  0.5331920000000  0.5219990000000  0.4102030000000 1.0
C      1  0.4666500000000  0.5252400000000  0.5879520000000 1.0
C      1  0.5324900000000  0.4772360000000  0.4091080000000 1.0
C      1  0.4666480000000  0.4744590000000  0.5907670000000 1.0
C      1  0.5947080000000  0.4556300000000  0.4561520000000 1.0
C      1  0.4195340000000  0.4521380000000  0.5456560000000 1.0
C      1  0.5811320000000  0.5471220000000  0.4544780000000 1.0
C      1  0.4182980000000  0.5481120000000  0.5467110000000 1.0
C      1  0.5495540000000  0.4808100000000  0.5436140000000 1.0
C      1  0.4439220000000  0.4859600000000  0.4587290000000 1.0
C      1  0.5478640000000  0.5205320000000  0.5399240000000 1.0
C      1  0.4460070000000  0.5168770000000  0.4594910000000 1.0
C      1  0.5476700000000  0.4856580000000  0.5839060000000 1.0
C      1  0.4510300000000  0.4861270000000  0.4159150000000 1.0
C      1  0.5485600000000  0.5135160000000  0.5828380000000 1.0
C      1  0.4514010000000  0.5141810000000  0.4172350000000 1.0
C      1  0.5206870000000  0.4822050000000  0.5176050000000 1.0
C      1  0.4821760000000  0.4865320000000  0.4739560000000 1.0
C      1  0.5113010000000  0.5076940000000  0.5236210000000 1.0
C      1  0.4829080000000  0.5146950000000  0.4746630000000 1.0
C      1  0.4296110000000  0.5315170000000  0.4387870000000 1.0
C      1  0.5683500000000  0.5306190000000  0.5604460000000 1.0
C      1  0.4312920000000  0.4696480000000  0.4372960000000 1.0
C      1  0.5687150000000  0.4695760000000  0.5627970000000 1.0
C      1  0.4404190000000  0.4849250000000  0.5837320000000 1.0
C      1  0.5601080000000  0.4841240000000  0.4158970000000 1.0
C      1  0.4404830000000  0.5135920000000  0.5828030000000 1.0
C      1  0.5603450000000  0.5125960000000  0.4165760000000 1.0
C      1  0.5191810000000  0.4274950000000  0.4162280000000 1.0
C      1  0.4804460000000  0.4289900000000  0.5806200000000 1.0
C      1  0.5200360000000  0.5692830000000  0.4173010000000 1.0
C      1  0.4791080000000  0.5694040000000  0.5799320000000 1.0
C      1  0.5783190000000  0.5553170000000  0.5286870000000 1.0
C      1  0.4242780000000  0.5546680000000  0.4725520000000 1.0
C      1  0.5753080000000  0.4467990000000  0.5279130000000 1.0
C      1  0.4242270000000  0.4466110000000  0.4721250000000 1.0
C      1  0.5131060000000  0.4035960000000  0.4530650000000 1.0
C      1  0.4869920000000  0.4042430000000  0.5481320000000 1.0
C      1  0.5128890000000  0.5945790000000  0.4489860000000 1.0
C      1  0.4857030000000  0.5956830000000  0.5496320000000 1.0
C      1  0.5484650000000  0.5547850000000  0.4446260000000 1.0
C      1  0.4421110000000  0.5627340000000  0.5577210000000 1.0
C      1  0.5433270000000  0.4456110000000  0.4425370000000 1.0
C      1  0.4505410000000  0.4435880000000  0.5550830000000 1.0
C      1  0.4855070000000  0.4711970000000  0.4990810000000 1.0
C      1  0.5125390000000  0.4724840000000  0.4959720000000 1.0
C      1  0.4857330000000  0.5272020000000  0.5002960000000 1.0
C      1  0.5141080000000  0.5250290000000  0.5011720000000 1.0
C      1  0.5028280000000  0.5695500000000  0.4846790000000 1.0
C      1  0.4927230000000  0.5684810000000  0.5129180000000 1.0
C      1  0.5095100000000  0.4319270000000  0.4864640000000 1.0
C      1  0.4923390000000  0.4321380000000  0.5164720000000 1.0
C      1  0.4725070000000  0.6086840000000  0.4756650000000 1.0
C      1  0.5258690000000  0.6068600000000  0.5224940000000 1.0
C      1  0.4726490000000  0.3950940000000  0.4790090000000 1.0
C      1  0.5274120000000  0.3932370000000  0.5198550000000 1.0
C      1  0.5435800000000  0.4369710000000  0.5285550000000 1.0
C      1  0.4556710000000  0.4401740000000  0.4685610000000 1.0
C      1  0.5477850000000  0.5663030000000  0.5318510000000 1.0
C      1  0.4555440000000  0.5624090000000  0.4707350000000 1.0
C      1  0.5508540000000  0.5905780000000  0.4764220000000 1.0
C      1  0.4492420000000  0.5927230000000  0.5189840000000 1.0
C      1  0.5518190000000  0.4051710000000  0.4736630000000 1.0
C      1  0.4492250000000  0.4033300000000  0.5245200000000 1.0
C      1  0.4633730000000  0.4132810000000  0.4581090000000 1.0
C      1  0.5340470000000  0.4112140000000  0.5414830000000 1.0
C      1  0.4650010000000  0.5872330000000  0.4571820000000 1.0
C      1  0.5339980000000  0.5899890000000  0.5445690000000 1.0
C      1  0.4865600000000  0.4104530000000  0.4409290000000 1.0
C      1  0.5121860000000  0.4108740000000  0.5595380000000 1.0
C      1  0.4871110000000  0.5878380000000  0.4389810000000 1.0
C      1  0.5108670000000  0.5882930000000  0.5614560000000 1.0
C      1  0.4561250000000  0.3967830000000  0.5017630000000 1.0
C      1  0.5433410000000  0.3960430000000  0.4965930000000 1.0
C      1  0.4583370000000  0.6097050000000  0.4997740000000 1.0
C      1  0.5439150000000  0.6027540000000  0.5001350000000 1.0
C      1  0.5003150000000  0.5493830000000  0.4635680000000 1.0
C      1  0.5010870000000  0.5481940000000  0.5376340000000 1.0
C      1  0.5020270000000  0.4494380000000  0.4623590000000 1.0
C      1  0.4989850000000  0.4511500000000  0.5386770000000 1.0
C      1  0.4445620000000  0.5255840000000  0.5127980000000 1.0
C      1  0.5551590000000  0.5251130000000  0.4868900000000 1.0
C      1  0.4458770000000  0.4756990000000  0.5161330000000 1.0
C      1  0.5545230000000  0.4730560000000  0.4850780000000 1.0
C      1  0.5834270000000  0.4399610000000  0.5006430000000 1.0
C      1  0.4187770000000  0.4397050000000  0.5005920000000 1.0
C      1  0.5841820000000  0.5595840000000  0.4993430000000 1.0
C      1  0.4163410000000  0.5610260000000  0.5008070000000 1.0
C      1  0.4411130000000  0.4452790000000  0.4244610000000 1.0
C      1  0.5587820000000  0.4449320000000  0.5753380000000 1.0
C      1  0.4410320000000  0.5543330000000  0.4244970000000 1.0
C      1  0.5587930000000  0.5539260000000  0.5758450000000 1.0
C      1  0.5222010000000  0.5247750000000  0.5866960000000 1.0
C      1  0.4781430000000  0.5249810000000  0.4144260000000 1.0
C      1  0.5209570000000  0.4745950000000  0.5864740000000 1.0
C      1  0.4780530000000  0.4753120000000  0.4132410000000 1.0
END
