TITL C-2441163-1170-15 0.0667388935673314 125000 -17552.1477860074 0 0 128 (C1) n - 1
REM
REM in /home/bkarasulu/work/CARBON/AIRSS/Generating-Clusters/ReaxFF-fromJPCA2015/Units_Real/with-SteepDescent/Higher-Symm
REM
REM
REM
REM
REM
REM ./C.cell (1df0a924f5614ab8850e4351716899ee)
REM
REM compiler GCC version 9.2.1 20190827 (Red Hat 9.2.1-1)
REM options -cpp -mtune=generic -march=x86-64 -g -O0 -fpre-include=/usr/include/finclude/math-vector-fortran.h
REM seed 695006440 695932398 -833286775 982826145 1923600564 2007481695 -845907110 -690457223 -809056658 -1958417261 -912039063 -905579844 -1542797498 857590423 604358965 -1542494106 -1920540327 -1981198265 278975168 -889189354 -1485443261 -756406555 24957368 386700179 1998570654 2132414691 925780820 1286742722 1488279359 2034619980 -80921595 2001016206 411160463
REM
CELL 1.54180   50.00000   50.00000   50.00000   90.00000   90.00000   90.00000
LATT -1
SFAC C  
C      1  0.5712990000000  0.4693100000000  0.5249520000000 1.0
C      1  0.5713370000000  0.4959270000000  0.5391090000000 1.0
C      1  0.5712050000000  0.5249870000000  0.5306440000000 1.0
C      1  0.5713960000000  0.5391430000000  0.5040340000000 1.0
C      1  0.5712970000000  0.5307400000000  0.4749530000000 1.0
C      1  0.5714200000000  0.5041200000000  0.4608400000000 1.0
C      1  0.5713690000000  0.4750190000000  0.4692680000000 1.0
C      1  0.5714100000000  0.4608460000000  0.4958820000000 1.0
C      1  0.4625460000000  0.4573040000000  0.5249590000000 1.0
C      1  0.4609290000000  0.4975130000000  0.5503690000000 1.0
C      1  0.4615230000000  0.5243670000000  0.5417190000000 1.0
C      1  0.4609560000000  0.5498060000000  0.5023370000000 1.0
C      1  0.4625120000000  0.5423280000000  0.4758260000000 1.0
C      1  0.4610680000000  0.5015770000000  0.4497200000000 1.0
C      1  0.4626170000000  0.4748970000000  0.4570630000000 1.0
C      1  0.4608230000000  0.4500980000000  0.4980420000000 1.0
C      1  0.4743600000000  0.4136790000000  0.5275410000000 1.0
C      1  0.4743840000000  0.4584860000000  0.5800060000000 1.0
C      1  0.4744200000000  0.5274950000000  0.5861500000000 1.0
C      1  0.4742810000000  0.5797570000000  0.5413370000000 1.0
C      1  0.4747220000000  0.5868190000000  0.4724720000000 1.0
C      1  0.4738420000000  0.5410170000000  0.4205470000000 1.0
C      1  0.4748560000000  0.4724560000000  0.4130770000000 1.0
C      1  0.4737900000000  0.4204570000000  0.4589630000000 1.0
C      1  0.4553810000000  0.5658840000000  0.4581040000000 1.0
C      1  0.4558160000000  0.5148460000000  0.4224830000000 1.0
C      1  0.4552850000000  0.4574370000000  0.4335360000000 1.0
C      1  0.4557410000000  0.4225880000000  0.4850510000000 1.0
C      1  0.4550940000000  0.4341640000000  0.5428350000000 1.0
C      1  0.4562120000000  0.4848280000000  0.5777230000000 1.0
C      1  0.4554800000000  0.5419570000000  0.5660870000000 1.0
C      1  0.4562910000000  0.5774120000000  0.5149290000000 1.0
C      1  0.5309350000000  0.4270350000000  0.5643320000000 1.0
C      1  0.5318380000000  0.4939980000000  0.5971310000000 1.0
C      1  0.5308120000000  0.5644140000000  0.5730720000000 1.0
C      1  0.5319640000000  0.5971570000000  0.5060750000000 1.0
C      1  0.5308830000000  0.5730110000000  0.4355760000000 1.0
C      1  0.5319760000000  0.5060720000000  0.4027650000000 1.0
C      1  0.5310520000000  0.4356260000000  0.4269600000000 1.0
C      1  0.5318930000000  0.4028010000000  0.4939230000000 1.0
C      1  0.4174350000000  0.4872300000000  0.4501580000000 1.0
C      1  0.4161860000000  0.4531990000000  0.4728470000000 1.0
C      1  0.4178590000000  0.4502780000000  0.5130890000000 1.0
C      1  0.4140370000000  0.4741570000000  0.5480500000000 1.0
C      1  0.4179280000000  0.5094280000000  0.5472270000000 1.0
C      1  0.4169800000000  0.5487550000000  0.5274670000000 1.0
C      1  0.4168680000000  0.5492890000000  0.4875870000000 1.0
C      1  0.4160300000000  0.5277150000000  0.4528680000000 1.0
C      1  0.5522800000000  0.5254340000000  0.4129280000000 1.0
C      1  0.5517250000000  0.4564080000000  0.4205660000000 1.0
C      1  0.5522580000000  0.4129420000000  0.4745720000000 1.0
C      1  0.5516940000000  0.4206150000000  0.5436440000000 1.0
C      1  0.5521850000000  0.4746540000000  0.5870440000000 1.0
C      1  0.5515900000000  0.5436370000000  0.5793790000000 1.0
C      1  0.5522540000000  0.5869680000000  0.5254030000000 1.0
C      1  0.5515710000000  0.5794270000000  0.4563300000000 1.0
C      1  0.4238770000000  0.5363030000000  0.5514580000000 1.0
C      1  0.4246270000000  0.5668620000000  0.5083130000000 1.0
C      1  0.4240220000000  0.5526550000000  0.4616500000000 1.0
C      1  0.4241800000000  0.5091210000000  0.4336880000000 1.0
C      1  0.4241780000000  0.4611850000000  0.4476080000000 1.0
C      1  0.4239280000000  0.4335840000000  0.4911970000000 1.0
C      1  0.4248200000000  0.4502750000000  0.5386820000000 1.0
C      1  0.4251160000000  0.4909000000000  0.5684800000000 1.0
C      1  0.4874860000000  0.5429510000000  0.5062540000000 1.0
C      1  0.4864430000000  0.5295050000000  0.4694340000000 1.0
C      1  0.4874880000000  0.5062400000000  0.4577520000000 1.0
C      1  0.4864730000000  0.4690500000000  0.4703390000000 1.0
C      1  0.4875080000000  0.4580890000000  0.4937200000000 1.0
C      1  0.4861510000000  0.4707100000000  0.5309260000000 1.0
C      1  0.4872300000000  0.4938100000000  0.5423250000000 1.0
C      1  0.4860860000000  0.5305810000000  0.5288240000000 1.0
C      1  0.5288720000000  0.5375280000000  0.4976170000000 1.0
C      1  0.5286060000000  0.5250730000000  0.4716040000000 1.0
C      1  0.5291840000000  0.4976510000000  0.4625950000000 1.0
C      1  0.5288540000000  0.4715370000000  0.4749990000000 1.0
C      1  0.5293840000000  0.4625410000000  0.5024190000000 1.0
C      1  0.5287220000000  0.4750910000000  0.5283810000000 1.0
C      1  0.5290620000000  0.5024510000000  0.5373200000000 1.0
C      1  0.5285760000000  0.5283450000000  0.5248200000000 1.0
C      1  0.4742640000000  0.5662990000000  0.4342990000000 1.0
C      1  0.4754950000000  0.5000210000000  0.4049250000000 1.0
C      1  0.4743680000000  0.4339130000000  0.4334900000000 1.0
C      1  0.4752820000000  0.4051790000000  0.5000680000000 1.0
C      1  0.4743430000000  0.4333140000000  0.5662000000000 1.0
C      1  0.4756370000000  0.5001930000000  0.5951050000000 1.0
C      1  0.4742730000000  0.5657480000000  0.5665470000000 1.0
C      1  0.4755490000000  0.5951960000000  0.4999870000000 1.0
C      1  0.5627980000000  0.4554530000000  0.4483930000000 1.0
C      1  0.5631940000000  0.4322620000000  0.4947910000000 1.0
C      1  0.5627310000000  0.4484680000000  0.5445540000000 1.0
C      1  0.5630770000000  0.4948530000000  0.5676650000000 1.0
C      1  0.5626340000000  0.5445570000000  0.5515520000000 1.0
C      1  0.5631820000000  0.5677080000000  0.5051120000000 1.0
C      1  0.5626510000000  0.5516110000000  0.4553810000000 1.0
C      1  0.5632090000000  0.5052280000000  0.4322640000000 1.0
C      1  0.5090780000000  0.5041750000000  0.5582510000000 1.0
C      1  0.5085480000000  0.5438940000000  0.5390590000000 1.0
C      1  0.5093180000000  0.5587550000000  0.4957220000000 1.0
C      1  0.5089370000000  0.5389880000000  0.4553070000000 1.0
C      1  0.5091720000000  0.4955900000000  0.4417000000000 1.0
C      1  0.5091280000000  0.4552230000000  0.4610670000000 1.0
C      1  0.5091190000000  0.4418320000000  0.5044110000000 1.0
C      1  0.5088640000000  0.4612540000000  0.5445100000000 1.0
C      1  0.5455150000000  0.5685930000000  0.5471510000000 1.0
C      1  0.5457970000000  0.5811190000000  0.4849710000000 1.0
C      1  0.5455850000000  0.5471920000000  0.4312940000000 1.0
C      1  0.5459050000000  0.4850270000000  0.4188610000000 1.0
C      1  0.5458180000000  0.4312520000000  0.4527170000000 1.0
C      1  0.5460380000000  0.4186840000000  0.5150240000000 1.0
C      1  0.5456730000000  0.4528570000000  0.5686560000000 1.0
C      1  0.5456590000000  0.5150350000000  0.5810030000000 1.0
C      1  0.5015050000000  0.5329140000000  0.4254880000000 1.0
C      1  0.5019020000000  0.4707660000000  0.4248430000000 1.0
C      1  0.5015130000000  0.4253860000000  0.4670700000000 1.0
C      1  0.5016270000000  0.4249730000000  0.5291660000000 1.0
C      1  0.5017420000000  0.4669610000000  0.5745080000000 1.0
C      1  0.5019200000000  0.5296360000000  0.5745210000000 1.0
C      1  0.5016770000000  0.5744560000000  0.5329780000000 1.0
C      1  0.5018910000000  0.5752690000000  0.4707490000000 1.0
C      1  0.5030720000000  0.4038830000000  0.4870390000000 1.0
C      1  0.5021500000000  0.4229070000000  0.5587840000000 1.0
C      1  0.5029230000000  0.4870070000000  0.5962550000000 1.0
C      1  0.5020530000000  0.5593120000000  0.5774050000000 1.0
C      1  0.5031040000000  0.5962620000000  0.5133260000000 1.0
C      1  0.5019990000000  0.5770540000000  0.4410610000000 1.0
C      1  0.5031660000000  0.5131040000000  0.4038350000000 1.0
C      1  0.5021480000000  0.4410850000000  0.4229820000000 1.0
END
