TITL C-2441164-471-838 0.052507696355361 125000 -9443.55424018083 0 0 77 (C1) n - 1
REM
REM in /home/bkarasulu/work/CARBON/AIRSS/Generating-Clusters/ReaxFF-fromJPCA2015/Units_Real/with-SteepDescent/Higher-Symm
REM
REM
REM
REM
REM
REM ./C.cell (1df0a924f5614ab8850e4351716899ee)
REM
REM compiler GCC version 9.2.1 20190827 (Red Hat 9.2.1-1)
REM options -cpp -mtune=generic -march=x86-64 -g -O0 -fpre-include=/usr/include/finclude/math-vector-fortran.h
REM seed 1861633237 1651856397 1889521001 1666330708 -1176931549 -513064991 2019604420 -304930018 -988718228 1451744543 -860742071 555640168 1816856142 1271710342 377846829 20338102 -1857921010 -1375533336 -1204426663 -1000249702 -1752801694 1280771499 -1448363871 1514452730 661408538 -1384932827 990221166 370885399 1076429727 -143810115 308247873 -1186286542 1348184804
REM
CELL 1.54180   50.00000   50.00000   50.00000   90.00000   90.00000   90.00000
LATT -1
SFAC C  
C      1  0.4923690000000  0.5192870000000  0.5847790000000 1.0
C      1  0.5379960000000  0.5160100000000  0.5713240000000 1.0
C      1  0.5744280000000  0.5177930000000  0.5431780000000 1.0
C      1  0.5805620000000  0.5163760000000  0.4957170000000 1.0
C      1  0.5703230000000  0.5182540000000  0.4510360000000 1.0
C      1  0.5298260000000  0.5175460000000  0.4240410000000 1.0
C      1  0.4851430000000  0.5172610000000  0.4165770000000 1.0
C      1  0.4406520000000  0.5188580000000  0.4385850000000 1.0
C      1  0.4195440000000  0.5169270000000  0.4811340000000 1.0
C      1  0.4221700000000  0.5166500000000  0.5274950000000 1.0
C      1  0.4476960000000  0.5171470000000  0.5658450000000 1.0
C      1  0.5487380000000  0.5341260000000  0.4633330000000 1.0
C      1  0.5266120000000  0.5324390000000  0.4476420000000 1.0
C      1  0.4854320000000  0.5340680000000  0.4405290000000 1.0
C      1  0.4610920000000  0.5340910000000  0.4529300000000 1.0
C      1  0.4421880000000  0.5324300000000  0.4891850000000 1.0
C      1  0.4418350000000  0.5336570000000  0.5163050000000 1.0
C      1  0.4659270000000  0.5324640000000  0.5488420000000 1.0
C      1  0.4908820000000  0.5331400000000  0.5594270000000 1.0
C      1  0.5288760000000  0.5316480000000  0.5491760000000 1.0
C      1  0.5516350000000  0.5331320000000  0.5302800000000 1.0
C      1  0.5568530000000  0.5313000000000  0.5016630000000 1.0
C      1  0.4563120000000  0.4903460000000  0.5757330000000 1.0
C      1  0.5033900000000  0.4924220000000  0.5875040000000 1.0
C      1  0.5453570000000  0.4868150000000  0.5654370000000 1.0
C      1  0.5822180000000  0.4922410000000  0.5336300000000 1.0
C      1  0.5794440000000  0.4875880000000  0.4862750000000 1.0
C      1  0.5655180000000  0.4921770000000  0.4389820000000 1.0
C      1  0.5208370000000  0.4865170000000  0.4220830000000 1.0
C      1  0.4722290000000  0.4903630000000  0.4181300000000 1.0
C      1  0.4313060000000  0.4921790000000  0.4451820000000 1.0
C      1  0.4170700000000  0.4867440000000  0.4900510000000 1.0
C      1  0.4278650000000  0.4876790000000  0.5363030000000 1.0
C      1  0.5019160000000  0.4406840000000  0.5702380000000 1.0
C      1  0.5305150000000  0.4422910000000  0.5649480000000 1.0
C      1  0.5620180000000  0.4376180000000  0.5269720000000 1.0
C      1  0.5712260000000  0.4420100000000  0.4991360000000 1.0
C      1  0.5471530000000  0.4362330000000  0.4535160000000 1.0
C      1  0.5248070000000  0.4410820000000  0.4342770000000 1.0
C      1  0.4975910000000  0.4388320000000  0.4355440000000 1.0
C      1  0.4449900000000  0.4391330000000  0.4557120000000 1.0
C      1  0.4310880000000  0.4404790000000  0.4818940000000 1.0
C      1  0.4354670000000  0.4410190000000  0.5293640000000 1.0
C      1  0.4545630000000  0.4368720000000  0.5508590000000 1.0
C      1  0.5305920000000  0.4953430000000  0.5887590000000 1.0
C      1  0.5723840000000  0.4944540000000  0.5585990000000 1.0
C      1  0.5943300000000  0.4961780000000  0.5095290000000 1.0
C      1  0.5833950000000  0.4946260000000  0.4589730000000 1.0
C      1  0.5477390000000  0.4966560000000  0.4181570000000 1.0
C      1  0.4976210000000  0.4945760000000  0.4079470000000 1.0
C      1  0.4446040000000  0.4962040000000  0.4220970000000 1.0
C      1  0.4114840000000  0.4962270000000  0.4637280000000 1.0
C      1  0.4092240000000  0.4952150000000  0.5161470000000 1.0
C      1  0.4323170000000  0.4943270000000  0.5631930000000 1.0
C      1  0.4775180000000  0.4964510000000  0.5933170000000 1.0
C      1  0.5518420000000  0.4678210000000  0.4956380000000 1.0
C      1  0.5367470000000  0.4594220000000  0.4704390000000 1.0
C      1  0.5166990000000  0.4721500000000  0.4524290000000 1.0
C      1  0.4906070000000  0.4569920000000  0.4546400000000 1.0
C      1  0.4625950000000  0.4621440000000  0.4656380000000 1.0
C      1  0.4463090000000  0.4681450000000  0.4899290000000 1.0
C      1  0.4514400000000  0.4683630000000  0.5201240000000 1.0
C      1  0.4739320000000  0.4570150000000  0.5360120000000 1.0
C      1  0.4984760000000  0.4630260000000  0.5485010000000 1.0
C      1  0.5270190000000  0.4682890000000  0.5445250000000 1.0
C      1  0.5408500000000  0.4590460000000  0.5216690000000 1.0
C      1  0.4505490000000  0.5601610000000  0.4873770000000 1.0
C      1  0.4509900000000  0.5619930000000  0.5162810000000 1.0
C      1  0.4676580000000  0.5604910000000  0.5398150000000 1.0
C      1  0.4947830000000  0.5606610000000  0.5510160000000 1.0
C      1  0.5231930000000  0.5599730000000  0.5450270000000 1.0
C      1  0.5434580000000  0.5636210000000  0.5255770000000 1.0
C      1  0.5507740000000  0.5597320000000  0.4983400000000 1.0
C      1  0.5424520000000  0.5623810000000  0.4708440000000 1.0
C      1  0.5192080000000  0.5597850000000  0.4534090000000 1.0
C      1  0.4907260000000  0.5612820000000  0.4492000000000 1.0
C      1  0.4648250000000  0.5613230000000  0.4623250000000 1.0
END
