TITL C-2441160-1326-686 0.0340666002467398 125000 -16663.9594379078 0 0 115 (C1) n - 1
REM
REM in /home/bkarasulu/work/CARBON/AIRSS/Generating-Clusters/ReaxFF-fromJPCA2015/Units_Real/with-SteepDescent/Higher-Symm
REM
REM
REM
REM
REM
REM ./C.cell (1df0a924f5614ab8850e4351716899ee)
REM
REM compiler GCC version 9.2.1 20190827 (Red Hat 9.2.1-1)
REM options -cpp -mtune=generic -march=x86-64 -g -O0 -fpre-include=/usr/include/finclude/math-vector-fortran.h
REM seed 392227100 753902708 1487817963 -1846650872 -146825147 -442279602 1729312891 -461417505 -1406271374 33088715 -1758300510 2089891893 1479775296 -2019669795 2127612445 1994837880 -676504540 -1647441680 -249254786 555013864 1085942380 -148677729 -21804129 -1435985410 -1130258662 -1324015304 956581493 -1003760796 -1514621572 -1371015119 1730061988 -39726659 -147909179
REM
CELL 1.54180   50.00000   50.00000   50.00000   90.00000   90.00000   90.00000
LATT -1
SFAC C  
C      1  0.5218850000000  0.5393250000000  0.5526250000000 1.0
C      1  0.5229220000000  0.4736410000000  0.5469720000000 1.0
C      1  0.5229040000000  0.4353640000000  0.4988440000000 1.0
C      1  0.5183350000000  0.4673870000000  0.4491840000000 1.0
C      1  0.5267220000000  0.5317730000000  0.4372810000000 1.0
C      1  0.5165850000000  0.5549270000000  0.4929400000000 1.0
C      1  0.4767010000000  0.5338630000000  0.5432130000000 1.0
C      1  0.4769050000000  0.4722450000000  0.5397240000000 1.0
C      1  0.4761290000000  0.4448420000000  0.5040250000000 1.0
C      1  0.4748300000000  0.4666940000000  0.4465290000000 1.0
C      1  0.4720440000000  0.5239600000000  0.4454230000000 1.0
C      1  0.4763650000000  0.5628210000000  0.4989620000000 1.0
C      1  0.4897410000000  0.4060090000000  0.4803710000000 1.0
C      1  0.4829850000000  0.4704730000000  0.4170510000000 1.0
C      1  0.4896600000000  0.5610780000000  0.4252800000000 1.0
C      1  0.4829190000000  0.5846390000000  0.5202850000000 1.0
C      1  0.4856400000000  0.5257150000000  0.5912270000000 1.0
C      1  0.4837350000000  0.4420500000000  0.5776610000000 1.0
C      1  0.5179930000000  0.4116400000000  0.4803260000000 1.0
C      1  0.5113100000000  0.4696050000000  0.4088370000000 1.0
C      1  0.5184320000000  0.5610100000000  0.4300930000000 1.0
C      1  0.5088760000000  0.5974950000000  0.5206200000000 1.0
C      1  0.5135350000000  0.5288860000000  0.5969940000000 1.0
C      1  0.5127950000000  0.4365340000000  0.5756700000000 1.0
C      1  0.5644220000000  0.4901440000000  0.5572480000000 1.0
C      1  0.5636130000000  0.4474200000000  0.5203980000000 1.0
C      1  0.5661160000000  0.4577400000000  0.4628430000000 1.0
C      1  0.5659180000000  0.5103430000000  0.4451340000000 1.0
C      1  0.5652730000000  0.5533370000000  0.4825060000000 1.0
C      1  0.5658120000000  0.5452580000000  0.5366520000000 1.0
C      1  0.4366140000000  0.4903300000000  0.5543130000000 1.0
C      1  0.4318910000000  0.4457900000000  0.5203310000000 1.0
C      1  0.4332320000000  0.4558300000000  0.4648250000000 1.0
C      1  0.4301500000000  0.5103960000000  0.4449280000000 1.0
C      1  0.4347090000000  0.5543770000000  0.4821710000000 1.0
C      1  0.4327720000000  0.5428620000000  0.5393160000000 1.0
C      1  0.5183150000000  0.4630290000000  0.5865610000000 1.0
C      1  0.5121320000000  0.4107690000000  0.5305260000000 1.0
C      1  0.5128360000000  0.4395440000000  0.4188260000000 1.0
C      1  0.5190480000000  0.5213940000000  0.4104040000000 1.0
C      1  0.5145950000000  0.6083940000000  0.4927120000000 1.0
C      1  0.5112080000000  0.5595650000000  0.5874440000000 1.0
C      1  0.4898910000000  0.4702270000000  0.5871250000000 1.0
C      1  0.4920820000000  0.4020000000000  0.5104650000000 1.0
C      1  0.4866600000000  0.4286370000000  0.4256970000000 1.0
C      1  0.4934010000000  0.5360000000000  0.4089460000000 1.0
C      1  0.4917180000000  0.5991280000000  0.4763870000000 1.0
C      1  0.4843720000000  0.5533360000000  0.5779700000000 1.0
C      1  0.4464370000000  0.5670260000000  0.5325200000000 1.0
C      1  0.4513230000000  0.5071210000000  0.5710390000000 1.0
C      1  0.4421920000000  0.4422450000000  0.5474310000000 1.0
C      1  0.4510280000000  0.4337700000000  0.4722810000000 1.0
C      1  0.4404860000000  0.4900450000000  0.4267770000000 1.0
C      1  0.4503350000000  0.5581540000000  0.4574250000000 1.0
C      1  0.5511950000000  0.5686700000000  0.5266090000000 1.0
C      1  0.5538610000000  0.5116400000000  0.5733520000000 1.0
C      1  0.5508150000000  0.4417910000000  0.5460130000000 1.0
C      1  0.5542390000000  0.4323810000000  0.4699900000000 1.0
C      1  0.5527730000000  0.4906610000000  0.4276650000000 1.0
C      1  0.5549590000000  0.5587030000000  0.4560860000000 1.0
C      1  0.4801800000000  0.4894360000000  0.5178000000000 1.0
C      1  0.4773560000000  0.4733540000000  0.4947560000000 1.0
C      1  0.4767250000000  0.4846280000000  0.4696780000000 1.0
C      1  0.4824750000000  0.5150890000000  0.4698620000000 1.0
C      1  0.4765360000000  0.5336340000000  0.4953300000000 1.0
C      1  0.4742780000000  0.5182370000000  0.5186530000000 1.0
C      1  0.5262040000000  0.4800230000000  0.5186560000000 1.0
C      1  0.5204200000000  0.4653130000000  0.4949690000000 1.0
C      1  0.5207890000000  0.4844340000000  0.4722940000000 1.0
C      1  0.5157070000000  0.5134730000000  0.4663370000000 1.0
C      1  0.5204470000000  0.5261880000000  0.4920290000000 1.0
C      1  0.5127470000000  0.5150170000000  0.5426220000000 1.0
C      1  0.4764540000000  0.4986880000000  0.5831150000000 1.0
C      1  0.4687580000000  0.4315570000000  0.5540720000000 1.0
C      1  0.4795520000000  0.4266390000000  0.4606080000000 1.0
C      1  0.4652970000000  0.4936570000000  0.4119870000000 1.0
C      1  0.4776050000000  0.5672970000000  0.4509700000000 1.0
C      1  0.4732310000000  0.5724600000000  0.5456390000000 1.0
C      1  0.5274110000000  0.5059340000000  0.5856120000000 1.0
C      1  0.5270290000000  0.4257400000000  0.5508010000000 1.0
C      1  0.5285320000000  0.4250640000000  0.4564180000000 1.0
C      1  0.5283440000000  0.4938670000000  0.4111280000000 1.0
C      1  0.5302090000000  0.5739230000000  0.4525030000000 1.0
C      1  0.5247800000000  0.5784770000000  0.5359920000000 1.0
C      1  0.5439340000000  0.5651280000000  0.4989020000000 1.0
C      1  0.5506360000000  0.5376510000000  0.5601360000000 1.0
C      1  0.5470850000000  0.4657810000000  0.5634330000000 1.0
C      1  0.5517720000000  0.4308100000000  0.4992530000000 1.0
C      1  0.5478620000000  0.4661770000000  0.4415650000000 1.0
C      1  0.5538630000000  0.5350130000000  0.4411400000000 1.0
C      1  0.4479590000000  0.5706480000000  0.5027690000000 1.0
C      1  0.4525480000000  0.5344720000000  0.5600640000000 1.0
C      1  0.4527010000000  0.4684960000000  0.5544810000000 1.0
C      1  0.4496230000000  0.4320670000000  0.5010650000000 1.0
C      1  0.4457900000000  0.4647100000000  0.4402840000000 1.0
C      1  0.4469830000000  0.5335000000000  0.4428060000000 1.0
C      1  0.5753420000000  0.5229580000000  0.5197000000000 1.0
C      1  0.5748050000000  0.4955050000000  0.5305650000000 1.0
C      1  0.5748220000000  0.4731260000000  0.5114170000000 1.0
C      1  0.5758120000000  0.4778500000000  0.4825640000000 1.0
C      1  0.5757040000000  0.5048570000000  0.4721030000000 1.0
C      1  0.5758540000000  0.5272630000000  0.4910100000000 1.0
C      1  0.4238210000000  0.5230410000000  0.5194860000000 1.0
C      1  0.4244980000000  0.4957230000000  0.5290560000000 1.0
C      1  0.4236660000000  0.4726020000000  0.5112390000000 1.0
C      1  0.4238610000000  0.4776440000000  0.4827680000000 1.0
C      1  0.4233100000000  0.5050710000000  0.4725950000000 1.0
C      1  0.4245450000000  0.5281530000000  0.4907490000000 1.0
C      1  0.4835330000000  0.4452500000000  0.5322880000000 1.0
C      1  0.5042280000000  0.5708830000000  0.4686090000000 1.0
C      1  0.5058440000000  0.5594500000000  0.5431740000000 1.0
C      1  0.5051730000000  0.4433170000000  0.4585010000000 1.0
C      1  0.5109300000000  0.4953640000000  0.5626140000000 1.0
C      1  0.4800710000000  0.5152430000000  0.4224760000000 1.0
C      1  0.5154410000000  0.5075610000000  0.5149770000000 1.0
END
