TITL C-2441157-2117-498 0.0781325191327216 125000 -25218.1598033107 0 0 176 (C1) n - 1
REM
REM in /home/bkarasulu/work/CARBON/AIRSS/Generating-Clusters/ReaxFF-fromJPCA2015/Units_Real/with-SteepDescent/Higher-Symm
REM
REM
REM
REM
REM
REM ./C.cell (1df0a924f5614ab8850e4351716899ee)
REM
REM compiler GCC version 9.2.1 20190827 (Red Hat 9.2.1-1)
REM options -cpp -mtune=generic -march=x86-64 -g -O0 -fpre-include=/usr/include/finclude/math-vector-fortran.h
REM seed 726399689 113293328 -616569488 -541828585 462816445 -1154236737 -756053527 1696295570 -1523040213 1160430123 806416745 192916899 544028262 453224007 1420290130 224683016 -1337895279 -769453524 -474891623 -1087047378 -1749080486 963712438 2022928731 -737093490 -701648364 2126012435 2127514661 -857258776 -1014311444 1534138216 1020401427 989678875 248005096
REM
CELL 1.54180   50.00000   50.00000   50.00000   90.00000   90.00000   90.00000
LATT -1
SFAC C  
C      1  0.5422110000000  0.4884430000000  0.4152360000000 1.0
C      1  0.5538150000000  0.5102100000000  0.5825590000000 1.0
C      1  0.4598460000000  0.4891390000000  0.4145850000000 1.0
C      1  0.4550700000000  0.5136510000000  0.5903790000000 1.0
C      1  0.5311710000000  0.4252570000000  0.5720270000000 1.0
C      1  0.5320690000000  0.5757510000000  0.4261510000000 1.0
C      1  0.4713130000000  0.4256780000000  0.5698770000000 1.0
C      1  0.4678640000000  0.5745770000000  0.4270680000000 1.0
C      1  0.5801590000000  0.5236750000000  0.4362100000000 1.0
C      1  0.5808050000000  0.4750860000000  0.5629410000000 1.0
C      1  0.4206870000000  0.5232570000000  0.4364030000000 1.0
C      1  0.4207380000000  0.4767200000000  0.5621140000000 1.0
C      1  0.4872780000000  0.5104070000000  0.3923750000000 1.0
C      1  0.4846650000000  0.4917540000000  0.6096110000000 1.0
C      1  0.5167630000000  0.5090150000000  0.3912970000000 1.0
C      1  0.5137990000000  0.4973030000000  0.5975810000000 1.0
C      1  0.4548170000000  0.4936960000000  0.4677320000000 1.0
C      1  0.4523500000000  0.5070990000000  0.5300870000000 1.0
C      1  0.5370580000000  0.4975340000000  0.4705130000000 1.0
C      1  0.5526100000000  0.5058690000000  0.5300050000000 1.0
C      1  0.4855240000000  0.5975280000000  0.4679510000000 1.0
C      1  0.4902980000000  0.3937940000000  0.5223740000000 1.0
C      1  0.5149120000000  0.5969950000000  0.4684180000000 1.0
C      1  0.5162090000000  0.4044330000000  0.5274810000000 1.0
C      1  0.4659180000000  0.4572780000000  0.5274180000000 1.0
C      1  0.4678950000000  0.5475800000000  0.4687710000000 1.0
C      1  0.5326890000000  0.4545290000000  0.5157340000000 1.0
C      1  0.5301560000000  0.5455800000000  0.4684390000000 1.0
C      1  0.4120650000000  0.5445730000000  0.4542180000000 1.0
C      1  0.4121550000000  0.4544670000000  0.5462410000000 1.0
C      1  0.5883830000000  0.5461880000000  0.4527510000000 1.0
C      1  0.5889430000000  0.4524100000000  0.5465870000000 1.0
C      1  0.4404620000000  0.5331980000000  0.4178800000000 1.0
C      1  0.4438440000000  0.4677410000000  0.5776260000000 1.0
C      1  0.5607110000000  0.5335310000000  0.4170570000000 1.0
C      1  0.5581270000000  0.4667110000000  0.5796770000000 1.0
C      1  0.4639110000000  0.5941050000000  0.4487880000000 1.0
C      1  0.4696820000000  0.4097640000000  0.5424850000000 1.0
C      1  0.5359030000000  0.5946820000000  0.4481100000000 1.0
C      1  0.5340100000000  0.4057520000000  0.5501290000000 1.0
C      1  0.6113090000000  0.5304490000000  0.4959980000000 1.0
C      1  0.6115040000000  0.4670480000000  0.5040690000000 1.0
C      1  0.3846210000000  0.5227560000000  0.4914910000000 1.0
C      1  0.3893730000000  0.4737710000000  0.5032580000000 1.0
C      1  0.4764680000000  0.4093290000000  0.4547830000000 1.0
C      1  0.4745080000000  0.5957170000000  0.5451720000000 1.0
C      1  0.5230440000000  0.4075570000000  0.4529320000000 1.0
C      1  0.5242410000000  0.5920000000000  0.5459460000000 1.0
C      1  0.4887250000000  0.4732670000000  0.5141280000000 1.0
C      1  0.4813080000000  0.5317050000000  0.4883520000000 1.0
C      1  0.5189560000000  0.4747820000000  0.5288580000000 1.0
C      1  0.5119310000000  0.5298620000000  0.4867400000000 1.0
C      1  0.4459910000000  0.4381360000000  0.5748620000000 1.0
C      1  0.4422990000000  0.5615240000000  0.4234840000000 1.0
C      1  0.5553750000000  0.4388250000000  0.5749660000000 1.0
C      1  0.5571590000000  0.5619130000000  0.4225110000000 1.0
C      1  0.5158690000000  0.4812000000000  0.4025600000000 1.0
C      1  0.5086920000000  0.5268150000000  0.5979720000000 1.0
C      1  0.4858970000000  0.4828520000000  0.4013710000000 1.0
C      1  0.4808690000000  0.5203000000000  0.6056500000000 1.0
C      1  0.5143460000000  0.5521600000000  0.4263720000000 1.0
C      1  0.5141810000000  0.4485930000000  0.5704980000000 1.0
C      1  0.4855780000000  0.5512310000000  0.4285030000000 1.0
C      1  0.4863080000000  0.4501930000000  0.5704200000000 1.0
C      1  0.4713370000000  0.5060960000000  0.4877040000000 1.0
C      1  0.4738470000000  0.4971790000000  0.5130090000000 1.0
C      1  0.5214580000000  0.5044900000000  0.4922720000000 1.0
C      1  0.5262860000000  0.5022340000000  0.5212420000000 1.0
C      1  0.5566200000000  0.4502340000000  0.4337220000000 1.0
C      1  0.5543560000000  0.5483980000000  0.5666130000000 1.0
C      1  0.4435940000000  0.4501000000000  0.4346800000000 1.0
C      1  0.4428600000000  0.5513810000000  0.5648160000000 1.0
C      1  0.4685530000000  0.5609110000000  0.5752320000000 1.0
C      1  0.4705600000000  0.4432170000000  0.4258940000000 1.0
C      1  0.5288780000000  0.5565020000000  0.5785920000000 1.0
C      1  0.5290020000000  0.4471580000000  0.4232530000000 1.0
C      1  0.5613390000000  0.5831710000000  0.4897700000000 1.0
C      1  0.5606880000000  0.4148020000000  0.5090070000000 1.0
C      1  0.4432880000000  0.5733160000000  0.4886690000000 1.0
C      1  0.4375770000000  0.4158860000000  0.5087820000000 1.0
C      1  0.4830910000000  0.4338180000000  0.5308530000000 1.0
C      1  0.4865410000000  0.5693110000000  0.4737500000000 1.0
C      1  0.5108680000000  0.4338280000000  0.5171310000000 1.0
C      1  0.5137270000000  0.5689490000000  0.4736560000000 1.0
C      1  0.4875200000000  0.5435180000000  0.5630280000000 1.0
C      1  0.4874730000000  0.4614660000000  0.4395820000000 1.0
C      1  0.5120540000000  0.5361000000000  0.5720760000000 1.0
C      1  0.5158030000000  0.4624270000000  0.4446830000000 1.0
C      1  0.5250800000000  0.4554720000000  0.4725060000000 1.0
C      1  0.5154510000000  0.5273790000000  0.5342300000000 1.0
C      1  0.4773900000000  0.4753830000000  0.4624900000000 1.0
C      1  0.4878340000000  0.5282210000000  0.5401900000000 1.0
C      1  0.5604150000000  0.5203730000000  0.5556850000000 1.0
C      1  0.5633680000000  0.4777170000000  0.4306550000000 1.0
C      1  0.4400650000000  0.5220800000000  0.5661710000000 1.0
C      1  0.4404450000000  0.4784500000000  0.4325970000000 1.0
C      1  0.3837040000000  0.5024120000000  0.4730270000000 1.0
C      1  0.3848650000000  0.5018600000000  0.5132530000000 1.0
C      1  0.6143550000000  0.5032830000000  0.4862080000000 1.0
C      1  0.6154770000000  0.4931400000000  0.5132260000000 1.0
C      1  0.4277980000000  0.4310270000000  0.5539260000000 1.0
C      1  0.4258750000000  0.5676470000000  0.4455990000000 1.0
C      1  0.5727270000000  0.4306920000000  0.5552450000000 1.0
C      1  0.5738330000000  0.5685830000000  0.4442430000000 1.0
C      1  0.5266270000000  0.5317500000000  0.4432250000000 1.0
C      1  0.5249200000000  0.4720410000000  0.5567170000000 1.0
C      1  0.4769800000000  0.5294780000000  0.4468540000000 1.0
C      1  0.4710900000000  0.4733060000000  0.5567620000000 1.0
C      1  0.5818710000000  0.5654840000000  0.4988230000000 1.0
C      1  0.5816030000000  0.4328520000000  0.5008230000000 1.0
C      1  0.4187320000000  0.5609740000000  0.4985000000000 1.0
C      1  0.4159660000000  0.4336810000000  0.5018680000000 1.0
C      1  0.5490560000000  0.4125750000000  0.4631230000000 1.0
C      1  0.5494540000000  0.5855590000000  0.5361410000000 1.0
C      1  0.4522630000000  0.4147990000000  0.4649070000000 1.0
C      1  0.4493190000000  0.5882540000000  0.5345630000000 1.0
C      1  0.4321270000000  0.5683810000000  0.5445910000000 1.0
C      1  0.4327640000000  0.4349630000000  0.4559390000000 1.0
C      1  0.5651790000000  0.5642870000000  0.5456810000000 1.0
C      1  0.5666490000000  0.4335750000000  0.4548550000000 1.0
C      1  0.5473960000000  0.5381360000000  0.5011820000000 1.0
C      1  0.5455740000000  0.4625160000000  0.4911360000000 1.0
C      1  0.4501740000000  0.5338430000000  0.5178380000000 1.0
C      1  0.4470600000000  0.4654180000000  0.5034580000000 1.0
C      1  0.5594340000000  0.4122170000000  0.5376390000000 1.0
C      1  0.5605660000000  0.5869730000000  0.4612930000000 1.0
C      1  0.4413410000000  0.4133950000000  0.5358780000000 1.0
C      1  0.4402230000000  0.5842960000000  0.4626330000000 1.0
C      1  0.4011600000000  0.5338850000000  0.5338310000000 1.0
C      1  0.3954120000000  0.4639750000000  0.4759650000000 1.0
C      1  0.6034560000000  0.5348500000000  0.5237390000000 1.0
C      1  0.6044590000000  0.4643680000000  0.4762300000000 1.0
C      1  0.4856100000000  0.5970260000000  0.5181460000000 1.0
C      1  0.4870000000000  0.3978950000000  0.4936350000000 1.0
C      1  0.5144260000000  0.5970630000000  0.5189860000000 1.0
C      1  0.5136740000000  0.4006930000000  0.4801500000000 1.0
C      1  0.5621540000000  0.4887430000000  0.4846140000000 1.0
C      1  0.5632250000000  0.5116380000000  0.5047720000000 1.0
C      1  0.4340960000000  0.4861990000000  0.4889690000000 1.0
C      1  0.4306960000000  0.5121330000000  0.5098370000000 1.0
C      1  0.5419430000000  0.4041080000000  0.4895260000000 1.0
C      1  0.5423840000000  0.5927720000000  0.5093050000000 1.0
C      1  0.4580150000000  0.4060480000000  0.4906900000000 1.0
C      1  0.4584740000000  0.5893300000000  0.5076340000000 1.0
C      1  0.4607950000000  0.5156310000000  0.4069960000000 1.0
C      1  0.4581750000000  0.4860880000000  0.5982770000000 1.0
C      1  0.5417240000000  0.5148040000000  0.4061130000000 1.0
C      1  0.5450490000000  0.4882520000000  0.5961850000000 1.0
C      1  0.4035500000000  0.5435880000000  0.4820280000000 1.0
C      1  0.4025590000000  0.4533550000000  0.5189460000000 1.0
C      1  0.5960020000000  0.5488000000000  0.4803380000000 1.0
C      1  0.5954530000000  0.4500970000000  0.5188450000000 1.0
C      1  0.4120650000000  0.5587260000000  0.5266850000000 1.0
C      1  0.4130280000000  0.4417240000000  0.4749350000000 1.0
C      1  0.5849290000000  0.5567810000000  0.5260290000000 1.0
C      1  0.5866230000000  0.4412410000000  0.4739430000000 1.0
C      1  0.5866300000000  0.5024900000000  0.5578010000000 1.0
C      1  0.5825380000000  0.4959220000000  0.4418650000000 1.0
C      1  0.4174840000000  0.5044180000000  0.5575470000000 1.0
C      1  0.4183820000000  0.4950030000000  0.4409430000000 1.0
C      1  0.4034060000000  0.4877800000000  0.4639200000000 1.0
C      1  0.4053320000000  0.5101680000000  0.5317600000000 1.0
C      1  0.5929870000000  0.4897030000000  0.4681680000000 1.0
C      1  0.6035050000000  0.5086900000000  0.5353770000000 1.0
C      1  0.5198740000000  0.5034910000000  0.4462430000000 1.0
C      1  0.5109280000000  0.4940220000000  0.5682050000000 1.0
C      1  0.4910080000000  0.5042960000000  0.4506620000000 1.0
C      1  0.4860550000000  0.4980540000000  0.5551520000000 1.0
C      1  0.4854690000000  0.5841680000000  0.5693640000000 1.0
C      1  0.4862270000000  0.4183490000000  0.4305160000000 1.0
C      1  0.5139830000000  0.5805130000000  0.5698270000000 1.0
C      1  0.5153960000000  0.4214490000000  0.4289900000000 1.0
C      1  0.5187330000000  0.5441600000000  0.5116020000000 1.0
C      1  0.5055830000000  0.4412180000000  0.4880880000000 1.0
C      1  0.4776350000000  0.5418840000000  0.5156470000000 1.0
C      1  0.4849000000000  0.4605010000000  0.4874960000000 1.0
END
