TITL C-2441161-5029-192 0.0915254258667774 125000 -20643.2676908663 0 0 158 (C1) n - 1
REM
REM in /home/bkarasulu/work/CARBON/AIRSS/Generating-Clusters/ReaxFF-fromJPCA2015/Units_Real/with-SteepDescent/Higher-Symm
REM
REM
REM
REM
REM
REM ./C.cell (1df0a924f5614ab8850e4351716899ee)
REM
REM compiler GCC version 9.2.1 20190827 (Red Hat 9.2.1-1)
REM options -cpp -mtune=generic -march=x86-64 -g -O0 -fpre-include=/usr/include/finclude/math-vector-fortran.h
REM seed -1806077656 -1252648506 -1217791403 1138987745 76567821 -1294514429 -1595162792 -861033 1996323704 -1359985302 1847899041 -676037164 1903036761 -1397160193 608626865 -2095158138 -1307110853 1574658382 -1643215977 -120989894 1313995836 1920573771 599485929 430531381 -2147038682 -1287688653 1087988737 -66873049 79538369 936230761 1320426868 1123491570 -1362915421
REM
CELL 1.54180   50.00000   50.00000   50.00000   90.00000   90.00000   90.00000
LATT -1
SFAC C  
C      1  0.5613600000000  0.5192360000000  0.4721270000000 1.0
C      1  0.5389570000000  0.4510410000000  0.4667670000000 1.0
C      1  0.4820700000000  0.4412040000000  0.4647400000000 1.0
C      1  0.4360150000000  0.4811070000000  0.4664580000000 1.0
C      1  0.4611710000000  0.5464990000000  0.4660360000000 1.0
C      1  0.5137640000000  0.5609190000000  0.4666630000000 1.0
C      1  0.5618480000000  0.4825310000000  0.5297370000000 1.0
C      1  0.5466950000000  0.5446240000000  0.5324470000000 1.0
C      1  0.4828060000000  0.5489290000000  0.5331420000000 1.0
C      1  0.4403430000000  0.5171690000000  0.5276450000000 1.0
C      1  0.4539590000000  0.4544740000000  0.5334140000000 1.0
C      1  0.5130160000000  0.4399220000000  0.5305800000000 1.0
C      1  0.5708880000000  0.4922560000000  0.4594210000000 1.0
C      1  0.5214860000000  0.4297910000000  0.4550310000000 1.0
C      1  0.4549620000000  0.4475160000000  0.4556700000000 1.0
C      1  0.4252740000000  0.5071250000000  0.4567710000000 1.0
C      1  0.4788240000000  0.5667690000000  0.4556870000000 1.0
C      1  0.5412000000000  0.5521840000000  0.4566430000000 1.0
C      1  0.5664430000000  0.5122760000000  0.5399790000000 1.0
C      1  0.5278910000000  0.5654840000000  0.5431540000000 1.0
C      1  0.4538300000000  0.5473020000000  0.5404990000000 1.0
C      1  0.4346270000000  0.4887450000000  0.5396710000000 1.0
C      1  0.4788180000000  0.4336670000000  0.5418660000000 1.0
C      1  0.5414830000000  0.4485730000000  0.5412060000000 1.0
C      1  0.4592990000000  0.4427680000000  0.4271350000000 1.0
C      1  0.4274100000000  0.5070410000000  0.4278820000000 1.0
C      1  0.4689020000000  0.5648900000000  0.4282520000000 1.0
C      1  0.5407730000000  0.5570780000000  0.4275620000000 1.0
C      1  0.5712090000000  0.4920090000000  0.4296100000000 1.0
C      1  0.5302870000000  0.4358570000000  0.4276200000000 1.0
C      1  0.4560090000000  0.5556660000000  0.5697480000000 1.0
C      1  0.4328100000000  0.4932080000000  0.5688750000000 1.0
C      1  0.4713120000000  0.4338670000000  0.5704080000000 1.0
C      1  0.5419720000000  0.4427650000000  0.5696600000000 1.0
C      1  0.5704200000000  0.5067570000000  0.5692090000000 1.0
C      1  0.5304300000000  0.5647010000000  0.5718550000000 1.0
C      1  0.4150230000000  0.5475250000000  0.4826450000000 1.0
C      1  0.4965300000000  0.6046430000000  0.4693700000000 1.0
C      1  0.5894660000000  0.5556340000000  0.4724210000000 1.0
C      1  0.5838820000000  0.4516960000000  0.4831540000000 1.0
C      1  0.5025360000000  0.3968200000000  0.4878890000000 1.0
C      1  0.4158850000000  0.4465610000000  0.4727220000000 1.0
C      1  0.4074850000000  0.4491730000000  0.5311940000000 1.0
C      1  0.4972030000000  0.4000460000000  0.5175250000000 1.0
C      1  0.5834380000000  0.4486710000000  0.5129360000000 1.0
C      1  0.5851510000000  0.5443090000000  0.5186500000000 1.0
C      1  0.5024760000000  0.6006870000000  0.5287700000000 1.0
C      1  0.4157550000000  0.5511230000000  0.5125530000000 1.0
C      1  0.5913420000000  0.4802290000000  0.4770780000000 1.0
C      1  0.5271480000000  0.4065140000000  0.4733750000000 1.0
C      1  0.4379950000000  0.4274480000000  0.4697720000000 1.0
C      1  0.4077780000000  0.5191460000000  0.4769420000000 1.0
C      1  0.4704790000000  0.5918490000000  0.4714530000000 1.0
C      1  0.5629110000000  0.5702660000000  0.4671070000000 1.0
C      1  0.5948890000000  0.5202630000000  0.5325680000000 1.0
C      1  0.5304790000000  0.5906310000000  0.5282940000000 1.0
C      1  0.4341030000000  0.5676990000000  0.5279740000000 1.0
C      1  0.4069290000000  0.4798150000000  0.5342900000000 1.0
C      1  0.4708030000000  0.4102230000000  0.5257370000000 1.0
C      1  0.5637030000000  0.4326700000000  0.5275530000000 1.0
C      1  0.5314190000000  0.5096860000000  0.4394080000000 1.0
C      1  0.5282850000000  0.4825030000000  0.4492960000000 1.0
C      1  0.5016700000000  0.4766310000000  0.4381290000000 1.0
C      1  0.4747150000000  0.4876560000000  0.4450580000000 1.0
C      1  0.4695890000000  0.5186140000000  0.4445100000000 1.0
C      1  0.4960770000000  0.5297070000000  0.4408800000000 1.0
C      1  0.5288930000000  0.4918540000000  0.5616210000000 1.0
C      1  0.5247430000000  0.5176360000000  0.5505440000000 1.0
C      1  0.4987020000000  0.5330900000000  0.5538600000000 1.0
C      1  0.4812260000000  0.5097570000000  0.5616050000000 1.0
C      1  0.4744580000000  0.4829850000000  0.5491160000000 1.0
C      1  0.4964120000000  0.4679480000000  0.5610120000000 1.0
C      1  0.4768510000000  0.4847300000000  0.3991870000000 1.0
C      1  0.4749470000000  0.5134720000000  0.3994170000000 1.0
C      1  0.4983510000000  0.5290950000000  0.3971930000000 1.0
C      1  0.5233720000000  0.5132060000000  0.3975240000000 1.0
C      1  0.5279100000000  0.4837500000000  0.4000220000000 1.0
C      1  0.5023800000000  0.4700330000000  0.3974440000000 1.0
C      1  0.4743680000000  0.5152620000000  0.5988840000000 1.0
C      1  0.4737940000000  0.4850880000000  0.5989910000000 1.0
C      1  0.4994640000000  0.4708940000000  0.6016110000000 1.0
C      1  0.5247330000000  0.4850070000000  0.6016540000000 1.0
C      1  0.5250150000000  0.5139960000000  0.5979600000000 1.0
C      1  0.5004850000000  0.5289860000000  0.5976840000000 1.0
C      1  0.5249370000000  0.4870080000000  0.4765360000000 1.0
C      1  0.4994880000000  0.4758610000000  0.4837450000000 1.0
C      1  0.4739590000000  0.4833510000000  0.4739080000000 1.0
C      1  0.4700740000000  0.5105190000000  0.4872630000000 1.0
C      1  0.4991110000000  0.5250580000000  0.4805810000000 1.0
C      1  0.5261150000000  0.5158150000000  0.4817810000000 1.0
C      1  0.5243130000000  0.5123480000000  0.5218690000000 1.0
C      1  0.5004390000000  0.5229290000000  0.5099240000000 1.0
C      1  0.4785080000000  0.5083260000000  0.5144300000000 1.0
C      1  0.4789650000000  0.4841430000000  0.5228740000000 1.0
C      1  0.4997520000000  0.4747970000000  0.5107580000000 1.0
C      1  0.5240930000000  0.4841510000000  0.5170550000000 1.0
C      1  0.4541580000000  0.5882310000000  0.5220390000000 1.0
C      1  0.5488610000000  0.5816110000000  0.5066050000000 1.0
C      1  0.6029560000000  0.4935110000000  0.5228690000000 1.0
C      1  0.5459660000000  0.4103010000000  0.5203430000000 1.0
C      1  0.4466980000000  0.4216450000000  0.5100640000000 1.0
C      1  0.3989100000000  0.5058300000000  0.5222190000000 1.0
C      1  0.4603350000000  0.4146050000000  0.4856850000000 1.0
C      1  0.5473640000000  0.4157680000000  0.4923650000000 1.0
C      1  0.5934140000000  0.4997100000000  0.4974190000000 1.0
C      1  0.5452930000000  0.5889880000000  0.4792090000000 1.0
C      1  0.4534370000000  0.5825370000000  0.4939340000000 1.0
C      1  0.4070840000000  0.4978000000000  0.4964230000000 1.0
C      1  0.4247810000000  0.4682820000000  0.4918200000000 1.0
C      1  0.4600900000000  0.5519080000000  0.4936550000000 1.0
C      1  0.5142920000000  0.5613140000000  0.4957110000000 1.0
C      1  0.5671820000000  0.5307380000000  0.4990310000000 1.0
C      1  0.5377370000000  0.4463170000000  0.4937880000000 1.0
C      1  0.4846490000000  0.4353620000000  0.4925090000000 1.0
C      1  0.4470400000000  0.5248840000000  0.4998480000000 1.0
C      1  0.4457530000000  0.4513200000000  0.5060880000000 1.0
C      1  0.5106240000000  0.4382230000000  0.5031390000000 1.0
C      1  0.5478650000000  0.4735610000000  0.5057060000000 1.0
C      1  0.5450260000000  0.5506100000000  0.5047060000000 1.0
C      1  0.4886640000000  0.5601560000000  0.5074180000000 1.0
C      1  0.4463180000000  0.4480880000000  0.5729050000000 1.0
C      1  0.4301870000000  0.5218790000000  0.5669570000000 1.0
C      1  0.4797990000000  0.5725960000000  0.5668150000000 1.0
C      1  0.5566940000000  0.5517370000000  0.5696650000000 1.0
C      1  0.5733110000000  0.4782560000000  0.5684030000000 1.0
C      1  0.5197170000000  0.4255790000000  0.5680520000000 1.0
C      1  0.4430060000000  0.5526980000000  0.4312930000000 1.0
C      1  0.4276980000000  0.4782230000000  0.4267650000000 1.0
C      1  0.4829650000000  0.4261370000000  0.4275790000000 1.0
C      1  0.5559590000000  0.4487910000000  0.4310660000000 1.0
C      1  0.5743550000000  0.5209150000000  0.4285080000000 1.0
C      1  0.5178810000000  0.5733220000000  0.4278620000000 1.0
C      1  0.4506640000000  0.5306550000000  0.5838370000000 1.0
C      1  0.5023680000000  0.5550940000000  0.5791390000000 1.0
C      1  0.5489810000000  0.5250210000000  0.5800930000000 1.0
C      1  0.5469870000000  0.4723420000000  0.5805420000000 1.0
C      1  0.4980260000000  0.4432260000000  0.5809110000000 1.0
C      1  0.4497590000000  0.4744780000000  0.5849540000000 1.0
C      1  0.4568290000000  0.4715690000000  0.4190110000000 1.0
C      1  0.5044940000000  0.4477670000000  0.4180500000000 1.0
C      1  0.5520000000000  0.4738940000000  0.4161780000000 1.0
C      1  0.5464660000000  0.5272950000000  0.4192040000000 1.0
C      1  0.4962120000000  0.5538610000000  0.4188130000000 1.0
C      1  0.4507540000000  0.5246340000000  0.4198320000000 1.0
C      1  0.5877260000000  0.4696200000000  0.5358980000000 1.0
C      1  0.5199690000000  0.4108510000000  0.5368620000000 1.0
C      1  0.4307670000000  0.4409430000000  0.5472790000000 1.0
C      1  0.4139430000000  0.5292770000000  0.5346640000000 1.0
C      1  0.4783200000000  0.5892170000000  0.5415530000000 1.0
C      1  0.5715390000000  0.5558760000000  0.5422600000000 1.0
C      1  0.5843320000000  0.5321860000000  0.4549890000000 1.0
C      1  0.5201510000000  0.5897950000000  0.4567090000000 1.0
C      1  0.4331660000000  0.5543130000000  0.4593960000000 1.0
C      1  0.4157910000000  0.4656170000000  0.4508040000000 1.0
C      1  0.4868240000000  0.4148610000000  0.4538770000000 1.0
C      1  0.5664040000000  0.4448230000000  0.4598760000000 1.0
C      1  0.5034820000000  0.4936990000000  0.5711920000000 1.0
C      1  0.5059050000000  0.5052340000000  0.4270170000000 1.0
END
