TITL C-2441164-471-695 0.000481803300573547 125000 -9169.44248934766 0 0 63 (C1) n - 1
REM
REM in /home/bkarasulu/work/CARBON/AIRSS/Generating-Clusters/ReaxFF-fromJPCA2015/Units_Real/with-SteepDescent/Higher-Symm
REM
REM
REM
REM
REM
REM ./C.cell (1df0a924f5614ab8850e4351716899ee)
REM
REM compiler GCC version 9.2.1 20190827 (Red Hat 9.2.1-1)
REM options -cpp -mtune=generic -march=x86-64 -g -O0 -fpre-include=/usr/include/finclude/math-vector-fortran.h
REM seed 690706917 1233881544 1431323249 835569922 704377709 -535556580 489850386 -823970921 -461809962 1727506015 -893113843 2036939616 -102848528 1171647865 2078367681 -1538657500 -1103664482 932798032 1026288293 438024898 441779557 1607666474 -440461566 -1818526854 989865182 -428471521 -302149381 -1250095960 1138405345 -1503612485 -1272571163 -763698763 634697935
REM
CELL 1.54180   50.00000   50.00000   50.00000   90.00000   90.00000   90.00000
LATT -1
SFAC C  
C      1  0.5271450000000  0.4490050000000  0.4658750000000 1.0
C      1  0.4987920000000  0.4500860000000  0.4556190000000 1.0
C      1  0.4711570000000  0.4491070000000  0.4681110000000 1.0
C      1  0.4564490000000  0.4497510000000  0.4937460000000 1.0
C      1  0.4638520000000  0.4489870000000  0.5233410000000 1.0
C      1  0.4864310000000  0.4496890000000  0.5422630000000 1.0
C      1  0.5169110000000  0.4488420000000  0.5402510000000 1.0
C      1  0.5395530000000  0.4491390000000  0.5214190000000 1.0
C      1  0.5428210000000  0.4477850000000  0.4910400000000 1.0
C      1  0.4829120000000  0.5495200000000  0.4602490000000 1.0
C      1  0.4613260000000  0.5495270000000  0.4804610000000 1.0
C      1  0.4578090000000  0.5494780000000  0.5098390000000 1.0
C      1  0.4740410000000  0.5495190000000  0.5345640000000 1.0
C      1  0.5023710000000  0.5494880000000  0.5431200000000 1.0
C      1  0.5295860000000  0.5494350000000  0.5314880000000 1.0
C      1  0.5430290000000  0.5495270000000  0.5051290000000 1.0
C      1  0.5361800000000  0.5494440000000  0.4763670000000 1.0
C      1  0.5124480000000  0.5496490000000  0.4586840000000 1.0
C      1  0.4602410000000  0.5323330000000  0.5531310000000 1.0
C      1  0.5037170000000  0.5323540000000  0.5662510000000 1.0
C      1  0.5454250000000  0.5322630000000  0.5483630000000 1.0
C      1  0.5662970000000  0.5325160000000  0.5077180000000 1.0
C      1  0.5553970000000  0.5321990000000  0.4635510000000 1.0
C      1  0.5190210000000  0.5326060000000  0.4363950000000 1.0
C      1  0.4737400000000  0.5323810000000  0.4389620000000 1.0
C      1  0.4406640000000  0.5323280000000  0.4700860000000 1.0
C      1  0.4353270000000  0.5322530000000  0.5151730000000 1.0
C      1  0.5158190000000  0.5005090000000  0.5370540000000 1.0
C      1  0.5362330000000  0.5005870000000  0.5184610000000 1.0
C      1  0.5392360000000  0.5007610000000  0.4909560000000 1.0
C      1  0.5240860000000  0.5007860000000  0.4679230000000 1.0
C      1  0.4978360000000  0.5009750000000  0.4597360000000 1.0
C      1  0.4724790000000  0.5006080000000  0.4705530000000 1.0
C      1  0.4598690000000  0.5007380000000  0.4950620000000 1.0
C      1  0.4663020000000  0.5005060000000  0.5219160000000 1.0
C      1  0.4882870000000  0.5007680000000  0.5385920000000 1.0
C      1  0.4525180000000  0.5161870000000  0.4495620000000 1.0
C      1  0.4313020000000  0.5164110000000  0.4918340000000 1.0
C      1  0.4421300000000  0.5160930000000  0.5379460000000 1.0
C      1  0.4800620000000  0.5164840000000  0.5661250000000 1.0
C      1  0.5273240000000  0.5161790000000  0.5636120000000 1.0
C      1  0.5617410000000  0.5162720000000  0.5312900000000 1.0
C      1  0.5671050000000  0.5159340000000  0.4837680000000 1.0
C      1  0.5412090000000  0.5164220000000  0.4444330000000 1.0
C      1  0.4960410000000  0.5166640000000  0.4309140000000 1.0
C      1  0.5602530000000  0.4662140000000  0.5308750000000 1.0
C      1  0.5624340000000  0.4649350000000  0.4825940000000 1.0
C      1  0.5367510000000  0.4651990000000  0.4444360000000 1.0
C      1  0.4969030000000  0.4666000000000  0.4327780000000 1.0
C      1  0.4519590000000  0.4646690000000  0.4545840000000 1.0
C      1  0.4333660000000  0.4662440000000  0.4915930000000 1.0
C      1  0.4470930000000  0.4646180000000  0.5396320000000 1.0
C      1  0.4802660000000  0.4664050000000  0.5644630000000 1.0
C      1  0.5300000000000  0.4647030000000  0.5593610000000 1.0
C      1  0.4311120000000  0.4860290000000  0.5465620000000 1.0
C      1  0.4760960000000  0.4870890000000  0.5819580000000 1.0
C      1  0.5339350000000  0.4861850000000  0.5762170000000 1.0
C      1  0.5767870000000  0.4868610000000  0.5379450000000 1.0
C      1  0.5800690000000  0.4852200000000  0.4784860000000 1.0
C      1  0.5487160000000  0.4867510000000  0.4318450000000 1.0
C      1  0.4945120000000  0.4872170000000  0.4148460000000 1.0
C      1  0.4422070000000  0.4861220000000  0.4402040000000 1.0
C      1  0.4153180000000  0.4868450000000  0.4906850000000 1.0
END
