TITL C-2441160-1326-8 0.097019203259937 125000 -19665.2922560508 0 0 152 (C1) n - 1
REM
REM in /home/bkarasulu/work/CARBON/AIRSS/Generating-Clusters/ReaxFF-fromJPCA2015/Units_Real/with-SteepDescent/Higher-Symm
REM
REM
REM
REM
REM
REM ./C.cell (1df0a924f5614ab8850e4351716899ee)
REM
REM compiler GCC version 9.2.1 20190827 (Red Hat 9.2.1-1)
REM options -cpp -mtune=generic -march=x86-64 -g -O0 -fpre-include=/usr/include/finclude/math-vector-fortran.h
REM seed 695928000 1417536375 626705904 -1490485844 -251154407 1605879353 332164753 1588835739 -359813127 -1291218147 729143037 -262947693 1633118501 1969649760 425890057 540812425 1184727598 898144240 633608603 -728721107 2142658630 805641340 599713282 1270887516 1443008684 1310770741 313442637 469614695 703311825 -1029284429 799438326 700752385 -1882557946
REM
CELL 1.54180   50.00000   50.00000   50.00000   90.00000   90.00000   90.00000
LATT -1
SFAC C  
C      1  0.4777920000000  0.5894230000000  0.4487820000000 1.0
C      1  0.5219580000000  0.4109090000000  0.4483990000000 1.0
C      1  0.4596810000000  0.5105140000000  0.4632670000000 1.0
C      1  0.5411800000000  0.4877400000000  0.4609130000000 1.0
C      1  0.5453760000000  0.5206700000000  0.4162300000000 1.0
C      1  0.4564160000000  0.4770000000000  0.4211710000000 1.0
C      1  0.5269180000000  0.4091280000000  0.4899330000000 1.0
C      1  0.4750970000000  0.5892930000000  0.4910450000000 1.0
C      1  0.5022540000000  0.4837520000000  0.4285350000000 1.0
C      1  0.4976660000000  0.5141470000000  0.4274110000000 1.0
C      1  0.5010230000000  0.5544220000000  0.4648640000000 1.0
C      1  0.5018900000000  0.4458250000000  0.4711800000000 1.0
C      1  0.5440180000000  0.4140830000000  0.4673910000000 1.0
C      1  0.4572700000000  0.5856760000000  0.4685910000000 1.0
C      1  0.4893850000000  0.4742480000000  0.5067140000000 1.0
C      1  0.5043150000000  0.5193270000000  0.5204830000000 1.0
C      1  0.4492960000000  0.4867810000000  0.5074480000000 1.0
C      1  0.5482000000000  0.5077320000000  0.5047380000000 1.0
C      1  0.4716790000000  0.4380600000000  0.4232100000000 1.0
C      1  0.5197720000000  0.5640240000000  0.4287570000000 1.0
C      1  0.5388590000000  0.5331420000000  0.5496510000000 1.0
C      1  0.4672420000000  0.4716870000000  0.5468340000000 1.0
C      1  0.4581460000000  0.5045230000000  0.4112660000000 1.0
C      1  0.5433040000000  0.4925750000000  0.4086700000000 1.0
C      1  0.5257750000000  0.5441070000000  0.4748640000000 1.0
C      1  0.4734140000000  0.4479470000000  0.4704220000000 1.0
C      1  0.4816780000000  0.5902800000000  0.5201370000000 1.0
C      1  0.5178950000000  0.4106700000000  0.5219180000000 1.0
C      1  0.4225440000000  0.5043460000000  0.5430210000000 1.0
C      1  0.5779020000000  0.4979080000000  0.5449160000000 1.0
C      1  0.5790140000000  0.5241150000000  0.4745610000000 1.0
C      1  0.4195050000000  0.4797080000000  0.4782010000000 1.0
C      1  0.5384000000000  0.5839240000000  0.5314600000000 1.0
C      1  0.4629990000000  0.4167270000000  0.5289780000000 1.0
C      1  0.5651250000000  0.4594010000000  0.5438220000000 1.0
C      1  0.4528290000000  0.5359290000000  0.5369830000000 1.0
C      1  0.5178960000000  0.5999980000000  0.4909830000000 1.0
C      1  0.4862070000000  0.3998520000000  0.4960560000000 1.0
C      1  0.4233270000000  0.4434260000000  0.5357870000000 1.0
C      1  0.5763190000000  0.5513670000000  0.5356960000000 1.0
C      1  0.5195270000000  0.4317410000000  0.4275800000000 1.0
C      1  0.4781490000000  0.5680490000000  0.4274090000000 1.0
C      1  0.5534250000000  0.4349910000000  0.5374540000000 1.0
C      1  0.4463180000000  0.5620040000000  0.5400740000000 1.0
C      1  0.4744280000000  0.4965070000000  0.5122100000000 1.0
C      1  0.5195990000000  0.5074360000000  0.5026040000000 1.0
C      1  0.4450190000000  0.4853060000000  0.5350510000000 1.0
C      1  0.5487060000000  0.5094140000000  0.5353640000000 1.0
C      1  0.5882890000000  0.4913710000000  0.4244540000000 1.0
C      1  0.4136200000000  0.5033450000000  0.4267410000000 1.0
C      1  0.5770700000000  0.4763540000000  0.5247720000000 1.0
C      1  0.4199000000000  0.5156700000000  0.5163680000000 1.0
C      1  0.4376840000000  0.4838570000000  0.5888820000000 1.0
C      1  0.5534620000000  0.5115800000000  0.5895930000000 1.0
C      1  0.4132540000000  0.5848320000000  0.5114130000000 1.0
C      1  0.5864840000000  0.4165770000000  0.5090450000000 1.0
C      1  0.4895870000000  0.3976210000000  0.5243280000000 1.0
C      1  0.5101930000000  0.5974500000000  0.5186750000000 1.0
C      1  0.5765450000000  0.5526640000000  0.4803200000000 1.0
C      1  0.4185260000000  0.4514230000000  0.4793670000000 1.0
C      1  0.5625000000000  0.5088350000000  0.4569020000000 1.0
C      1  0.4381000000000  0.4901190000000  0.4598820000000 1.0
C      1  0.5636770000000  0.4549350000000  0.4857680000000 1.0
C      1  0.4355890000000  0.5482990000000  0.4869620000000 1.0
C      1  0.5223650000000  0.4631450000000  0.5744860000000 1.0
C      1  0.4779020000000  0.5443350000000  0.5798590000000 1.0
C      1  0.5557640000000  0.5368800000000  0.5736050000000 1.0
C      1  0.4346250000000  0.4603950000000  0.5729100000000 1.0
C      1  0.5526590000000  0.4411770000000  0.4611940000000 1.0
C      1  0.4476250000000  0.5599580000000  0.4630220000000 1.0
C      1  0.5224610000000  0.5089830000000  0.4584990000000 1.0
C      1  0.4792030000000  0.4892520000000  0.4646760000000 1.0
C      1  0.4825530000000  0.5033690000000  0.6153610000000 1.0
C      1  0.5114430000000  0.4970810000000  0.6122700000000 1.0
C      1  0.5356450000000  0.5477590000000  0.5017140000000 1.0
C      1  0.4607380000000  0.4582260000000  0.4977320000000 1.0
C      1  0.4295510000000  0.4783420000000  0.4339510000000 1.0
C      1  0.5712930000000  0.5162630000000  0.4301720000000 1.0
C      1  0.4815330000000  0.5364170000000  0.4783440000000 1.0
C      1  0.5212060000000  0.4654460000000  0.4802630000000 1.0
C      1  0.5168430000000  0.4703530000000  0.5451960000000 1.0
C      1  0.4869370000000  0.5279150000000  0.5561400000000 1.0
C      1  0.5953000000000  0.5068150000000  0.4905230000000 1.0
C      1  0.4041870000000  0.5000230000000  0.4963810000000 1.0
C      1  0.4729570000000  0.4890150000000  0.5695960000000 1.0
C      1  0.5157380000000  0.5176370000000  0.5641150000000 1.0
C      1  0.5873390000000  0.5511820000000  0.5076760000000 1.0
C      1  0.4103680000000  0.4502030000000  0.5078960000000 1.0
C      1  0.5448560000000  0.5916770000000  0.4834940000000 1.0
C      1  0.4578560000000  0.4220260000000  0.4759570000000 1.0
C      1  0.4848280000000  0.5086580000000  0.5348430000000 1.0
C      1  0.5257290000000  0.4962160000000  0.5469100000000 1.0
C      1  0.5584550000000  0.5710960000000  0.5501830000000 1.0
C      1  0.4427410000000  0.4262350000000  0.5498790000000 1.0
C      1  0.5663800000000  0.4314230000000  0.5098470000000 1.0
C      1  0.4318420000000  0.5687440000000  0.5135300000000 1.0
C      1  0.4133960000000  0.5222760000000  0.4494880000000 1.0
C      1  0.5899240000000  0.4779190000000  0.4507590000000 1.0
C      1  0.4808900000000  0.4433600000000  0.5391280000000 1.0
C      1  0.5206700000000  0.5572530000000  0.5402520000000 1.0
C      1  0.6002960000000  0.5249560000000  0.5131280000000 1.0
C      1  0.4001750000000  0.4739460000000  0.5200520000000 1.0
C      1  0.4787780000000  0.4735690000000  0.4419690000000 1.0
C      1  0.5232180000000  0.5238920000000  0.4358140000000 1.0
C      1  0.5402560000000  0.4492410000000  0.4369020000000 1.0
C      1  0.4583540000000  0.5499970000000  0.4385760000000 1.0
C      1  0.4353170000000  0.4339600000000  0.4613630000000 1.0
C      1  0.5595510000000  0.5722690000000  0.4660660000000 1.0
C      1  0.4842190000000  0.4349100000000  0.5655340000000 1.0
C      1  0.5153720000000  0.5691530000000  0.5670530000000 1.0
C      1  0.5439210000000  0.5634440000000  0.5745640000000 1.0
C      1  0.4556810000000  0.4391880000000  0.5722040000000 1.0
C      1  0.4985570000000  0.5859700000000  0.4706230000000 1.0
C      1  0.5029610000000  0.4144620000000  0.4719290000000 1.0
C      1  0.4859320000000  0.5280700000000  0.6017480000000 1.0
C      1  0.5046300000000  0.4722150000000  0.5975160000000 1.0
C      1  0.3989260000000  0.5192290000000  0.4747690000000 1.0
C      1  0.6012340000000  0.4823060000000  0.4768780000000 1.0
C      1  0.4543210000000  0.4295580000000  0.5038550000000 1.0
C      1  0.5497900000000  0.5742020000000  0.5061790000000 1.0
C      1  0.4970150000000  0.4444960000000  0.4135810000000 1.0
C      1  0.4993310000000  0.5537540000000  0.4131980000000 1.0
C      1  0.5901690000000  0.5256500000000  0.5405640000000 1.0
C      1  0.4103480000000  0.4673730000000  0.5467070000000 1.0
C      1  0.4990610000000  0.4759350000000  0.3992400000000 1.0
C      1  0.4996690000000  0.5229130000000  0.3984640000000 1.0
C      1  0.5129770000000  0.4349070000000  0.5678750000000 1.0
C      1  0.4864730000000  0.5711940000000  0.5688370000000 1.0
C      1  0.5104640000000  0.5183000000000  0.4787160000000 1.0
C      1  0.4980030000000  0.4822320000000  0.4830220000000 1.0
C      1  0.5883050000000  0.4579120000000  0.4712830000000 1.0
C      1  0.4120890000000  0.5427050000000  0.4714040000000 1.0
C      1  0.5020050000000  0.4361890000000  0.5201100000000 1.0
C      1  0.5087220000000  0.5573110000000  0.5130660000000 1.0
C      1  0.5252220000000  0.5159230000000  0.5945420000000 1.0
C      1  0.4765740000000  0.4791900000000  0.5971920000000 1.0
C      1  0.5462580000000  0.5668710000000  0.4390560000000 1.0
C      1  0.4473190000000  0.4406780000000  0.4362430000000 1.0
C      1  0.4495440000000  0.5069770000000  0.5773050000000 1.0
C      1  0.5493510000000  0.4837540000000  0.5824690000000 1.0
C      1  0.4652360000000  0.5217980000000  0.4359630000000 1.0
C      1  0.5340310000000  0.4766620000000  0.4340870000000 1.0
C      1  0.4456080000000  0.5266620000000  0.5089520000000 1.0
C      1  0.5618150000000  0.4819240000000  0.5011260000000 1.0
C      1  0.5708460000000  0.4766400000000  0.5653500000000 1.0
C      1  0.4370420000000  0.5257600000000  0.5579260000000 1.0
C      1  0.5300200000000  0.4229950000000  0.5477650000000 1.0
C      1  0.4706850000000  0.5776940000000  0.5447520000000 1.0
C      1  0.5166570000000  0.4608730000000  0.5177280000000 1.0
C      1  0.4851930000000  0.5402280000000  0.5072050000000 1.0
C      1  0.4794860000000  0.5021680000000  0.3927170000000 1.0
C      1  0.5199750000000  0.4959730000000  0.3924740000000 1.0
END
