TITL C-2441163-1170-1262 0.127065225579157 125000 -24334.8254899834 0 0 184 (C1) n - 1
REM
REM in /home/bkarasulu/work/CARBON/AIRSS/Generating-Clusters/ReaxFF-fromJPCA2015/Units_Real/with-SteepDescent/Higher-Symm
REM
REM
REM
REM
REM
REM ./C.cell (1df0a924f5614ab8850e4351716899ee)
REM
REM compiler GCC version 9.2.1 20190827 (Red Hat 9.2.1-1)
REM options -cpp -mtune=generic -march=x86-64 -g -O0 -fpre-include=/usr/include/finclude/math-vector-fortran.h
REM seed 340720181 1555933960 1069745497 584451596 -1679088290 -1910761724 1343160650 -20214489 -249517630 -430923088 -795708817 631348642 -928920956 -1706448612 -109090226 1043721899 1460473765 1048423618 -1121339999 -200653847 -1266831005 -819106857 -18912549 1310969543 -203284967 -516440974 384156179 -475673741 2039962786 1762907624 2101573173 1897000854 -1112860358
REM
CELL 1.54180   50.00000   50.00000   50.00000   90.00000   90.00000   90.00000
LATT -1
SFAC C  
C      1  0.4606590000000  0.4126690000000  0.4777830000000 1.0
C      1  0.4000300000000  0.5083780000000  0.4588320000000 1.0
C      1  0.5480340000000  0.5964240000000  0.4827730000000 1.0
C      1  0.5066970000000  0.4111050000000  0.4632650000000 1.0
C      1  0.5203170000000  0.5948860000000  0.4716120000000 1.0
C      1  0.5772480000000  0.5275880000000  0.4640180000000 1.0
C      1  0.4355090000000  0.5844710000000  0.5136180000000 1.0
C      1  0.4233450000000  0.5538320000000  0.5428550000000 1.0
C      1  0.4021250000000  0.5051700000000  0.5132290000000 1.0
C      1  0.4524680000000  0.5136440000000  0.4521060000000 1.0
C      1  0.5573550000000  0.4859440000000  0.4038180000000 1.0
C      1  0.4464480000000  0.5893740000000  0.4873950000000 1.0
C      1  0.4743920000000  0.4187600000000  0.4298710000000 1.0
C      1  0.4663990000000  0.4421690000000  0.4713920000000 1.0
C      1  0.4397280000000  0.5679010000000  0.4517720000000 1.0
C      1  0.5738780000000  0.4662180000000  0.4420880000000 1.0
C      1  0.4663900000000  0.4273660000000  0.5763200000000 1.0
C      1  0.4641050000000  0.4490370000000  0.5935690000000 1.0
C      1  0.5918690000000  0.4663400000000  0.5751030000000 1.0
C      1  0.5337750000000  0.4554250000000  0.5973000000000 1.0
C      1  0.4917260000000  0.4849390000000  0.4653900000000 1.0
C      1  0.4932710000000  0.5094110000000  0.4233680000000 1.0
C      1  0.5060970000000  0.4139300000000  0.5333070000000 1.0
C      1  0.4105180000000  0.5336490000000  0.4692810000000 1.0
C      1  0.5522090000000  0.5774480000000  0.5053650000000 1.0
C      1  0.5032510000000  0.6030230000000  0.4479980000000 1.0
C      1  0.4407640000000  0.5532870000000  0.4271870000000 1.0
C      1  0.4742680000000  0.5984820000000  0.4463140000000 1.0
C      1  0.5142300000000  0.4674960000000  0.4239850000000 1.0
C      1  0.4860560000000  0.5131140000000  0.5146130000000 1.0
C      1  0.5440250000000  0.4298630000000  0.4549440000000 1.0
C      1  0.5286120000000  0.4590240000000  0.4537770000000 1.0
C      1  0.4130990000000  0.4853510000000  0.4439100000000 1.0
C      1  0.4475400000000  0.4238500000000  0.5547570000000 1.0
C      1  0.5582250000000  0.5292130000000  0.4154400000000 1.0
C      1  0.4722160000000  0.5741510000000  0.5720660000000 1.0
C      1  0.4588020000000  0.4601690000000  0.4510180000000 1.0
C      1  0.5878650000000  0.4483460000000  0.5100780000000 1.0
C      1  0.5010010000000  0.6009500000000  0.5437750000000 1.0
C      1  0.5295220000000  0.4807370000000  0.5552440000000 1.0
C      1  0.5058270000000  0.5858320000000  0.4244440000000 1.0
C      1  0.4966360000000  0.4855650000000  0.4372010000000 1.0
C      1  0.5908270000000  0.4910380000000  0.4381410000000 1.0
C      1  0.4901320000000  0.5689420000000  0.5024930000000 1.0
C      1  0.4759070000000  0.5525500000000  0.5902300000000 1.0
C      1  0.4607280000000  0.4209900000000  0.5310830000000 1.0
C      1  0.6026290000000  0.5068690000000  0.5402850000000 1.0
C      1  0.5100040000000  0.4644470000000  0.4783800000000 1.0
C      1  0.5039540000000  0.3896420000000  0.4996380000000 1.0
C      1  0.5993130000000  0.5064870000000  0.4605570000000 1.0
C      1  0.5255460000000  0.4358870000000  0.5176260000000 1.0
C      1  0.5760950000000  0.5587410000000  0.5374150000000 1.0
C      1  0.4584700000000  0.4521510000000  0.5175680000000 1.0
C      1  0.4497260000000  0.4513910000000  0.4904520000000 1.0
C      1  0.5300370000000  0.4240990000000  0.4273450000000 1.0
C      1  0.4393740000000  0.5056080000000  0.5649830000000 1.0
C      1  0.5514730000000  0.5318050000000  0.5817130000000 1.0
C      1  0.4224790000000  0.4369010000000  0.5482610000000 1.0
C      1  0.4232610000000  0.4659340000000  0.5525720000000 1.0
C      1  0.5341050000000  0.4416510000000  0.5574140000000 1.0
C      1  0.4520260000000  0.4906780000000  0.4031470000000 1.0
C      1  0.4786320000000  0.5361810000000  0.5317270000000 1.0
C      1  0.5814900000000  0.5099020000000  0.5199750000000 1.0
C      1  0.4709350000000  0.5227800000000  0.4921290000000 1.0
C      1  0.5307180000000  0.5205580000000  0.4095360000000 1.0
C      1  0.5753050000000  0.5039140000000  0.4169850000000 1.0
C      1  0.5885250000000  0.4304400000000  0.4855240000000 1.0
C      1  0.4924180000000  0.4570410000000  0.4057510000000 1.0
C      1  0.4850430000000  0.4621720000000  0.5146340000000 1.0
C      1  0.4783970000000  0.5385210000000  0.3995740000000 1.0
C      1  0.4605570000000  0.4876130000000  0.5563410000000 1.0
C      1  0.5046570000000  0.4686310000000  0.5531680000000 1.0
C      1  0.4647810000000  0.5608070000000  0.4121980000000 1.0
C      1  0.4154670000000  0.5640060000000  0.5153300000000 1.0
C      1  0.5378520000000  0.5676370000000  0.5494010000000 1.0
C      1  0.3877920000000  0.5030800000000  0.4842740000000 1.0
C      1  0.4969120000000  0.5014600000000  0.3954260000000 1.0
C      1  0.5123490000000  0.5600380000000  0.4370010000000 1.0
C      1  0.5682460000000  0.4460940000000  0.4882810000000 1.0
C      1  0.5639790000000  0.4590870000000  0.4131300000000 1.0
C      1  0.4387500000000  0.4918840000000  0.4887820000000 1.0
C      1  0.5050790000000  0.4494430000000  0.5951180000000 1.0
C      1  0.5047430000000  0.5542290000000  0.4824760000000 1.0
C      1  0.4778300000000  0.5854610000000  0.4209140000000 1.0
C      1  0.4958220000000  0.4726920000000  0.5796560000000 1.0
C      1  0.5524900000000  0.5869150000000  0.5329560000000 1.0
C      1  0.5020120000000  0.4427920000000  0.5002690000000 1.0
C      1  0.4077640000000  0.4523940000000  0.5136870000000 1.0
C      1  0.3960270000000  0.5072770000000  0.5430110000000 1.0
C      1  0.5127650000000  0.6060310000000  0.5017220000000 1.0
C      1  0.4983470000000  0.5847630000000  0.5669940000000 1.0
C      1  0.5439650000000  0.4401020000000  0.4106130000000 1.0
C      1  0.4066190000000  0.4621490000000  0.4601750000000 1.0
C      1  0.4445470000000  0.5153190000000  0.5925960000000 1.0
C      1  0.4247890000000  0.4442050000000  0.4756330000000 1.0
C      1  0.5665250000000  0.4110430000000  0.5320520000000 1.0
C      1  0.5258340000000  0.5476190000000  0.5896530000000 1.0
C      1  0.4601000000000  0.3946170000000  0.5220880000000 1.0
C      1  0.5529740000000  0.5177380000000  0.5550060000000 1.0
C      1  0.5789520000000  0.4902060000000  0.5874830000000 1.0
C      1  0.4516490000000  0.5895380000000  0.5363410000000 1.0
C      1  0.5443700000000  0.4867120000000  0.4997090000000 1.0
C      1  0.5966480000000  0.5294930000000  0.5559240000000 1.0
C      1  0.5325640000000  0.3945460000000  0.4952120000000 1.0
C      1  0.4075560000000  0.5316290000000  0.5516480000000 1.0
C      1  0.6037120000000  0.4725190000000  0.5028540000000 1.0
C      1  0.4075350000000  0.5565140000000  0.4881240000000 1.0
C      1  0.4298670000000  0.4273890000000  0.4546200000000 1.0
C      1  0.5813760000000  0.4325950000000  0.5400030000000 1.0
C      1  0.4098420000000  0.4771520000000  0.5045070000000 1.0
C      1  0.5708370000000  0.4958040000000  0.5605120000000 1.0
C      1  0.4843220000000  0.5984450000000  0.5021040000000 1.0
C      1  0.5277300000000  0.4917870000000  0.4039760000000 1.0
C      1  0.4558950000000  0.5195870000000  0.4031150000000 1.0
C      1  0.4783930000000  0.4793590000000  0.3934070000000 1.0
C      1  0.4695150000000  0.4403810000000  0.4116590000000 1.0
C      1  0.4634560000000  0.5782810000000  0.4642440000000 1.0
C      1  0.5812540000000  0.5408350000000  0.5151840000000 1.0
C      1  0.4242770000000  0.5756930000000  0.4738830000000 1.0
C      1  0.5559920000000  0.4848990000000  0.5243400000000 1.0
C      1  0.5256090000000  0.5508740000000  0.5307900000000 1.0
C      1  0.5467280000000  0.5201340000000  0.4647640000000 1.0
C      1  0.4446910000000  0.4982000000000  0.5162220000000 1.0
C      1  0.4890300000000  0.5553090000000  0.4587180000000 1.0
C      1  0.5326700000000  0.4082160000000  0.4700500000000 1.0
C      1  0.4892390000000  0.3920930000000  0.5243520000000 1.0
C      1  0.4517480000000  0.4110450000000  0.4482120000000 1.0
C      1  0.3917160000000  0.4739890000000  0.4836260000000 1.0
C      1  0.4448850000000  0.4745430000000  0.5359540000000 1.0
C      1  0.5778830000000  0.5483180000000  0.5646570000000 1.0
C      1  0.5839080000000  0.5700200000000  0.4684270000000 1.0
C      1  0.5065280000000  0.5353770000000  0.4169320000000 1.0
C      1  0.4620460000000  0.4771820000000  0.5886880000000 1.0
C      1  0.5105680000000  0.5091330000000  0.4985730000000 1.0
C      1  0.5225630000000  0.5710680000000  0.5739130000000 1.0
C      1  0.5541320000000  0.4968650000000  0.4754370000000 1.0
C      1  0.5004650000000  0.5013400000000  0.5827340000000 1.0
C      1  0.5840960000000  0.5535370000000  0.4440150000000 1.0
C      1  0.5373860000000  0.4821950000000  0.5864680000000 1.0
C      1  0.5540330000000  0.5038410000000  0.5950580000000 1.0
C      1  0.5123490000000  0.4217700000000  0.5592480000000 1.0
C      1  0.5656690000000  0.5552200000000  0.4230240000000 1.0
C      1  0.4757460000000  0.6032010000000  0.5295420000000 1.0
C      1  0.5594910000000  0.5834560000000  0.4595650000000 1.0
C      1  0.4488520000000  0.5703570000000  0.5556620000000 1.0
C      1  0.4295230000000  0.5221880000000  0.5188340000000 1.0
C      1  0.5834560000000  0.5472700000000  0.4867480000000 1.0
C      1  0.4675420000000  0.5552150000000  0.5144870000000 1.0
C      1  0.4864490000000  0.4831780000000  0.5350700000000 1.0
C      1  0.5729590000000  0.4371820000000  0.4609700000000 1.0
C      1  0.5439520000000  0.4594350000000  0.5338610000000 1.0
C      1  0.4196850000000  0.4292530000000  0.5197390000000 1.0
C      1  0.5513780000000  0.4384860000000  0.5805270000000 1.0
C      1  0.4411010000000  0.5247350000000  0.4271670000000 1.0
C      1  0.5081330000000  0.5172430000000  0.5604300000000 1.0
C      1  0.5073500000000  0.5111800000000  0.4696710000000 1.0
C      1  0.5021440000000  0.4192100000000  0.4375640000000 1.0
C      1  0.5331630000000  0.5450370000000  0.4783680000000 1.0
C      1  0.4808600000000  0.5261410000000  0.4652080000000 1.0
C      1  0.4131780000000  0.4914940000000  0.5614680000000 1.0
C      1  0.5006100000000  0.5404020000000  0.6013870000000 1.0
C      1  0.5932760000000  0.4805900000000  0.5498050000000 1.0
C      1  0.4911760000000  0.4128850000000  0.4857570000000 1.0
C      1  0.5290540000000  0.5065930000000  0.5440560000000 1.0
C      1  0.4523900000000  0.5400400000000  0.5824000000000 1.0
C      1  0.4311770000000  0.4791490000000  0.4206510000000 1.0
C      1  0.5778910000000  0.4418270000000  0.5677780000000 1.0
C      1  0.4355350000000  0.5214410000000  0.4743330000000 1.0
C      1  0.4914950000000  0.5128820000000  0.6073080000000 1.0
C      1  0.5867650000000  0.4935270000000  0.4970730000000 1.0
C      1  0.4585510000000  0.4860880000000  0.4645200000000 1.0
C      1  0.6108480000000  0.4921500000000  0.4830840000000 1.0
C      1  0.5492980000000  0.4799190000000  0.4540330000000 1.0
C      1  0.5023170000000  0.5409370000000  0.5456170000000 1.0
C      1  0.5180690000000  0.4824680000000  0.4997670000000 1.0
C      1  0.4465400000000  0.4547770000000  0.4247760000000 1.0
C      1  0.5249220000000  0.6016920000000  0.5270770000000 1.0
C      1  0.4648880000000  0.5006520000000  0.6073950000000 1.0
C      1  0.5449630000000  0.4130370000000  0.5143770000000 1.0
C      1  0.5399790000000  0.5521070000000  0.5062450000000 1.0
C      1  0.4411660000000  0.4102930000000  0.5065680000000 1.0
C      1  0.5341340000000  0.5673300000000  0.4573770000000 1.0
C      1  0.4475630000000  0.5380580000000  0.4983680000000 1.0
C      1  0.4950890000000  0.4262830000000  0.5813800000000 1.0
END
