TITL C-2441167-4473-236 0.0871375706927044 125000 -8053.26240481548 0 0 72 (C1) n - 1
REM
REM in /home/bkarasulu/work/CARBON/AIRSS/Generating-Clusters/ReaxFF-fromJPCA2015/Units_Real/with-SteepDescent/Higher-Symm
REM
REM
REM
REM
REM
REM ./C.cell (1df0a924f5614ab8850e4351716899ee)
REM
REM compiler GCC version 9.2.1 20190827 (Red Hat 9.2.1-1)
REM options -cpp -mtune=generic -march=x86-64 -g -O0 -fpre-include=/usr/include/finclude/math-vector-fortran.h
REM seed 1216140585 1483444216 -1423098188 -896430338 1981808316 1800920427 -360202710 239143560 983655047 -1515912820 -1244428341 744946562 -1602582810 -415266408 -379278258 -1344715243 310084380 -192561554 -1892939300 1356341528 1008736494 559581884 -411930860 -933950019 -357603325 -1369028496 -1905848287 -818680304 1527666062 -11180327 -1395438558 212265273 1273463331
REM
CELL 1.54180   50.00000   50.00000   50.00000   90.00000   90.00000   90.00000
LATT -1
SFAC C  
C      1  0.5635390000000  0.5005530000000  0.5226040000000 1.0
C      1  0.5575160000000  0.5001970000000  0.4651850000000 1.0
C      1  0.5088140000000  0.5008120000000  0.4315650000000 1.0
C      1  0.4544840000000  0.5002810000000  0.4522890000000 1.0
C      1  0.4329130000000  0.5011380000000  0.5061690000000 1.0
C      1  0.4644420000000  0.5001840000000  0.5546090000000 1.0
C      1  0.5194740000000  0.5002010000000  0.5634340000000 1.0
C      1  0.4744910000000  0.5668740000000  0.4779340000000 1.0
C      1  0.4673310000000  0.5669950000000  0.5057660000000 1.0
C      1  0.4850670000000  0.5666650000000  0.5283600000000 1.0
C      1  0.5137820000000  0.5671680000000  0.5291890000000 1.0
C      1  0.5322800000000  0.5671720000000  0.5071650000000 1.0
C      1  0.5263300000000  0.5668660000000  0.4790300000000 1.0
C      1  0.5007020000000  0.5669990000000  0.4660720000000 1.0
C      1  0.4355250000000  0.4696130000000  0.4738660000000 1.0
C      1  0.4421220000000  0.4718390000000  0.5365270000000 1.0
C      1  0.4936820000000  0.4704710000000  0.5682820000000 1.0
C      1  0.5500060000000  0.4718630000000  0.5462630000000 1.0
C      1  0.5686970000000  0.4708880000000  0.4898520000000 1.0
C      1  0.5350630000000  0.4720220000000  0.4399180000000 1.0
C      1  0.4752180000000  0.4715550000000  0.4343080000000 1.0
C      1  0.5021900000000  0.4949630000000  0.4660090000000 1.0
C      1  0.4732370000000  0.4938030000000  0.4734360000000 1.0
C      1  0.4660290000000  0.4944580000000  0.5041240000000 1.0
C      1  0.4818990000000  0.4942970000000  0.5313030000000 1.0
C      1  0.5116200000000  0.4941640000000  0.5358090000000 1.0
C      1  0.5327140000000  0.4940730000000  0.5085940000000 1.0
C      1  0.5336600000000  0.4919480000000  0.4787130000000 1.0
C      1  0.5220760000000  0.4689950000000  0.5411130000000 1.0
C      1  0.5467400000000  0.4688560000000  0.5080830000000 1.0
C      1  0.5363680000000  0.4684050000000  0.4682050000000 1.0
C      1  0.4972230000000  0.4697630000000  0.4521830000000 1.0
C      1  0.4634970000000  0.4697080000000  0.4723280000000 1.0
C      1  0.4534820000000  0.4683990000000  0.5103260000000 1.0
C      1  0.4823970000000  0.4689810000000  0.5420040000000 1.0
C      1  0.4823970000000  0.4343260000000  0.4705750000000 1.0
C      1  0.4664640000000  0.4337960000000  0.4950140000000 1.0
C      1  0.4756990000000  0.4345090000000  0.5232320000000 1.0
C      1  0.5033870000000  0.4337620000000  0.5330310000000 1.0
C      1  0.5282510000000  0.4338120000000  0.5175300000000 1.0
C      1  0.5319280000000  0.4335690000000  0.4885230000000 1.0
C      1  0.5113230000000  0.4346170000000  0.4675750000000 1.0
C      1  0.5275170000000  0.5303900000000  0.4528420000000 1.0
C      1  0.4805430000000  0.5308200000000  0.4482940000000 1.0
C      1  0.4479540000000  0.5302730000000  0.4821860000000 1.0
C      1  0.4546300000000  0.5311020000000  0.5292310000000 1.0
C      1  0.4951540000000  0.5313210000000  0.5530220000000 1.0
C      1  0.5389870000000  0.5303490000000  0.5362650000000 1.0
C      1  0.5531900000000  0.5307820000000  0.4918190000000 1.0
C      1  0.5495940000000  0.5069750000000  0.5500450000000 1.0
C      1  0.5706090000000  0.5074650000000  0.4902670000000 1.0
C      1  0.5387660000000  0.5067190000000  0.4395640000000 1.0
C      1  0.4753470000000  0.5067540000000  0.4321070000000 1.0
C      1  0.4335530000000  0.5054570000000  0.4743390000000 1.0
C      1  0.4403490000000  0.5071090000000  0.5388030000000 1.0
C      1  0.4905360000000  0.5077760000000  0.5703480000000 1.0
C      1  0.5556090000000  0.4484610000000  0.4769470000000 1.0
C      1  0.5157830000000  0.4504070000000  0.4416760000000 1.0
C      1  0.4638300000000  0.4506200000000  0.4515420000000 1.0
C      1  0.4403200000000  0.4493040000000  0.4934550000000 1.0
C      1  0.4604270000000  0.4503610000000  0.5438470000000 1.0
C      1  0.5097980000000  0.4487690000000  0.5588060000000 1.0
C      1  0.5521300000000  0.4489180000000  0.5285930000000 1.0
C      1  0.5184450000000  0.5454300000000  0.5471320000000 1.0
C      1  0.5490650000000  0.5453850000000  0.5147860000000 1.0
C      1  0.5427750000000  0.5453330000000  0.4702520000000 1.0
C      1  0.5041250000000  0.5451570000000  0.4479520000000 1.0
C      1  0.4622060000000  0.5453140000000  0.4637850000000 1.0
C      1  0.4488570000000  0.5450850000000  0.5061610000000 1.0
C      1  0.4737270000000  0.5455730000000  0.5436700000000 1.0
C      1  0.4988440000000  0.5326570000000  0.5000340000000 1.0
C      1  0.5025040000000  0.5092030000000  0.4965170000000 1.0
END
