TITL C-2441162-9305-825 0.138304418256397 125000 -23761.9956787952 0 0 181 (C1) n - 1
REM
REM in /home/bkarasulu/work/CARBON/AIRSS/Generating-Clusters/ReaxFF-fromJPCA2015/Units_Real/with-SteepDescent/Higher-Symm
REM
REM
REM
REM
REM
REM ./C.cell (1df0a924f5614ab8850e4351716899ee)
REM
REM compiler GCC version 9.2.1 20190827 (Red Hat 9.2.1-1)
REM options -cpp -mtune=generic -march=x86-64 -g -O0 -fpre-include=/usr/include/finclude/math-vector-fortran.h
REM seed 280218604 -899878505 -1652474525 -230957838 450935671 -667986992 -1653936602 1372765167 -2048977694 153290900 1028441569 -2044913268 -1531438115 2095048192 2090171789 -744880891 -425953935 -546955745 -1194028299 -1704021473 -283253053 1092029327 1764325805 1059128486 475548671 714379846 1294803141 -2117107929 -32621267 -164451787 -1404340414 -655445556 430604235
REM
CELL 1.54180   50.00000   50.00000   50.00000   90.00000   90.00000   90.00000
LATT -1
SFAC C  
C      1  0.5678030000000  0.5639920000000  0.4416510000000 1.0
C      1  0.5802640000000  0.5633890000000  0.5513960000000 1.0
C      1  0.4773820000000  0.5661930000000  0.5867990000000 1.0
C      1  0.4038230000000  0.5634920000000  0.5068050000000 1.0
C      1  0.4642550000000  0.5677410000000  0.4187710000000 1.0
C      1  0.5075490000000  0.5937870000000  0.4422110000000 1.0
C      1  0.5534650000000  0.5911490000000  0.4900810000000 1.0
C      1  0.5346820000000  0.5936780000000  0.5445500000000 1.0
C      1  0.4635500000000  0.5918940000000  0.5384400000000 1.0
C      1  0.4385560000000  0.5908860000000  0.4891410000000 1.0
C      1  0.5573700000000  0.4153340000000  0.5409040000000 1.0
C      1  0.4774260000000  0.4141310000000  0.5707360000000 1.0
C      1  0.4208120000000  0.4142170000000  0.5014350000000 1.0
C      1  0.4809120000000  0.4149610000000  0.4291640000000 1.0
C      1  0.5557750000000  0.4181660000000  0.4613550000000 1.0
C      1  0.4970740000000  0.5653060000000  0.5248660000000 1.0
C      1  0.4740450000000  0.5632190000000  0.5068660000000 1.0
C      1  0.4864250000000  0.5689640000000  0.4805200000000 1.0
C      1  0.5162950000000  0.5627050000000  0.4828120000000 1.0
C      1  0.5226160000000  0.5611370000000  0.5098800000000 1.0
C      1  0.5256030000000  0.5069620000000  0.4728840000000 1.0
C      1  0.5363940000000  0.5028600000000  0.5173230000000 1.0
C      1  0.4959260000000  0.5067760000000  0.5458970000000 1.0
C      1  0.4626940000000  0.5053190000000  0.5022910000000 1.0
C      1  0.4856550000000  0.5078770000000  0.4610980000000 1.0
C      1  0.4594290000000  0.5753820000000  0.5646400000000 1.0
C      1  0.4165730000000  0.5735790000000  0.4831660000000 1.0
C      1  0.4922380000000  0.5734450000000  0.4225990000000 1.0
C      1  0.5692520000000  0.5732130000000  0.4701560000000 1.0
C      1  0.5561140000000  0.5762570000000  0.5599880000000 1.0
C      1  0.5235490000000  0.5399640000000  0.4368350000000 1.0
C      1  0.5761700000000  0.5445860000000  0.5113660000000 1.0
C      1  0.5160550000000  0.5462400000000  0.5680890000000 1.0
C      1  0.4307690000000  0.5448660000000  0.5351270000000 1.0
C      1  0.4481300000000  0.5502900000000  0.4526330000000 1.0
C      1  0.4713840000000  0.4449010000000  0.4187670000000 1.0
C      1  0.5649670000000  0.4433180000000  0.4451310000000 1.0
C      1  0.5732160000000  0.4430490000000  0.5451890000000 1.0
C      1  0.4772340000000  0.4433800000000  0.5841490000000 1.0
C      1  0.4137270000000  0.4449510000000  0.5046260000000 1.0
C      1  0.5307080000000  0.5115560000000  0.4051970000000 1.0
C      1  0.5930290000000  0.5096510000000  0.4826580000000 1.0
C      1  0.5356850000000  0.5154040000000  0.5933290000000 1.0
C      1  0.4368230000000  0.5089370000000  0.5665580000000 1.0
C      1  0.4184830000000  0.5113450000000  0.4494080000000 1.0
C      1  0.4652760000000  0.5040460000000  0.4434000000000 1.0
C      1  0.5427550000000  0.4977160000000  0.4509220000000 1.0
C      1  0.5583630000000  0.4976390000000  0.5342930000000 1.0
C      1  0.4875840000000  0.5000970000000  0.5692010000000 1.0
C      1  0.4371660000000  0.5021460000000  0.5150090000000 1.0
C      1  0.4964540000000  0.4955580000000  0.6089230000000 1.0
C      1  0.3984760000000  0.4971190000000  0.5284510000000 1.0
C      1  0.4433760000000  0.4954150000000  0.4095600000000 1.0
C      1  0.5705330000000  0.4961070000000  0.4168320000000 1.0
C      1  0.5993770000000  0.4970800000000  0.5383440000000 1.0
C      1  0.5586940000000  0.4760930000000  0.4905020000000 1.0
C      1  0.5317400000000  0.4730220000000  0.5558200000000 1.0
C      1  0.4684960000000  0.4761340000000  0.5395810000000 1.0
C      1  0.4495250000000  0.4741440000000  0.4777950000000 1.0
C      1  0.5074950000000  0.4747810000000  0.4421840000000 1.0
C      1  0.4731910000000  0.4900420000000  0.5901640000000 1.0
C      1  0.4108490000000  0.4923430000000  0.5021600000000 1.0
C      1  0.4742500000000  0.4964460000000  0.4108890000000 1.0
C      1  0.5710010000000  0.4895490000000  0.4455630000000 1.0
C      1  0.5758230000000  0.4886460000000  0.5555360000000 1.0
C      1  0.4976630000000  0.4504990000000  0.4326100000000 1.0
C      1  0.5511630000000  0.4591010000000  0.4692470000000 1.0
C      1  0.5479810000000  0.4587860000000  0.5387960000000 1.0
C      1  0.4658860000000  0.4524860000000  0.5560250000000 1.0
C      1  0.4350730000000  0.4510600000000  0.4840230000000 1.0
C      1  0.5471620000000  0.4497620000000  0.4215220000000 1.0
C      1  0.5881340000000  0.4507160000000  0.5202800000000 1.0
C      1  0.5065630000000  0.4514720000000  0.5830510000000 1.0
C      1  0.4263440000000  0.4550780000000  0.5304530000000 1.0
C      1  0.4502220000000  0.4533850000000  0.4393820000000 1.0
C      1  0.5732680000000  0.5351000000000  0.4374230000000 1.0
C      1  0.5795590000000  0.5349080000000  0.5581680000000 1.0
C      1  0.4811420000000  0.5370510000000  0.5873510000000 1.0
C      1  0.4011400000000  0.5347850000000  0.5009900000000 1.0
C      1  0.4595860000000  0.5377120000000  0.4127070000000 1.0
C      1  0.5223450000000  0.4612470000000  0.4680680000000 1.0
C      1  0.5389190000000  0.4617500000000  0.5117230000000 1.0
C      1  0.5064620000000  0.4616580000000  0.5485620000000 1.0
C      1  0.4595030000000  0.4617610000000  0.5166910000000 1.0
C      1  0.4707170000000  0.4608080000000  0.4636670000000 1.0
C      1  0.5462860000000  0.5481380000000  0.5195310000000 1.0
C      1  0.4909350000000  0.5507230000000  0.5490740000000 1.0
C      1  0.4510070000000  0.5462750000000  0.5089360000000 1.0
C      1  0.4758820000000  0.5487030000000  0.4622090000000 1.0
C      1  0.5323040000000  0.5469350000000  0.4656740000000 1.0
C      1  0.5460390000000  0.4113220000000  0.5129380000000 1.0
C      1  0.4943260000000  0.4115030000000  0.5466860000000 1.0
C      1  0.4492480000000  0.4079620000000  0.5030200000000 1.0
C      1  0.4773700000000  0.4114650000000  0.4578170000000 1.0
C      1  0.5263080000000  0.4116250000000  0.4604670000000 1.0
C      1  0.5112150000000  0.6021880000000  0.5182060000000 1.0
C      1  0.4823240000000  0.6024300000000  0.5171090000000 1.0
C      1  0.4797730000000  0.6027450000000  0.4825020000000 1.0
C      1  0.5060810000000  0.6048930000000  0.4700510000000 1.0
C      1  0.5258400000000  0.6032770000000  0.4922270000000 1.0
C      1  0.5072690000000  0.5209770000000  0.5992420000000 1.0
C      1  0.4059490000000  0.5252120000000  0.5278760000000 1.0
C      1  0.4364940000000  0.5210850000000  0.4204900000000 1.0
C      1  0.5576370000000  0.5220000000000  0.4141150000000 1.0
C      1  0.5907010000000  0.5246340000000  0.5338100000000 1.0
C      1  0.4096000000000  0.4750440000000  0.5442360000000 1.0
C      1  0.4323760000000  0.4735960000000  0.4260490000000 1.0
C      1  0.5526330000000  0.4735410000000  0.4074260000000 1.0
C      1  0.6004540000000  0.4757750000000  0.5177530000000 1.0
C      1  0.5140840000000  0.4731400000000  0.6018560000000 1.0
C      1  0.4003320000000  0.4691260000000  0.4875790000000 1.0
C      1  0.4822880000000  0.4687910000000  0.4009630000000 1.0
C      1  0.5868910000000  0.4651130000000  0.4499570000000 1.0
C      1  0.5735740000000  0.4623230000000  0.5695480000000 1.0
C      1  0.4576230000000  0.4649080000000  0.5941580000000 1.0
C      1  0.5120320000000  0.4842050000000  0.4837740000000 1.0
C      1  0.5162030000000  0.4829640000000  0.5111040000000 1.0
C      1  0.4958190000000  0.4830920000000  0.5324300000000 1.0
C      1  0.4634410000000  0.4804480000000  0.4977120000000 1.0
C      1  0.4903650000000  0.4825640000000  0.4658360000000 1.0
C      1  0.5833290000000  0.5509420000000  0.4807040000000 1.0
C      1  0.5444810000000  0.5540250000000  0.5734190000000 1.0
C      1  0.4438600000000  0.5512010000000  0.5635000000000 1.0
C      1  0.4219400000000  0.5505460000000  0.4663210000000 1.0
C      1  0.5009780000000  0.5463940000000  0.4181620000000 1.0
C      1  0.4844840000000  0.5254820000000  0.4060690000000 1.0
C      1  0.5901390000000  0.5301710000000  0.4613930000000 1.0
C      1  0.5578300000000  0.5300950000000  0.5803190000000 1.0
C      1  0.4524320000000  0.5295050000000  0.5810710000000 1.0
C      1  0.4064870000000  0.5278840000000  0.4722390000000 1.0
C      1  0.4835460000000  0.4374200000000  0.4796370000000 1.0
C      1  0.5135890000000  0.4361220000000  0.4802780000000 1.0
C      1  0.5246770000000  0.4358110000000  0.5073070000000 1.0
C      1  0.5015440000000  0.4376850000000  0.5282980000000 1.0
C      1  0.4796940000000  0.4415570000000  0.5086650000000 1.0
C      1  0.4204840000000  0.5718890000000  0.5289120000000 1.0
C      1  0.4497620000000  0.5775250000000  0.4422040000000 1.0
C      1  0.5447280000000  0.5616080000000  0.4233890000000 1.0
C      1  0.5798540000000  0.5720750000000  0.5233680000000 1.0
C      1  0.5063100000000  0.5706900000000  0.5860890000000 1.0
C      1  0.5445840000000  0.5262320000000  0.4825430000000 1.0
C      1  0.5311830000000  0.5265250000000  0.5296990000000 1.0
C      1  0.4797100000000  0.5284150000000  0.5323930000000 1.0
C      1  0.4532900000000  0.5278320000000  0.4862500000000 1.0
C      1  0.4931540000000  0.5289440000000  0.4762040000000 1.0
C      1  0.4510390000000  0.5053920000000  0.5407360000000 1.0
C      1  0.4443730000000  0.5054210000000  0.4632410000000 1.0
C      1  0.5224230000000  0.5086520000000  0.4328020000000 1.0
C      1  0.5649060000000  0.5049540000000  0.4875200000000 1.0
C      1  0.5194010000000  0.5196450000000  0.5544700000000 1.0
C      1  0.5223180000000  0.3925850000000  0.5093890000000 1.0
C      1  0.4964420000000  0.3935160000000  0.5238330000000 1.0
C      1  0.4748990000000  0.3938100000000  0.5035480000000 1.0
C      1  0.4876470000000  0.3922430000000  0.4771470000000 1.0
C      1  0.5166330000000  0.3916440000000  0.4814870000000 1.0
C      1  0.4287330000000  0.4369540000000  0.4593270000000 1.0
C      1  0.5198840000000  0.4383580000000  0.4167380000000 1.0
C      1  0.5847290000000  0.4389260000000  0.4947410000000 1.0
C      1  0.5323240000000  0.4350450000000  0.5812030000000 1.0
C      1  0.4386910000000  0.4380530000000  0.5543140000000 1.0
C      1  0.5370520000000  0.4842940000000  0.5868710000000 1.0
C      1  0.4209220000000  0.4833230000000  0.5699180000000 1.0
C      1  0.4105560000000  0.4821800000000  0.4426230000000 1.0
C      1  0.5286120000000  0.4840670000000  0.3944400000000 1.0
C      1  0.6048030000000  0.4834290000000  0.4903780000000 1.0
C      1  0.5649340000000  0.4187090000000  0.4876950000000 1.0
C      1  0.5400860000000  0.4183590000000  0.5606900000000 1.0
C      1  0.4553770000000  0.4135710000000  0.5539000000000 1.0
C      1  0.4343980000000  0.4117420000000  0.4771990000000 1.0
C      1  0.5093000000000  0.4125630000000  0.4330450000000 1.0
C      1  0.4338400000000  0.4596500000000  0.5799210000000 1.0
C      1  0.4048430000000  0.4604340000000  0.4607150000000 1.0
C      1  0.5089050000000  0.4626440000000  0.3965110000000 1.0
C      1  0.5967420000000  0.4594970000000  0.4764370000000 1.0
C      1  0.5523510000000  0.4569370000000  0.5877980000000 1.0
C      1  0.5569080000000  0.5889950000000  0.5175820000000 1.0
C      1  0.5175420000000  0.5871720000000  0.5659870000000 1.0
C      1  0.4416160000000  0.5906250000000  0.5204660000000 1.0
C      1  0.4553060000000  0.5946990000000  0.4666550000000 1.0
C      1  0.5310710000000  0.5828930000000  0.4352420000000 1.0
C      1  0.4944870000000  0.5274320000000  0.5063320000000 1.0
END
