TITL C-2441156-4686-101 0.00368016940261986 125000 -3006.34201273472 0 0 22 (C3v) n - 1
REM
REM in /home/bkarasulu/work/CARBON/AIRSS/Generating-Clusters/ReaxFF-fromJPCA2015/Units_Real/with-SteepDescent/Higher-Symm
REM
REM
REM
REM
REM
REM ./C.cell (1df0a924f5614ab8850e4351716899ee)
REM
REM compiler GCC version 9.2.1 20190827 (Red Hat 9.2.1-1)
REM options -cpp -mtune=generic -march=x86-64 -g -O0 -fpre-include=/usr/include/finclude/math-vector-fortran.h
REM seed 398820909 -332941510 -336099247 -6606037 -1771637253 -411476074 1878505334 250048897 94280823 -1681847903 -906333997 -161633612 -1748443160 -2026148508 -416170683 657388182 1776634612 924158721 -159714914 -1864376954 1137385287 1043713211 -1909362093 -1494271283 548956394 -513058373 -81036876 -1536727675 1092271507 1612140465 -992128885 -2019237198 -473704192
REM
CELL 1.54180   50.00000   50.00000   50.00000   90.00000   90.00000   90.00000
LATT -1
SFAC C  
C      1  0.4823280000000  0.4801040000000  0.4530720000000 1.0
C      1  0.4532610000000  0.4801030000000  0.4821240000000 1.0
C      1  0.4820500000000  0.4501070000000  0.4818410000000 1.0
C      1  0.5179990000000  0.4797540000000  0.5460630000000 1.0
C      1  0.4819580000000  0.5157060000000  0.5475330000000 1.0
C      1  0.5176550000000  0.5155170000000  0.4531440000000 1.0
C      1  0.5461780000000  0.4797600000000  0.5178850000000 1.0
C      1  0.4531870000000  0.5154300000000  0.5175370000000 1.0
C      1  0.5476520000000  0.5158020000000  0.4819310000000 1.0
C      1  0.5180020000000  0.4515780000000  0.5178830000000 1.0
C      1  0.4822430000000  0.5444920000000  0.5175350000000 1.0
C      1  0.5176560000000  0.5445720000000  0.4822080000000 1.0
C      1  0.4532240000000  0.4977650000000  0.4998290000000 1.0
C      1  0.4992510000000  0.4482780000000  0.4990830000000 1.0
C      1  0.4999480000000  0.5445340000000  0.4998730000000 1.0
C      1  0.4999920000000  0.4978120000000  0.4531080000000 1.0
C      1  0.5494780000000  0.4985600000000  0.4991330000000 1.0
C      1  0.4991990000000  0.4985060000000  0.5493630000000 1.0
C      1  0.5338190000000  0.5329450000000  0.4647830000000 1.0
C      1  0.5218720000000  0.4758860000000  0.5217540000000 1.0
C      1  0.4648160000000  0.5328530000000  0.5337020000000 1.0
C      1  0.4649030000000  0.4639380000000  0.4646980000000 1.0
END
