TITL C-2441160-1326-1190 0.00142741859042804 125000 -871.101306820138 0 0 7 (Cs) n - 1
REM
REM in /home/bkarasulu/work/CARBON/AIRSS/Generating-Clusters/ReaxFF-fromJPCA2015/Units_Real/with-SteepDescent/Higher-Symm
REM
REM
REM
REM
REM
REM ./C.cell (1df0a924f5614ab8850e4351716899ee)
REM
REM compiler GCC version 9.2.1 20190827 (Red Hat 9.2.1-1)
REM options -cpp -mtune=generic -march=x86-64 -g -O0 -fpre-include=/usr/include/finclude/math-vector-fortran.h
REM seed 103882581 -885608015 584306475 1248656021 -1963097865 1608101652 55740794 -511200578 -1032795145 2082163646 1940377977 -563979235 1668718702 -780842534 309924120 -705333676 -1396712551 -649762783 636399786 187681565 -1630020429 884407092 17530937 -665959349 673015322 -14562066 -2025324844 -2011828537 1235509242 -1255211775 -1061211676 570844538 -1092535815
REM
CELL 1.54180   50.00000   50.00000   50.00000   90.00000   90.00000   90.00000
LATT -1
SFAC C  
C      1  0.4794230000000  0.5153480000000  0.5000000000000 1.0
C      1  0.4994130000000  0.5290740000000  0.5000000000000 1.0
C      1  0.5213830000000  0.5200700000000  0.5000000000000 1.0
C      1  0.5255580000000  0.4961410000000  0.5000000000000 1.0
C      1  0.5147640000000  0.4731090000000  0.5000000000000 1.0
C      1  0.4894280000000  0.4748090000000  0.5000000000000 1.0
C      1  0.4700310000000  0.4914490000000  0.5000000000000 1.0
END
