TITL C-2441162-9305-1203 0.0948522245830288 125000 -23121.491296621 0 0 170 (C1) n - 1
REM
REM in /home/bkarasulu/work/CARBON/AIRSS/Generating-Clusters/ReaxFF-fromJPCA2015/Units_Real/with-SteepDescent/Higher-Symm
REM
REM
REM
REM
REM
REM ./C.cell (1df0a924f5614ab8850e4351716899ee)
REM
REM compiler GCC version 9.2.1 20190827 (Red Hat 9.2.1-1)
REM options -cpp -mtune=generic -march=x86-64 -g -O0 -fpre-include=/usr/include/finclude/math-vector-fortran.h
REM seed -665758346 -1529972334 83163123 1586107740 -1047470094 1647645171 773826156 1525498978 654658782 -507226946 -1619874977 1495697330 -38218254 688700399 113734699 2008071785 -100874742 2115370618 -777738095 1631413841 1255954965 -1903976389 2126437166 977051074 -988373560 -189386662 2048527413 17548402 1299563000 -2000968407 1784996497 964436152 -267013586
REM
CELL 1.54180   50.00000   50.00000   50.00000   90.00000   90.00000   90.00000
LATT -1
SFAC C  
C      1  0.4876360000000  0.4865080000000  0.5410730000000 1.0
C      1  0.5125060000000  0.4940100000000  0.5300000000000 1.0
C      1  0.5343130000000  0.4800420000000  0.5424010000000 1.0
C      1  0.5546680000000  0.4809330000000  0.4971810000000 1.0
C      1  0.5339790000000  0.4834240000000  0.4784930000000 1.0
C      1  0.5306740000000  0.4865920000000  0.4503630000000 1.0
C      1  0.5034430000000  0.4926300000000  0.4394490000000 1.0
C      1  0.4652260000000  0.4805430000000  0.4736720000000 1.0
C      1  0.4588830000000  0.4967550000000  0.5080470000000 1.0
C      1  0.4623860000000  0.4876630000000  0.5326690000000 1.0
C      1  0.4131620000000  0.4360640000000  0.4911380000000 1.0
C      1  0.4236480000000  0.4309880000000  0.5457990000000 1.0
C      1  0.4649770000000  0.4323830000000  0.5782590000000 1.0
C      1  0.5194430000000  0.4319580000000  0.5867140000000 1.0
C      1  0.5643620000000  0.4373640000000  0.5605950000000 1.0
C      1  0.5859660000000  0.4347320000000  0.5123360000000 1.0
C      1  0.5722140000000  0.4333330000000  0.4584130000000 1.0
C      1  0.5350920000000  0.4345720000000  0.4193580000000 1.0
C      1  0.4816440000000  0.4335230000000  0.4126600000000 1.0
C      1  0.4373520000000  0.4336310000000  0.4428030000000 1.0
C      1  0.5083880000000  0.4003130000000  0.4339620000000 1.0
C      1  0.4817420000000  0.4071370000000  0.4446670000000 1.0
C      1  0.4454850000000  0.4064050000000  0.4850100000000 1.0
C      1  0.4434830000000  0.4039200000000  0.5138360000000 1.0
C      1  0.4654170000000  0.4042590000000  0.5395610000000 1.0
C      1  0.4944680000000  0.4030960000000  0.5543320000000 1.0
C      1  0.5275930000000  0.4051350000000  0.5477940000000 1.0
C      1  0.5541910000000  0.4023010000000  0.5298520000000 1.0
C      1  0.5600540000000  0.4038260000000  0.5012870000000 1.0
C      1  0.5328930000000  0.4027150000000  0.4500140000000 1.0
C      1  0.5593530000000  0.5241700000000  0.5522470000000 1.0
C      1  0.5795180000000  0.5309990000000  0.4993100000000 1.0
C      1  0.5703070000000  0.5221210000000  0.4532420000000 1.0
C      1  0.5326800000000  0.5233670000000  0.4204720000000 1.0
C      1  0.4810600000000  0.5246950000000  0.4155260000000 1.0
C      1  0.4378470000000  0.5203790000000  0.4400630000000 1.0
C      1  0.4068670000000  0.5351180000000  0.5057460000000 1.0
C      1  0.4284820000000  0.5210380000000  0.5456630000000 1.0
C      1  0.4680820000000  0.5231080000000  0.5768220000000 1.0
C      1  0.5173220000000  0.5231620000000  0.5823390000000 1.0
C      1  0.4581070000000  0.5230530000000  0.5078960000000 1.0
C      1  0.4775490000000  0.5292600000000  0.5237300000000 1.0
C      1  0.4963340000000  0.5351780000000  0.5390020000000 1.0
C      1  0.5178210000000  0.5199860000000  0.5311280000000 1.0
C      1  0.5370650000000  0.5279470000000  0.5124860000000 1.0
C      1  0.5291400000000  0.5257240000000  0.4880980000000 1.0
C      1  0.5227340000000  0.5283700000000  0.4645860000000 1.0
C      1  0.4971920000000  0.5144770000000  0.4588620000000 1.0
C      1  0.4784420000000  0.5231050000000  0.4701530000000 1.0
C      1  0.4586920000000  0.5322280000000  0.4820750000000 1.0
C      1  0.4541730000000  0.5799790000000  0.5584350000000 1.0
C      1  0.4994040000000  0.5817760000000  0.5667030000000 1.0
C      1  0.5430250000000  0.5799470000000  0.5578830000000 1.0
C      1  0.5671010000000  0.5751690000000  0.5261780000000 1.0
C      1  0.5633230000000  0.5795390000000  0.4801820000000 1.0
C      1  0.5356600000000  0.5817070000000  0.4426290000000 1.0
C      1  0.5086620000000  0.5808930000000  0.4304140000000 1.0
C      1  0.4581100000000  0.5822810000000  0.4437190000000 1.0
C      1  0.4314920000000  0.5777090000000  0.4796660000000 1.0
C      1  0.4260900000000  0.5764990000000  0.5087440000000 1.0
C      1  0.5402770000000  0.4229140000000  0.5699980000000 1.0
C      1  0.5733770000000  0.4218560000000  0.5366580000000 1.0
C      1  0.5773950000000  0.4233280000000  0.4872650000000 1.0
C      1  0.5526660000000  0.4212780000000  0.4399220000000 1.0
C      1  0.5084020000000  0.4221580000000  0.4155020000000 1.0
C      1  0.4612400000000  0.4215390000000  0.4296680000000 1.0
C      1  0.4269770000000  0.4238810000000  0.4690530000000 1.0
C      1  0.4217240000000  0.4210740000000  0.5173080000000 1.0
C      1  0.4472600000000  0.4204940000000  0.5586350000000 1.0
C      1  0.4930400000000  0.4191540000000  0.5767500000000 1.0
C      1  0.4661820000000  0.4273310000000  0.4806590000000 1.0
C      1  0.4685100000000  0.4423210000000  0.5040550000000 1.0
C      1  0.4777390000000  0.4269340000000  0.5250320000000 1.0
C      1  0.4949230000000  0.4411470000000  0.5405020000000 1.0
C      1  0.5181070000000  0.4289500000000  0.5328770000000 1.0
C      1  0.5320790000000  0.4434010000000  0.5137210000000 1.0
C      1  0.5379200000000  0.4219960000000  0.4957250000000 1.0
C      1  0.5240400000000  0.4182290000000  0.4734630000000 1.0
C      1  0.5097410000000  0.4426370000000  0.4709150000000 1.0
C      1  0.4859610000000  0.4296590000000  0.4627740000000 1.0
C      1  0.4200380000000  0.4601420000000  0.5494680000000 1.0
C      1  0.4630240000000  0.4590650000000  0.5875550000000 1.0
C      1  0.5222240000000  0.4608500000000  0.5924300000000 1.0
C      1  0.5723880000000  0.4653170000000  0.5633410000000 1.0
C      1  0.5928110000000  0.4631970000000  0.5181070000000 1.0
C      1  0.5803050000000  0.4576930000000  0.4461460000000 1.0
C      1  0.5385700000000  0.4603010000000  0.4098570000000 1.0
C      1  0.4829140000000  0.4624190000000  0.4089140000000 1.0
C      1  0.4379920000000  0.4615030000000  0.4355880000000 1.0
C      1  0.4048650000000  0.4635490000000  0.4927090000000 1.0
C      1  0.5028180000000  0.5624530000000  0.5431750000000 1.0
C      1  0.5289380000000  0.5678260000000  0.5358480000000 1.0
C      1  0.5432340000000  0.5575850000000  0.5134230000000 1.0
C      1  0.5372100000000  0.5683090000000  0.4872540000000 1.0
C      1  0.5233740000000  0.5590380000000  0.4649710000000 1.0
C      1  0.4984590000000  0.5661720000000  0.4546480000000 1.0
C      1  0.4741520000000  0.5698690000000  0.4644560000000 1.0
C      1  0.4600210000000  0.5598880000000  0.4863290000000 1.0
C      1  0.4531300000000  0.5673660000000  0.5122170000000 1.0
C      1  0.4695440000000  0.5756340000000  0.5342550000000 1.0
C      1  0.4190240000000  0.5571960000000  0.4622980000000 1.0
C      1  0.4109820000000  0.5571350000000  0.5246140000000 1.0
C      1  0.4391730000000  0.5613100000000  0.5720180000000 1.0
C      1  0.4909770000000  0.5638280000000  0.5875770000000 1.0
C      1  0.5443800000000  0.5623260000000  0.5801950000000 1.0
C      1  0.5846310000000  0.5603700000000  0.5454230000000 1.0
C      1  0.5792000000000  0.5544340000000  0.4812060000000 1.0
C      1  0.5546250000000  0.5631440000000  0.4319610000000 1.0
C      1  0.5083290000000  0.5616810000000  0.4084020000000 1.0
C      1  0.4552210000000  0.5636100000000  0.4229720000000 1.0
C      1  0.4808310000000  0.6092850000000  0.4635550000000 1.0
C      1  0.4571390000000  0.6034450000000  0.4782060000000 1.0
C      1  0.4659720000000  0.6070820000000  0.5040230000000 1.0
C      1  0.4716900000000  0.6060870000000  0.5319900000000 1.0
C      1  0.4983400000000  0.6045540000000  0.5473620000000 1.0
C      1  0.5238590000000  0.6074480000000  0.5336500000000 1.0
C      1  0.5504830000000  0.6000470000000  0.5219310000000 1.0
C      1  0.5528910000000  0.6052900000000  0.4913080000000 1.0
C      1  0.5300350000000  0.6081260000000  0.4742140000000 1.0
C      1  0.5086690000000  0.6091650000000  0.4585870000000 1.0
C      1  0.5841520000000  0.5120940000000  0.4775000000000 1.0
C      1  0.5516140000000  0.5081890000000  0.4359320000000 1.0
C      1  0.5071610000000  0.5111180000000  0.4147350000000 1.0
C      1  0.4568440000000  0.5104680000000  0.4225980000000 1.0
C      1  0.4250450000000  0.5026100000000  0.4588660000000 1.0
C      1  0.4136450000000  0.5112210000000  0.5214420000000 1.0
C      1  0.4456800000000  0.5090920000000  0.5663670000000 1.0
C      1  0.4915440000000  0.5096870000000  0.5849350000000 1.0
C      1  0.5429440000000  0.5107680000000  0.5727420000000 1.0
C      1  0.5735330000000  0.5156890000000  0.5259620000000 1.0
C      1  0.4936370000000  0.4639590000000  0.5558660000000 1.0
C      1  0.5194370000000  0.4698690000000  0.5649080000000 1.0
C      1  0.5454330000000  0.4665530000000  0.5201630000000 1.0
C      1  0.5810450000000  0.4722250000000  0.4929750000000 1.0
C      1  0.5288140000000  0.4611760000000  0.4626960000000 1.0
C      1  0.4856620000000  0.4729940000000  0.4340890000000 1.0
C      1  0.4633680000000  0.4713110000000  0.4497460000000 1.0
C      1  0.4456890000000  0.4792200000000  0.4928380000000 1.0
C      1  0.4462120000000  0.4570280000000  0.5092580000000 1.0
C      1  0.4458020000000  0.4654310000000  0.5360720000000 1.0
C      1  0.4893130000000  0.4707310000000  0.5986570000000 1.0
C      1  0.5544540000000  0.4728720000000  0.5858210000000 1.0
C      1  0.5891900000000  0.4794710000000  0.5424490000000 1.0
C      1  0.5963610000000  0.4720120000000  0.4668300000000 1.0
C      1  0.5660520000000  0.4694770000000  0.4210330000000 1.0
C      1  0.5129900000000  0.4708120000000  0.3977350000000 1.0
C      1  0.4494930000000  0.4715040000000  0.4104040000000 1.0
C      1  0.4067970000000  0.4818030000000  0.4690350000000 1.0
C      1  0.4024840000000  0.4714720000000  0.5219570000000 1.0
C      1  0.4366440000000  0.4705540000000  0.5781180000000 1.0
C      1  0.4277540000000  0.4967560000000  0.5882490000000 1.0
C      1  0.4883410000000  0.4963450000000  0.6128390000000 1.0
C      1  0.5598040000000  0.4994280000000  0.5966680000000 1.0
C      1  0.5995180000000  0.5081160000000  0.5372090000000 1.0
C      1  0.6106960000000  0.4978460000000  0.4699080000000 1.0
C      1  0.5730610000000  0.4961410000000  0.4141430000000 1.0
C      1  0.5116450000000  0.4960790000000  0.3853710000000 1.0
C      1  0.4417540000000  0.4973670000000  0.3988480000000 1.0
C      1  0.3980000000000  0.5095870000000  0.4659260000000 1.0
C      1  0.3870480000000  0.4959330000000  0.5266620000000 1.0
C      1  0.5675850000000  0.5479200000000  0.5669220000000 1.0
C      1  0.6044820000000  0.5376820000000  0.5419910000000 1.0
C      1  0.5736100000000  0.5499220000000  0.4518310000000 1.0
C      1  0.5352060000000  0.5500420000000  0.4133120000000 1.0
C      1  0.4809490000000  0.5516630000000  0.4108090000000 1.0
C      1  0.4343130000000  0.5483270000000  0.4387750000000 1.0
C      1  0.4036400000000  0.5367960000000  0.4765360000000 1.0
C      1  0.4216690000000  0.5480640000000  0.5505030000000 1.0
C      1  0.4651190000000  0.5496490000000  0.5837120000000 1.0
C      1  0.5178240000000  0.5511750000000  0.5896440000000 1.0
END
