TITL C-2441164-471-1474 0.0820238252070969 125000 -28296.2583705193 0 0 199 (C1) n - 1
REM
REM in /home/bkarasulu/work/CARBON/AIRSS/Generating-Clusters/ReaxFF-fromJPCA2015/Units_Real/with-SteepDescent/Higher-Symm
REM
REM
REM
REM
REM
REM ./C.cell (1df0a924f5614ab8850e4351716899ee)
REM
REM compiler GCC version 9.2.1 20190827 (Red Hat 9.2.1-1)
REM options -cpp -mtune=generic -march=x86-64 -g -O0 -fpre-include=/usr/include/finclude/math-vector-fortran.h
REM seed -1001141929 -324926481 1724868371 1584628197 -1815222839 -609756155 -1831655839 1461353726 1279284993 35453113 -1333392809 134678154 1214065323 713306889 -146666726 -1634720730 -1366705061 983781124 265470210 1826543722 -409415358 -2064855928 -1206955091 201719070 -730754053 -1849834965 1260440625 -1515028005 1680571479 965649176 2002256790 -200319787 -1076659965
REM
CELL 1.54180   50.00000   50.00000   50.00000   90.00000   90.00000   90.00000
LATT -1
SFAC C  
C      1  0.5164040000000  0.4799060000000  0.3859000000000 1.0
C      1  0.3834190000000  0.4784480000000  0.4840070000000 1.0
C      1  0.4842050000000  0.4820990000000  0.6091920000000 1.0
C      1  0.6133470000000  0.4782300000000  0.5154890000000 1.0
C      1  0.5168200000000  0.5203840000000  0.6130740000000 1.0
C      1  0.3891370000000  0.5205260000000  0.5128330000000 1.0
C      1  0.4845140000000  0.5181720000000  0.3901930000000 1.0
C      1  0.6122540000000  0.5178040000000  0.4859180000000 1.0
C      1  0.4806420000000  0.4738650000000  0.4794170000000 1.0
C      1  0.4827380000000  0.4753950000000  0.5205250000000 1.0
C      1  0.5280480000000  0.4623210000000  0.5197860000000 1.0
C      1  0.5201080000000  0.4686400000000  0.4939770000000 1.0
C      1  0.4879500000000  0.5179210000000  0.5207330000000 1.0
C      1  0.4840260000000  0.5335370000000  0.4727650000000 1.0
C      1  0.5099690000000  0.5288850000000  0.4845370000000 1.0
C      1  0.5140600000000  0.5289110000000  0.5123310000000 1.0
C      1  0.5583530000000  0.4743910000000  0.4066010000000 1.0
C      1  0.4031150000000  0.4705270000000  0.4417480000000 1.0
C      1  0.4404780000000  0.4697180000000  0.5972010000000 1.0
C      1  0.5956180000000  0.4724410000000  0.5573440000000 1.0
C      1  0.5573440000000  0.5285060000000  0.5961930000000 1.0
C      1  0.4051010000000  0.5260640000000  0.5554990000000 1.0
C      1  0.4421670000000  0.5275820000000  0.4037740000000 1.0
C      1  0.6000070000000  0.5299140000000  0.4442880000000 1.0
C      1  0.4819300000000  0.5869300000000  0.4474200000000 1.0
C      1  0.4507550000000  0.5863140000000  0.5208150000000 1.0
C      1  0.5216320000000  0.5874720000000  0.5511100000000 1.0
C      1  0.5543910000000  0.5872150000000  0.4798530000000 1.0
C      1  0.4808040000000  0.4161090000000  0.5490830000000 1.0
C      1  0.4466020000000  0.4137950000000  0.4795720000000 1.0
C      1  0.5165640000000  0.4090890000000  0.4440870000000 1.0
C      1  0.5522070000000  0.4135830000000  0.5135540000000 1.0
C      1  0.5161910000000  0.6208970000000  0.4830790000000 1.0
C      1  0.4860230000000  0.6209250000000  0.4839610000000 1.0
C      1  0.4873650000000  0.6204800000000  0.5139620000000 1.0
C      1  0.5165260000000  0.6212380000000  0.5121960000000 1.0
C      1  0.5152450000000  0.3808170000000  0.5135530000000 1.0
C      1  0.4860530000000  0.3817670000000  0.5146070000000 1.0
C      1  0.4854000000000  0.3789430000000  0.4856630000000 1.0
C      1  0.5144650000000  0.3778340000000  0.4846850000000 1.0
C      1  0.5574820000000  0.5869930000000  0.5089770000000 1.0
C      1  0.5105630000000  0.5817640000000  0.4555950000000 1.0
C      1  0.4553580000000  0.5820940000000  0.4898020000000 1.0
C      1  0.4925890000000  0.5882690000000  0.5517050000000 1.0
C      1  0.5431790000000  0.4196060000000  0.4827810000000 1.0
C      1  0.5151500000000  0.4176040000000  0.5459160000000 1.0
C      1  0.4459410000000  0.4135660000000  0.5082970000000 1.0
C      1  0.4875660000000  0.4075200000000  0.4445910000000 1.0
C      1  0.4029150000000  0.5314050000000  0.4346760000000 1.0
C      1  0.4477260000000  0.5420150000000  0.6078340000000 1.0
C      1  0.5936280000000  0.5325960000000  0.5628190000000 1.0
C      1  0.5428490000000  0.5461660000000  0.3999000000000 1.0
C      1  0.4004850000000  0.4657140000000  0.5655690000000 1.0
C      1  0.4505350000000  0.4523300000000  0.4061660000000 1.0
C      1  0.6001000000000  0.4535390000000  0.4560450000000 1.0
C      1  0.5473580000000  0.4519800000000  0.5963430000000 1.0
C      1  0.5390590000000  0.5169260000000  0.3999750000000 1.0
C      1  0.3966340000000  0.5131550000000  0.4563700000000 1.0
C      1  0.4572270000000  0.5162420000000  0.6023880000000 1.0
C      1  0.6001900000000  0.5187340000000  0.5377980000000 1.0
C      1  0.5424930000000  0.4804290000000  0.6009580000000 1.0
C      1  0.4012990000000  0.4793530000000  0.5374770000000 1.0
C      1  0.4583150000000  0.4786590000000  0.3990940000000 1.0
C      1  0.5998010000000  0.4829590000000  0.4583490000000 1.0
C      1  0.5430370000000  0.4485660000000  0.4120730000000 1.0
C      1  0.4089560000000  0.4475240000000  0.4613260000000 1.0
C      1  0.4582450000000  0.4481490000000  0.5871700000000 1.0
C      1  0.5890380000000  0.4468190000000  0.5417810000000 1.0
C      1  0.5410850000000  0.5521310000000  0.5879370000000 1.0
C      1  0.4131310000000  0.5504490000000  0.5398070000000 1.0
C      1  0.4584500000000  0.5518850000000  0.4115700000000 1.0
C      1  0.5927900000000  0.5527170000000  0.4620740000000 1.0
C      1  0.3904410000000  0.5075930000000  0.5384740000000 1.0
C      1  0.5431890000000  0.5077350000000  0.6113700000000 1.0
C      1  0.6140730000000  0.5081180000000  0.4583710000000 1.0
C      1  0.4572260000000  0.5067810000000  0.3899620000000 1.0
C      1  0.3837490000000  0.4869920000000  0.4560180000000 1.0
C      1  0.5438340000000  0.4910240000000  0.3867310000000 1.0
C      1  0.6115710000000  0.4908670000000  0.5413880000000 1.0
C      1  0.4563900000000  0.4884400000000  0.6130820000000 1.0
C      1  0.4493160000000  0.4723560000000  0.5463170000000 1.0
C      1  0.5491590000000  0.4729670000000  0.5550900000000 1.0
C      1  0.5499160000000  0.4740500000000  0.4551740000000 1.0
C      1  0.4530320000000  0.4707980000000  0.4496750000000 1.0
C      1  0.4456020000000  0.5240020000000  0.4575020000000 1.0
C      1  0.5387540000000  0.5238190000000  0.4504130000000 1.0
C      1  0.5470020000000  0.5271440000000  0.5428970000000 1.0
C      1  0.4546470000000  0.5266700000000  0.5530920000000 1.0
C      1  0.5240730000000  0.4357900000000  0.5909860000000 1.0
C      1  0.5927330000000  0.4364470000000  0.4780960000000 1.0
C      1  0.4736170000000  0.4350780000000  0.4045670000000 1.0
C      1  0.4261330000000  0.4281680000000  0.5229790000000 1.0
C      1  0.5291420000000  0.5625630000000  0.4212010000000 1.0
C      1  0.5748060000000  0.5707630000000  0.5214330000000 1.0
C      1  0.4785090000000  0.5715050000000  0.5710790000000 1.0
C      1  0.4315190000000  0.5724820000000  0.4774360000000 1.0
C      1  0.5022280000000  0.4654840000000  0.4364550000000 1.0
C      1  0.4359170000000  0.4666490000000  0.4972920000000 1.0
C      1  0.4986010000000  0.4700400000000  0.5625440000000 1.0
C      1  0.5568830000000  0.4594270000000  0.5159350000000 1.0
C      1  0.4999720000000  0.5207710000000  0.5708800000000 1.0
C      1  0.4416100000000  0.5297170000000  0.5037390000000 1.0
C      1  0.4893400000000  0.5302880000000  0.4415670000000 1.0
C      1  0.5626310000000  0.5319840000000  0.4950460000000 1.0
C      1  0.5781380000000  0.5053140000000  0.5228900000000 1.0
C      1  0.5268340000000  0.5071360000000  0.4265430000000 1.0
C      1  0.4182910000000  0.5032730000000  0.4737120000000 1.0
C      1  0.4482130000000  0.5103660000000  0.5745750000000 1.0
C      1  0.5725210000000  0.4943960000000  0.4525590000000 1.0
C      1  0.5519070000000  0.4905880000000  0.5760940000000 1.0
C      1  0.4280510000000  0.4917350000000  0.5404150000000 1.0
C      1  0.4505240000000  0.4887260000000  0.4273990000000 1.0
C      1  0.4388530000000  0.5168990000000  0.5305810000000 1.0
C      1  0.5281490000000  0.5102500000000  0.5574730000000 1.0
C      1  0.5624150000000  0.5235850000000  0.4666620000000 1.0
C      1  0.4664920000000  0.5133060000000  0.4397660000000 1.0
C      1  0.4356410000000  0.4802800000000  0.4721010000000 1.0
C      1  0.5273020000000  0.4795550000000  0.4364350000000 1.0
C      1  0.5639990000000  0.4830500000000  0.5316460000000 1.0
C      1  0.4729570000000  0.4837630000000  0.5589460000000 1.0
C      1  0.5571040000000  0.4440820000000  0.5691000000000 1.0
C      1  0.5722770000000  0.4497760000000  0.4466200000000 1.0
C      1  0.4471540000000  0.4406610000000  0.4360270000000 1.0
C      1  0.4140940000000  0.4427010000000  0.5602820000000 1.0
C      1  0.5677220000000  0.5464880000000  0.4152810000000 1.0
C      1  0.5683670000000  0.5441140000000  0.5541010000000 1.0
C      1  0.4427150000000  0.5494860000000  0.5823620000000 1.0
C      1  0.4250410000000  0.5446050000000  0.4476960000000 1.0
C      1  0.5208920000000  0.4824020000000  0.5470950000000 1.0
C      1  0.5367320000000  0.4848930000000  0.4787560000000 1.0
C      1  0.4805700000000  0.4779840000000  0.4518620000000 1.0
C      1  0.4554450000000  0.4723150000000  0.5175380000000 1.0
C      1  0.5242440000000  0.5090840000000  0.4710360000000 1.0
C      1  0.5428360000000  0.5258600000000  0.5151750000000 1.0
C      1  0.4798760000000  0.5129240000000  0.5488920000000 1.0
C      1  0.4593180000000  0.5220650000000  0.4821680000000 1.0
C      1  0.5586460000000  0.4257270000000  0.4544460000000 1.0
C      1  0.4686350000000  0.4211410000000  0.4291530000000 1.0
C      1  0.4328260000000  0.4248670000000  0.5517500000000 1.0
C      1  0.5352560000000  0.4243830000000  0.5679260000000 1.0
C      1  0.5650010000000  0.5725050000000  0.5471940000000 1.0
C      1  0.4489650000000  0.5721690000000  0.5662030000000 1.0
C      1  0.4353340000000  0.5713310000000  0.4491960000000 1.0
C      1  0.5554680000000  0.5650400000000  0.4352570000000 1.0
C      1  0.4828920000000  0.4540930000000  0.6004100000000 1.0
C      1  0.6022360000000  0.4506120000000  0.5152860000000 1.0
C      1  0.5195940000000  0.4518910000000  0.3958950000000 1.0
C      1  0.3968420000000  0.4530030000000  0.4872170000000 1.0
C      1  0.4845990000000  0.5463760000000  0.4005150000000 1.0
C      1  0.6039220000000  0.5456060000000  0.4882940000000 1.0
C      1  0.5155320000000  0.5478680000000  0.6009230000000 1.0
C      1  0.4011020000000  0.5476090000000  0.5136290000000 1.0
C      1  0.5409240000000  0.5724420000000  0.5654350000000 1.0
C      1  0.5682830000000  0.5699310000000  0.4609480000000 1.0
C      1  0.4601190000000  0.5710950000000  0.4343160000000 1.0
C      1  0.4354870000000  0.5706550000000  0.5402080000000 1.0
C      1  0.5387120000000  0.4274060000000  0.4334440000000 1.0
C      1  0.5650670000000  0.4321800000000  0.5317130000000 1.0
C      1  0.4608780000000  0.4326350000000  0.5617900000000 1.0
C      1  0.4315490000000  0.4293340000000  0.4600450000000 1.0
C      1  0.5029250000000  0.5569830000000  0.5259820000000 1.0
C      1  0.5070930000000  0.5684500000000  0.4821590000000 1.0
C      1  0.4795100000000  0.5588320000000  0.4884940000000 1.0
C      1  0.4777990000000  0.5460580000000  0.5161920000000 1.0
C      1  0.5188210000000  0.4384290000000  0.4828360000000 1.0
C      1  0.5125550000000  0.4404430000000  0.5285040000000 1.0
C      1  0.4869680000000  0.4474940000000  0.5205690000000 1.0
C      1  0.4785900000000  0.4465390000000  0.4909340000000 1.0
C      1  0.5803810000000  0.4537980000000  0.4956590000000 1.0
C      1  0.4979990000000  0.4475470000000  0.4150230000000 1.0
C      1  0.4132870000000  0.4546150000000  0.5122430000000 1.0
C      1  0.5023190000000  0.4499610000000  0.5822970000000 1.0
C      1  0.5847300000000  0.5457000000000  0.5102650000000 1.0
C      1  0.4938280000000  0.5487850000000  0.5816630000000 1.0
C      1  0.4222290000000  0.5499870000000  0.4937020000000 1.0
C      1  0.5021300000000  0.5498370000000  0.4242470000000 1.0
C      1  0.5308530000000  0.4002920000000  0.5264830000000 1.0
C      1  0.5288650000000  0.3971240000000  0.4676530000000 1.0
C      1  0.4749600000000  0.4010130000000  0.4706640000000 1.0
C      1  0.4698020000000  0.4029840000000  0.5264940000000 1.0
C      1  0.5302910000000  0.5998610000000  0.4678990000000 1.0
C      1  0.5312540000000  0.5968550000000  0.5232250000000 1.0
C      1  0.4738990000000  0.6001970000000  0.5305770000000 1.0
C      1  0.4705300000000  0.6006110000000  0.4704000000000 1.0
C      1  0.4176680000000  0.5152600000000  0.4150940000000 1.0
C      1  0.4191000000000  0.5096840000000  0.5759330000000 1.0
C      1  0.5819060000000  0.5167390000000  0.5842790000000 1.0
C      1  0.5833010000000  0.5219200000000  0.4218260000000 1.0
C      1  0.4163840000000  0.4818530000000  0.5849040000000 1.0
C      1  0.4193880000000  0.4878780000000  0.4250250000000 1.0
C      1  0.5738940000000  0.4938500000000  0.4220010000000 1.0
C      1  0.5812420000000  0.4890340000000  0.5762710000000 1.0
C      1  0.4992610000000  0.5042360000000  0.5971250000000 1.0
C      1  0.4001250000000  0.4999630000000  0.4953100000000 1.0
C      1  0.5023720000000  0.4991770000000  0.4022600000000 1.0
C      1  0.5968760000000  0.4980730000000  0.5013000000000 1.0
C      1  0.4952190000000  0.4245280000000  0.4827450000000 1.0
C      1  0.5138770000000  0.5764150000000  0.5088710000000 1.0
C      1  0.4945220000000  0.4900840000000  0.4988930000000 1.0
END
