TITL C-2441159-1093-632 0.0387700082557866 125000 -9765.84496695618 0 0 76 (C1) n - 1
REM
REM in /home/bkarasulu/work/CARBON/AIRSS/Generating-Clusters/ReaxFF-fromJPCA2015/Units_Real/with-SteepDescent/Higher-Symm
REM
REM
REM
REM
REM
REM ./C.cell (1df0a924f5614ab8850e4351716899ee)
REM
REM compiler GCC version 9.2.1 20190827 (Red Hat 9.2.1-1)
REM options -cpp -mtune=generic -march=x86-64 -g -O0 -fpre-include=/usr/include/finclude/math-vector-fortran.h
REM seed 2084648910 -1000970567 -208620158 -392047471 2113552378 -1548208255 -1772755115 -339588511 -1791814431 -71622753 -1436365598 -115994105 1861094244 -2139949297 595632299 -1659711174 -1808023156 1130320120 876387161 1801012238 1583619985 1039760083 2032952494 1100577418 629067197 1666238948 -232229624 1331672457 1140687184 1486554196 1377942790 -579917563 -203289742
REM
CELL 1.54180   50.00000   50.00000   50.00000   90.00000   90.00000   90.00000
LATT -1
SFAC C  
C      1  0.5456930000000  0.4689540000000  0.5560730000000 1.0
C      1  0.5507400000000  0.5157940000000  0.5547140000000 1.0
C      1  0.5195010000000  0.5511250000000  0.5553560000000 1.0
C      1  0.4725990000000  0.5457890000000  0.5547340000000 1.0
C      1  0.4452970000000  0.5075460000000  0.5554900000000 1.0
C      1  0.4603390000000  0.4622840000000  0.5552120000000 1.0
C      1  0.5048430000000  0.4459050000000  0.5546230000000 1.0
C      1  0.5187870000000  0.4471810000000  0.4685890000000 1.0
C      1  0.5573410000000  0.4818330000000  0.4708410000000 1.0
C      1  0.5488570000000  0.5322000000000  0.4696630000000 1.0
C      1  0.5055750000000  0.5598840000000  0.4701920000000 1.0
C      1  0.4569900000000  0.5417000000000  0.4686470000000 1.0
C      1  0.4418790000000  0.4930250000000  0.4698020000000 1.0
C      1  0.4681760000000  0.4489120000000  0.4703640000000 1.0
C      1  0.4404830000000  0.4708010000000  0.4502450000000 1.0
C      1  0.4846000000000  0.4380630000000  0.4488310000000 1.0
C      1  0.5401200000000  0.4529640000000  0.4486990000000 1.0
C      1  0.5661660000000  0.5010230000000  0.4501010000000 1.0
C      1  0.5379000000000  0.5493870000000  0.4489490000000 1.0
C      1  0.4856170000000  0.5618300000000  0.4492270000000 1.0
C      1  0.4413690000000  0.5271810000000  0.4485120000000 1.0
C      1  0.5354830000000  0.5363780000000  0.4938560000000 1.0
C      1  0.4938950000000  0.5510750000000  0.4937360000000 1.0
C      1  0.4552330000000  0.5287550000000  0.4931440000000 1.0
C      1  0.4520860000000  0.4847680000000  0.4947370000000 1.0
C      1  0.4827910000000  0.4514000000000  0.4939760000000 1.0
C      1  0.5257510000000  0.4565300000000  0.4942540000000 1.0
C      1  0.5507320000000  0.4940500000000  0.4951970000000 1.0
C      1  0.4822750000000  0.4679330000000  0.5161010000000 1.0
C      1  0.5116230000000  0.4631560000000  0.5177260000000 1.0
C      1  0.5380980000000  0.4852030000000  0.5187240000000 1.0
C      1  0.5355930000000  0.5230980000000  0.5175490000000 1.0
C      1  0.5036240000000  0.5426970000000  0.5173680000000 1.0
C      1  0.4697480000000  0.5262630000000  0.5146090000000 1.0
C      1  0.4612010000000  0.4988810000000  0.5176390000000 1.0
C      1  0.5362970000000  0.5639680000000  0.5010810000000 1.0
C      1  0.4716120000000  0.5676710000000  0.5010690000000 1.0
C      1  0.4288370000000  0.5213000000000  0.5014620000000 1.0
C      1  0.4411440000000  0.4595180000000  0.5020310000000 1.0
C      1  0.4956390000000  0.4270510000000  0.5012640000000 1.0
C      1  0.5524060000000  0.4498380000000  0.5008280000000 1.0
C      1  0.5726270000000  0.5112020000000  0.5015470000000 1.0
C      1  0.4579350000000  0.4552240000000  0.5261910000000 1.0
C      1  0.5082640000000  0.4354090000000  0.5263450000000 1.0
C      1  0.5557930000000  0.4641510000000  0.5270050000000 1.0
C      1  0.5625870000000  0.5220200000000  0.5268840000000 1.0
C      1  0.5217670000000  0.5626710000000  0.5267020000000 1.0
C      1  0.4645520000000  0.5528090000000  0.5256240000000 1.0
C      1  0.4349240000000  0.5072640000000  0.5266830000000 1.0
C      1  0.5234560000000  0.4602210000000  0.5656420000000 1.0
C      1  0.5452560000000  0.4930780000000  0.5652280000000 1.0
C      1  0.5327210000000  0.5311000000000  0.5648510000000 1.0
C      1  0.4960790000000  0.5455570000000  0.5649080000000 1.0
C      1  0.4619180000000  0.5248410000000  0.5651130000000 1.0
C      1  0.4558990000000  0.4857790000000  0.5652480000000 1.0
C      1  0.4838610000000  0.4574090000000  0.5651680000000 1.0
C      1  0.4665410000000  0.5145570000000  0.4346650000000 1.0
C      1  0.4624360000000  0.4820080000000  0.4338340000000 1.0
C      1  0.4851630000000  0.4643680000000  0.4339980000000 1.0
C      1  0.5314510000000  0.4779920000000  0.4341260000000 1.0
C      1  0.5414090000000  0.5049550000000  0.4343200000000 1.0
C      1  0.5205080000000  0.5298380000000  0.4361410000000 1.0
C      1  0.4910290000000  0.5347230000000  0.4361700000000 1.0
C      1  0.4406980000000  0.4522830000000  0.4727370000000 1.0
C      1  0.5003990000000  0.4254470000000  0.4708270000000 1.0
C      1  0.5587960000000  0.4535180000000  0.4713120000000 1.0
C      1  0.5735250000000  0.5186930000000  0.4722340000000 1.0
C      1  0.5321590000000  0.5685950000000  0.4713070000000 1.0
C      1  0.4663670000000  0.5679570000000  0.4712110000000 1.0
C      1  0.4255330000000  0.5164380000000  0.4713830000000 1.0
C      1  0.5001130000000  0.4973270000000  0.4635620000000 1.0
C      1  0.5040620000000  0.5059960000000  0.5162670000000 1.0
C      1  0.4990410000000  0.4989090000000  0.5682430000000 1.0
C      1  0.5034030000000  0.4882860000000  0.4357800000000 1.0
C      1  0.5003540000000  0.5008340000000  0.4885690000000 1.0
C      1  0.5001270000000  0.5004110000000  0.5436330000000 1.0
END
