TITL C-2441159-1093-992 0.0657544334772663 125000 -22578.4995375338 0 0 159 (C1) n - 1
REM
REM in /home/bkarasulu/work/CARBON/AIRSS/Generating-Clusters/ReaxFF-fromJPCA2015/Units_Real/with-SteepDescent/Higher-Symm
REM
REM
REM
REM
REM
REM ./C.cell (1df0a924f5614ab8850e4351716899ee)
REM
REM compiler GCC version 9.2.1 20190827 (Red Hat 9.2.1-1)
REM options -cpp -mtune=generic -march=x86-64 -g -O0 -fpre-include=/usr/include/finclude/math-vector-fortran.h
REM seed -515082065 -443184082 127684569 -1850824196 -1059597019 -629174659 2038579386 -1031103764 71450595 1659037367 -1225871589 -781802264 -1502532188 1137673339 1805667150 1840628913 -1442636503 2142741270 -974345446 -776695669 -1358896870 -1327063036 -834855040 -1070462426 -915650055 420347119 -1059532029 1708532626 50744358 -70956872 1569603003 617672703 354418294
REM
CELL 1.54180   50.00000   50.00000   50.00000   90.00000   90.00000   90.00000
LATT -1
SFAC C  
C      1  0.5186960000000  0.5127450000000  0.4414080000000 1.0
C      1  0.4939250000000  0.4787320000000  0.4444850000000 1.0
C      1  0.4891460000000  0.5078850000000  0.4449930000000 1.0
C      1  0.5515420000000  0.5763020000000  0.5197960000000 1.0
C      1  0.5443600000000  0.4116030000000  0.5203600000000 1.0
C      1  0.4076620000000  0.5047420000000  0.5171430000000 1.0
C      1  0.4888100000000  0.4076110000000  0.5617490000000 1.0
C      1  0.4278150000000  0.5604670000000  0.5620680000000 1.0
C      1  0.5880340000000  0.5343950000000  0.5648180000000 1.0
C      1  0.5282860000000  0.4501790000000  0.4632400000000 1.0
C      1  0.4447070000000  0.4997980000000  0.4634050000000 1.0
C      1  0.5302750000000  0.5461400000000  0.4658380000000 1.0
C      1  0.4695840000000  0.5159890000000  0.5460210000000 1.0
C      1  0.5221960000000  0.5159030000000  0.5407510000000 1.0
C      1  0.4980590000000  0.4718310000000  0.5388560000000 1.0
C      1  0.6063280000000  0.4812460000000  0.4982800000000 1.0
C      1  0.4303880000000  0.4168900000000  0.4969450000000 1.0
C      1  0.4639310000000  0.6018550000000  0.4968430000000 1.0
C      1  0.5376040000000  0.4099970000000  0.4491000000000 1.0
C      1  0.4061290000000  0.5123200000000  0.4491640000000 1.0
C      1  0.5580240000000  0.5763530000000  0.4508760000000 1.0
C      1  0.5015900000000  0.5360350000000  0.5965210000000 1.0
C      1  0.5403560000000  0.4874510000000  0.5883640000000 1.0
C      1  0.4634690000000  0.4776030000000  0.5943400000000 1.0
C      1  0.4615280000000  0.4160720000000  0.5567810000000 1.0
C      1  0.4511550000000  0.5777930000000  0.5565860000000 1.0
C      1  0.5954090000000  0.5054020000000  0.5688320000000 1.0
C      1  0.5689560000000  0.5480950000000  0.5809380000000 1.0
C      1  0.4914780000000  0.4304800000000  0.5804070000000 1.0
C      1  0.4452940000000  0.5445910000000  0.5796860000000 1.0
C      1  0.4672460000000  0.4635950000000  0.5037210000000 1.0
C      1  0.4868440000000  0.5444700000000  0.5034350000000 1.0
C      1  0.5308040000000  0.4905120000000  0.4981950000000 1.0
C      1  0.5759650000000  0.4983130000000  0.5206950000000 1.0
C      1  0.4553900000000  0.4212360000000  0.5297000000000 1.0
C      1  0.4565380000000  0.5763340000000  0.5285280000000 1.0
C      1  0.5273920000000  0.5579910000000  0.5112740000000 1.0
C      1  0.5361970000000  0.4633170000000  0.5066320000000 1.0
C      1  0.4347440000000  0.4955370000000  0.5095220000000 1.0
C      1  0.4657850000000  0.4103170000000  0.4605580000000 1.0
C      1  0.4408830000000  0.5747620000000  0.4608910000000 1.0
C      1  0.5942590000000  0.5141480000000  0.4619730000000 1.0
C      1  0.4358360000000  0.4833450000000  0.4840680000000 1.0
C      1  0.5186660000000  0.5628120000000  0.4849520000000 1.0
C      1  0.5479800000000  0.4526560000000  0.4833190000000 1.0
C      1  0.4530450000000  0.4791450000000  0.5228820000000 1.0
C      1  0.5046700000000  0.5495060000000  0.5243850000000 1.0
C      1  0.5448970000000  0.4718650000000  0.5321450000000 1.0
C      1  0.5807620000000  0.4447110000000  0.5316100000000 1.0
C      1  0.4108960000000  0.4574530000000  0.5308450000000 1.0
C      1  0.5073540000000  0.5955000000000  0.5324640000000 1.0
C      1  0.5598720000000  0.4530090000000  0.4271560000000 1.0
C      1  0.4277090000000  0.4711540000000  0.4282870000000 1.0
C      1  0.5111450000000  0.5730310000000  0.4290590000000 1.0
C      1  0.4235190000000  0.5408760000000  0.5411060000000 1.0
C      1  0.5695760000000  0.5408200000000  0.5406920000000 1.0
C      1  0.5058530000000  0.4182040000000  0.5409970000000 1.0
C      1  0.5092940000000  0.4050000000000  0.4535110000000 1.0
C      1  0.4152080000000  0.5391140000000  0.4529330000000 1.0
C      1  0.5757790000000  0.5540380000000  0.4553430000000 1.0
C      1  0.5638980000000  0.4775620000000  0.4155560000000 1.0
C      1  0.4456620000000  0.4558700000000  0.4107440000000 1.0
C      1  0.4895730000000  0.5630990000000  0.4144900000000 1.0
C      1  0.5018490000000  0.4434160000000  0.4734750000000 1.0
C      1  0.4523740000000  0.5257060000000  0.4732200000000 1.0
C      1  0.5472070000000  0.5233670000000  0.4745290000000 1.0
C      1  0.4165300000000  0.4591390000000  0.4811840000000 1.0
C      1  0.5065340000000  0.5922600000000  0.4819690000000 1.0
C      1  0.5772750000000  0.4480090000000  0.4809710000000 1.0
C      1  0.4643660000000  0.4391460000000  0.5722230000000 1.0
C      1  0.4670990000000  0.5622150000000  0.5732770000000 1.0
C      1  0.5747980000000  0.4933560000000  0.5504320000000 1.0
C      1  0.5105300000000  0.5772200000000  0.5566400000000 1.0
C      1  0.5625310000000  0.4504280000000  0.5563380000000 1.0
C      1  0.4246830000000  0.4695500000000  0.5570370000000 1.0
C      1  0.4873790000000  0.4170180000000  0.4399190000000 1.0
C      1  0.4362670000000  0.5537400000000  0.4395330000000 1.0
C      1  0.5789960000000  0.5290990000000  0.4413430000000 1.0
C      1  0.5233290000000  0.5203890000000  0.6056170000000 1.0
C      1  0.5179050000000  0.4695860000000  0.5917710000000 1.0
C      1  0.4593460000000  0.5048960000000  0.5947750000000 1.0
C      1  0.5998800000000  0.4865130000000  0.4693690000000 1.0
C      1  0.4385050000000  0.4194200000000  0.4684290000000 1.0
C      1  0.4621860000000  0.5935580000000  0.4682440000000 1.0
C      1  0.4927200000000  0.4390740000000  0.4190770000000 1.0
C      1  0.4535420000000  0.5378700000000  0.4211100000000 1.0
C      1  0.5600670000000  0.5232110000000  0.4196010000000 1.0
C      1  0.3922660000000  0.4767500000000  0.4867200000000 1.0
C      1  0.5339570000000  0.6043270000000  0.4890300000000 1.0
C      1  0.5735950000000  0.4195550000000  0.4869410000000 1.0
C      1  0.4243540000000  0.5400490000000  0.4831980000000 1.0
C      1  0.5772430000000  0.5491130000000  0.4835840000000 1.0
C      1  0.5031880000000  0.4141310000000  0.4838270000000 1.0
C      1  0.4288090000000  0.5704820000000  0.4863780000000 1.0
C      1  0.5960300000000  0.5274930000000  0.4872340000000 1.0
C      1  0.4747740000000  0.4018230000000  0.4865210000000 1.0
C      1  0.4949120000000  0.5554260000000  0.5705810000000 1.0
C      1  0.5597160000000  0.4760930000000  0.5697200000000 1.0
C      1  0.4470370000000  0.4626310000000  0.5748860000000 1.0
C      1  0.5216740000000  0.4870490000000  0.5420730000000 1.0
C      1  0.4749390000000  0.4882220000000  0.5380260000000 1.0
C      1  0.4978080000000  0.5319640000000  0.5474280000000 1.0
C      1  0.4743500000000  0.4391190000000  0.5162800000000 1.0
C      1  0.4610410000000  0.5512530000000  0.5142680000000 1.0
C      1  0.5523130000000  0.5099510000000  0.5055510000000 1.0
C      1  0.5917900000000  0.4580510000000  0.5089900000000 1.0
C      1  0.4178580000000  0.4415230000000  0.5079490000000 1.0
C      1  0.4909080000000  0.5993090000000  0.5082130000000 1.0
C      1  0.4881430000000  0.5896010000000  0.4579650000000 1.0
C      1  0.5839720000000  0.4661000000000  0.4580710000000 1.0
C      1  0.4278000000000  0.4430820000000  0.4575670000000 1.0
C      1  0.4859380000000  0.5113410000000  0.5928620000000 1.0
C      1  0.5320830000000  0.5129290000000  0.5803540000000 1.0
C      1  0.4922030000000  0.4823230000000  0.5938260000000 1.0
C      1  0.5691490000000  0.5733210000000  0.4960930000000 1.0
C      1  0.5306220000000  0.4054220000000  0.4962430000000 1.0
C      1  0.4031760000000  0.5219070000000  0.4945190000000 1.0
C      1  0.5421690000000  0.5402620000000  0.5748760000000 1.0
C      1  0.5180530000000  0.4428990000000  0.5812980000000 1.0
C      1  0.4474100000000  0.5152830000000  0.5730520000000 1.0
C      1  0.5408990000000  0.5021970000000  0.4565210000000 1.0
C      1  0.4800180000000  0.4597840000000  0.4618530000000 1.0
C      1  0.4784820000000  0.5336070000000  0.4628210000000 1.0
C      1  0.4761200000000  0.5409080000000  0.4021920000000 1.0
C      1  0.5551860000000  0.4998980000000  0.4024790000000 1.0
C      1  0.4716590000000  0.4500290000000  0.4059990000000 1.0
C      1  0.5305920000000  0.5287210000000  0.4190210000000 1.0
C      1  0.5041750000000  0.4682630000000  0.4197570000000 1.0
C      1  0.4615830000000  0.5094350000000  0.4254930000000 1.0
C      1  0.4045800000000  0.5164140000000  0.5487680000000 1.0
C      1  0.5594710000000  0.5676110000000  0.5464590000000 1.0
C      1  0.5318970000000  0.4153080000000  0.5454160000000 1.0
C      1  0.4296420000000  0.4982500000000  0.4363900000000 1.0
C      1  0.5346350000000  0.5620940000000  0.4404520000000 1.0
C      1  0.5388080000000  0.4371780000000  0.4385140000000 1.0
C      1  0.5567290000000  0.5903270000000  0.4768490000000 1.0
C      1  0.5506310000000  0.4059930000000  0.4758120000000 1.0
C      1  0.3939550000000  0.5036600000000  0.4748820000000 1.0
C      1  0.5721930000000  0.4212540000000  0.5158510000000 1.0
C      1  0.3945940000000  0.4761960000000  0.5153850000000 1.0
C      1  0.5318090000000  0.6019360000000  0.5174880000000 1.0
C      1  0.4405480000000  0.5871270000000  0.5069900000000 1.0
C      1  0.6002290000000  0.5081610000000  0.5088320000000 1.0
C      1  0.4541840000000  0.4027870000000  0.5070460000000 1.0
C      1  0.5026530000000  0.4920320000000  0.4009060000000 1.0
C      1  0.4799030000000  0.5106280000000  0.4020880000000 1.0
C      1  0.5270940000000  0.5077390000000  0.3978940000000 1.0
C      1  0.4485070000000  0.5308730000000  0.5298460000000 1.0
C      1  0.5465560000000  0.5259380000000  0.5299230000000 1.0
C      1  0.4985100000000  0.4437140000000  0.5302470000000 1.0
C      1  0.5402740000000  0.4335730000000  0.5652150000000 1.0
C      1  0.4232640000000  0.4963600000000  0.5652370000000 1.0
C      1  0.5362760000000  0.5675710000000  0.5643660000000 1.0
C      1  0.5044110000000  0.4977450000000  0.4904780000000 1.0
C      1  0.4827360000000  0.4782720000000  0.4847650000000 1.0
C      1  0.4966520000000  0.5254420000000  0.4844540000000 1.0
C      1  0.4465700000000  0.4562900000000  0.4412590000000 1.0
C      1  0.4882430000000  0.5645640000000  0.4437590000000 1.0
C      1  0.5625780000000  0.4793440000000  0.4438240000000 1.0
END
