TITL C-2441154-10-645 0.112947017715462 125000 -17303.5313939406 0 0 135 (C1) n - 1
REM
REM in /home/bkarasulu/work/CARBON/AIRSS/Generating-Clusters/ReaxFF-fromJPCA2015/Units_Real/with-SteepDescent/Higher-Symm
REM
REM
REM
REM
REM
REM ./C.cell (1df0a924f5614ab8850e4351716899ee)
REM
REM compiler GCC version 9.2.1 20190827 (Red Hat 9.2.1-1)
REM options -cpp -mtune=generic -march=x86-64 -g -O0 -fpre-include=/usr/include/finclude/math-vector-fortran.h
REM seed 985962886 113188684 -694163822 -1048443575 -793102001 1633129311 -1164361905 -657960304 920995862 -1616683281 -554950575 -1756672787 518370879 -714513311 190673158 1568050640 2109679600 -295557033 -2007810 -1450351205 -304603134 1314318713 388395128 -1087531269 1624367578 -176454541 -661624834 -2097565735 1701277901 -50308269 -658892908 -1765217088 286393247
REM
CELL 1.54180   50.00000   50.00000   50.00000   90.00000   90.00000   90.00000
LATT -1
SFAC C  
C      1  0.4999180000000  0.5272810000000  0.5792430000000 1.0
C      1  0.4756350000000  0.4864910000000  0.5778400000000 1.0
C      1  0.5233040000000  0.4849530000000  0.5779890000000 1.0
C      1  0.4985430000000  0.4715950000000  0.5782460000000 1.0
C      1  0.4742880000000  0.5147580000000  0.5692290000000 1.0
C      1  0.5251780000000  0.5137290000000  0.5698930000000 1.0
C      1  0.4398440000000  0.5508590000000  0.4397950000000 1.0
C      1  0.4879640000000  0.4212260000000  0.4395920000000 1.0
C      1  0.5740410000000  0.5283000000000  0.4399220000000 1.0
C      1  0.4369220000000  0.4506330000000  0.4392110000000 1.0
C      1  0.4876050000000  0.5791610000000  0.4396240000000 1.0
C      1  0.5745570000000  0.4730410000000  0.4399480000000 1.0
C      1  0.4643070000000  0.4686110000000  0.5079660000000 1.0
C      1  0.5420480000000  0.4835820000000  0.5068870000000 1.0
C      1  0.4882060000000  0.5455160000000  0.5066410000000 1.0
C      1  0.4612040000000  0.5258860000000  0.5111580000000 1.0
C      1  0.5437670000000  0.5142640000000  0.5094850000000 1.0
C      1  0.4900820000000  0.4530800000000  0.5080260000000 1.0
C      1  0.5834020000000  0.5112800000000  0.5776710000000 1.0
C      1  0.4507270000000  0.5599030000000  0.5741450000000 1.0
C      1  0.4749180000000  0.4273200000000  0.5780920000000 1.0
C      1  0.5775590000000  0.4885670000000  0.5742210000000 1.0
C      1  0.4514770000000  0.4393450000000  0.5745330000000 1.0
C      1  0.4705910000000  0.5750920000000  0.5759190000000 1.0
C      1  0.5443840000000  0.5916190000000  0.5061480000000 1.0
C      1  0.4002600000000  0.4905760000000  0.5056520000000 1.0
C      1  0.5661610000000  0.4306670000000  0.5060810000000 1.0
C      1  0.5438110000000  0.4097950000000  0.5055600000000 1.0
C      1  0.4055520000000  0.5199160000000  0.5078910000000 1.0
C      1  0.5667680000000  0.5708400000000  0.5067500000000 1.0
C      1  0.4269980000000  0.5578690000000  0.4782400000000 1.0
C      1  0.4856420000000  0.4103360000000  0.4795320000000 1.0
C      1  0.5874310000000  0.5334210000000  0.4785240000000 1.0
C      1  0.4289590000000  0.4436700000000  0.4792350000000 1.0
C      1  0.4860760000000  0.5883240000000  0.4795890000000 1.0
C      1  0.5868670000000  0.4674690000000  0.4787510000000 1.0
C      1  0.4687210000000  0.4171120000000  0.5269670000000 1.0
C      1  0.5866040000000  0.5157700000000  0.5253770000000 1.0
C      1  0.4408580000000  0.5673060000000  0.5248900000000 1.0
C      1  0.4667410000000  0.5813970000000  0.5250170000000 1.0
C      1  0.5858500000000  0.4851310000000  0.5244450000000 1.0
C      1  0.4433700000000  0.4315170000000  0.5260100000000 1.0
C      1  0.5116790000000  0.4452630000000  0.5802690000000 1.0
C      1  0.5394410000000  0.5391310000000  0.5795650000000 1.0
C      1  0.4460500000000  0.5148350000000  0.5800710000000 1.0
C      1  0.5134360000000  0.5526940000000  0.5800600000000 1.0
C      1  0.5376260000000  0.4599800000000  0.5798640000000 1.0
C      1  0.4466710000000  0.4857820000000  0.5808470000000 1.0
C      1  0.4316810000000  0.4708350000000  0.5600850000000 1.0
C      1  0.5598310000000  0.4544590000000  0.5610490000000 1.0
C      1  0.5071940000000  0.5738310000000  0.5596710000000 1.0
C      1  0.4286490000000  0.5286230000000  0.5615040000000 1.0
C      1  0.5588010000000  0.5459940000000  0.5590450000000 1.0
C      1  0.5095010000000  0.4258890000000  0.5583610000000 1.0
C      1  0.4993540000000  0.4693850000000  0.4848360000000 1.0
C      1  0.5252020000000  0.5146020000000  0.4858850000000 1.0
C      1  0.4757720000000  0.5133440000000  0.4871140000000 1.0
C      1  0.4991260000000  0.5302790000000  0.4851620000000 1.0
C      1  0.5240780000000  0.4860490000000  0.4849120000000 1.0
C      1  0.4746220000000  0.4839080000000  0.4847020000000 1.0
C      1  0.5794040000000  0.5254710000000  0.5532920000000 1.0
C      1  0.4379150000000  0.5536100000000  0.5518470000000 1.0
C      1  0.4830140000000  0.4170690000000  0.5530900000000 1.0
C      1  0.5757110000000  0.4751710000000  0.5503020000000 1.0
C      1  0.4357910000000  0.4430760000000  0.5525750000000 1.0
C      1  0.4801240000000  0.5839580000000  0.5513630000000 1.0
C      1  0.5253940000000  0.5725440000000  0.4940890000000 1.0
C      1  0.4263440000000  0.4885720000000  0.4922540000000 1.0
C      1  0.5474750000000  0.4499370000000  0.4935230000000 1.0
C      1  0.5263330000000  0.4293030000000  0.4918140000000 1.0
C      1  0.4333890000000  0.5165690000000  0.4986740000000 1.0
C      1  0.5479510000000  0.5516330000000  0.4933830000000 1.0
C      1  0.4873040000000  0.5751630000000  0.5053400000000 1.0
C      1  0.4378370000000  0.4516680000000  0.5058070000000 1.0
C      1  0.5838030000000  0.4630750000000  0.5067230000000 1.0
C      1  0.4885770000000  0.4216450000000  0.5060870000000 1.0
C      1  0.4238300000000  0.5539150000000  0.5062050000000 1.0
C      1  0.5833690000000  0.5369030000000  0.5066680000000 1.0
C      1  0.5235850000000  0.4841310000000  0.5291070000000 1.0
C      1  0.5034390000000  0.5330630000000  0.5298380000000 1.0
C      1  0.4673600000000  0.4855400000000  0.5319450000000 1.0
C      1  0.5260910000000  0.5129830000000  0.5336200000000 1.0
C      1  0.5031380000000  0.4639830000000  0.5320970000000 1.0
C      1  0.4748210000000  0.5135770000000  0.5350160000000 1.0
C      1  0.4730620000000  0.4827800000000  0.4309680000000 1.0
C      1  0.5286380000000  0.4856250000000  0.4302350000000 1.0
C      1  0.4991510000000  0.5320340000000  0.4298210000000 1.0
C      1  0.4730900000000  0.5165380000000  0.4302460000000 1.0
C      1  0.5293660000000  0.5150230000000  0.4305120000000 1.0
C      1  0.4985990000000  0.4678440000000  0.4301360000000 1.0
C      1  0.4959030000000  0.4397380000000  0.4184690000000 1.0
C      1  0.5534660000000  0.5281890000000  0.4202080000000 1.0
C      1  0.4494380000000  0.5319700000000  0.4207090000000 1.0
C      1  0.4957370000000  0.5604000000000  0.4188320000000 1.0
C      1  0.5531320000000  0.4710140000000  0.4211960000000 1.0
C      1  0.4492100000000  0.4669650000000  0.4177920000000 1.0
C      1  0.5224630000000  0.5646310000000  0.4136170000000 1.0
C      1  0.4346720000000  0.4895200000000  0.4174460000000 1.0
C      1  0.5482160000000  0.4429400000000  0.4282430000000 1.0
C      1  0.5237660000000  0.4321850000000  0.4141480000000 1.0
C      1  0.4252210000000  0.5146130000000  0.4235560000000 1.0
C      1  0.5423320000000  0.5526030000000  0.4145890000000 1.0
C      1  0.5072540000000  0.5394750000000  0.4576720000000 1.0
C      1  0.4616930000000  0.4863470000000  0.4581060000000 1.0
C      1  0.5309510000000  0.4756440000000  0.4584480000000 1.0
C      1  0.5076370000000  0.4590730000000  0.4577350000000 1.0
C      1  0.4624010000000  0.5147020000000  0.4596390000000 1.0
C      1  0.5316330000000  0.5249150000000  0.4584930000000 1.0
C      1  0.4134520000000  0.5128450000000  0.4514410000000 1.0
C      1  0.5320280000000  0.4152720000000  0.4663290000000 1.0
C      1  0.5539460000000  0.5620090000000  0.4657540000000 1.0
C      1  0.4121850000000  0.4870950000000  0.4659790000000 1.0
C      1  0.5325090000000  0.5834560000000  0.4669990000000 1.0
C      1  0.5526720000000  0.4356170000000  0.4571140000000 1.0
C      1  0.4751450000000  0.4316220000000  0.4626370000000 1.0
C      1  0.5697660000000  0.5136830000000  0.4637810000000 1.0
C      1  0.4539190000000  0.5521070000000  0.4651120000000 1.0
C      1  0.4721190000000  0.5715580000000  0.4626860000000 1.0
C      1  0.5679540000000  0.4867250000000  0.4645350000000 1.0
C      1  0.4526610000000  0.4451620000000  0.4624110000000 1.0
C      1  0.5171930000000  0.5574960000000  0.5378090000000 1.0
C      1  0.4381580000000  0.4874850000000  0.5375510000000 1.0
C      1  0.5466530000000  0.4419700000000  0.5403730000000 1.0
C      1  0.5203210000000  0.4400730000000  0.5368800000000 1.0
C      1  0.4253780000000  0.5106570000000  0.5410040000000 1.0
C      1  0.5447650000000  0.5593730000000  0.5397840000000 1.0
C      1  0.5056010000000  0.4058090000000  0.4576770000000 1.0
C      1  0.5796030000000  0.5521320000000  0.4562610000000 1.0
C      1  0.4162140000000  0.5416260000000  0.4551440000000 1.0
C      1  0.5061250000000  0.5925140000000  0.4584410000000 1.0
C      1  0.5794940000000  0.4488200000000  0.4562510000000 1.0
C      1  0.4151700000000  0.4588480000000  0.4574480000000 1.0
C      1  0.5542780000000  0.4198730000000  0.5303650000000 1.0
C      1  0.5558500000000  0.5827390000000  0.5310950000000 1.0
C      1  0.4019550000000  0.5040210000000  0.5316410000000 1.0
END
