TITL C-2441168-9922-585 0.00690703150654196 125000 -15132.4916422543 0 0 103 (C1) n - 1
REM
REM in /home/bkarasulu/work/CARBON/AIRSS/Generating-Clusters/ReaxFF-fromJPCA2015/Units_Real/with-SteepDescent/Higher-Symm
REM
REM
REM
REM
REM
REM ./C.cell (1df0a924f5614ab8850e4351716899ee)
REM
REM compiler GCC version 9.2.1 20190827 (Red Hat 9.2.1-1)
REM options -cpp -mtune=generic -march=x86-64 -g -O0 -fpre-include=/usr/include/finclude/math-vector-fortran.h
REM seed -2022678206 836144360 -1232180059 -633442214 1523447151 871400061 -1639876349 -1654456600 1080224164 -1820213583 -1968363958 717425105 -1570182617 -840533815 -1559166586 1760161050 -309432393 1721947853 -1042494710 1628958399 -733209598 532099481 1592338698 1157766887 -979094441 -210926388 -1463755164 -614798475 1215846016 -263580312 434824426 -874838723 1646021243
REM
CELL 1.54180   50.00000   50.00000   50.00000   90.00000   90.00000   90.00000
LATT -1
SFAC C  
C      1  0.4857210000000  0.5703660000000  0.4388250000000 1.0
C      1  0.5581750000000  0.5339220000000  0.4427870000000 1.0
C      1  0.5598140000000  0.4465730000000  0.4457610000000 1.0
C      1  0.4697370000000  0.4306640000000  0.4435290000000 1.0
C      1  0.4251100000000  0.5052340000000  0.4426380000000 1.0
C      1  0.4811930000000  0.5707520000000  0.5574850000000 1.0
C      1  0.5667960000000  0.5386600000000  0.5573990000000 1.0
C      1  0.5550660000000  0.4474290000000  0.5584620000000 1.0
C      1  0.4685770000000  0.4297270000000  0.5552670000000 1.0
C      1  0.4361750000000  0.4878690000000  0.5775150000000 1.0
C      1  0.5163110000000  0.5695660000000  0.5175960000000 1.0
C      1  0.5753540000000  0.5045580000000  0.5168860000000 1.0
C      1  0.5264740000000  0.4307540000000  0.5189180000000 1.0
C      1  0.4425090000000  0.4527850000000  0.5170260000000 1.0
C      1  0.4282670000000  0.5473100000000  0.5100160000000 1.0
C      1  0.5171450000000  0.5713760000000  0.4833200000000 1.0
C      1  0.5779370000000  0.5056520000000  0.4854240000000 1.0
C      1  0.5270470000000  0.4298240000000  0.4845920000000 1.0
C      1  0.4398500000000  0.4478560000000  0.4858930000000 1.0
C      1  0.4312610000000  0.5425600000000  0.4807060000000 1.0
C      1  0.4804030000000  0.5221580000000  0.4454460000000 1.0
C      1  0.5084680000000  0.5287740000000  0.4514790000000 1.0
C      1  0.5283380000000  0.4867740000000  0.4414940000000 1.0
C      1  0.5038900000000  0.4696220000000  0.4416610000000 1.0
C      1  0.4754500000000  0.4902830000000  0.4413540000000 1.0
C      1  0.4891890000000  0.5176970000000  0.5658840000000 1.0
C      1  0.5178020000000  0.5237790000000  0.5583030000000 1.0
C      1  0.5307300000000  0.4943040000000  0.5534940000000 1.0
C      1  0.5063680000000  0.4754970000000  0.5518060000000 1.0
C      1  0.4793080000000  0.4901220000000  0.5534960000000 1.0
C      1  0.4297120000000  0.5225000000000  0.5245430000000 1.0
C      1  0.4908540000000  0.5794410000000  0.5297010000000 1.0
C      1  0.5753740000000  0.5318700000000  0.5304430000000 1.0
C      1  0.5527620000000  0.4369750000000  0.5313310000000 1.0
C      1  0.4544940000000  0.4277130000000  0.5311710000000 1.0
C      1  0.4197280000000  0.5167790000000  0.4689880000000 1.0
C      1  0.4928470000000  0.5782370000000  0.4670620000000 1.0
C      1  0.5705590000000  0.5296140000000  0.4701880000000 1.0
C      1  0.5543600000000  0.4365540000000  0.4725890000000 1.0
C      1  0.4587930000000  0.4303700000000  0.4721910000000 1.0
C      1  0.4473320000000  0.4891550000000  0.4314140000000 1.0
C      1  0.4860000000000  0.5449980000000  0.4218850000000 1.0
C      1  0.5295140000000  0.5297490000000  0.4323420000000 1.0
C      1  0.5504970000000  0.4713850000000  0.4314860000000 1.0
C      1  0.4881080000000  0.4487060000000  0.4263900000000 1.0
C      1  0.4636200000000  0.4802130000000  0.5766270000000 1.0
C      1  0.4789270000000  0.5430570000000  0.5650710000000 1.0
C      1  0.5402250000000  0.5396050000000  0.5699460000000 1.0
C      1  0.5444910000000  0.4725440000000  0.5695710000000 1.0
C      1  0.5063970000000  0.4559470000000  0.5757930000000 1.0
C      1  0.5500180000000  0.5634620000000  0.5566530000000 1.0
C      1  0.5717960000000  0.4719030000000  0.5581820000000 1.0
C      1  0.4957820000000  0.4305470000000  0.5607970000000 1.0
C      1  0.4264790000000  0.4822210000000  0.5544120000000 1.0
C      1  0.4539460000000  0.5693020000000  0.5496780000000 1.0
C      1  0.5517210000000  0.5605810000000  0.4475240000000 1.0
C      1  0.5760700000000  0.4711360000000  0.4456120000000 1.0
C      1  0.4925400000000  0.4157360000000  0.4498250000000 1.0
C      1  0.4252380000000  0.4757530000000  0.4445420000000 1.0
C      1  0.4590030000000  0.5660470000000  0.4441480000000 1.0
C      1  0.4234080000000  0.4677750000000  0.4730450000000 1.0
C      1  0.4450610000000  0.5668710000000  0.4684000000000 1.0
C      1  0.5455300000000  0.5722290000000  0.4726820000000 1.0
C      1  0.5805790000000  0.4794670000000  0.4735390000000 1.0
C      1  0.5046640000000  0.4115140000000  0.4750650000000 1.0
C      1  0.4212320000000  0.4721530000000  0.5294180000000 1.0
C      1  0.4422760000000  0.5699180000000  0.5237790000000 1.0
C      1  0.5440350000000  0.5702650000000  0.5289560000000 1.0
C      1  0.5803250000000  0.4780420000000  0.5309530000000 1.0
C      1  0.5028850000000  0.4200300000000  0.5340930000000 1.0
C      1  0.4667050000000  0.4722250000000  0.5248680000000 1.0
C      1  0.4582100000000  0.5210360000000  0.5278660000000 1.0
C      1  0.5097450000000  0.5376250000000  0.5280540000000 1.0
C      1  0.5416640000000  0.4986720000000  0.5253560000000 1.0
C      1  0.5119730000000  0.4610770000000  0.5243670000000 1.0
C      1  0.4706690000000  0.4792800000000  0.4688990000000 1.0
C      1  0.4638580000000  0.5258160000000  0.4711950000000 1.0
C      1  0.5114660000000  0.5395060000000  0.4766310000000 1.0
C      1  0.5345770000000  0.4982370000000  0.4681010000000 1.0
C      1  0.5133850000000  0.4559560000000  0.4728010000000 1.0
C      1  0.4577820000000  0.5001250000000  0.4825050000000 1.0
C      1  0.4855310000000  0.5318770000000  0.4911770000000 1.0
C      1  0.5302800000000  0.5213680000000  0.4853090000000 1.0
C      1  0.5309400000000  0.4754150000000  0.4845420000000 1.0
C      1  0.4878180000000  0.4615210000000  0.4844810000000 1.0
C      1  0.4636310000000  0.4977000000000  0.5110620000000 1.0
C      1  0.4808510000000  0.5369300000000  0.5200210000000 1.0
C      1  0.5297550000000  0.5222030000000  0.5130480000000 1.0
C      1  0.5314080000000  0.4768170000000  0.5116190000000 1.0
C      1  0.4877620000000  0.4611420000000  0.5117510000000 1.0
C      1  0.5722280000000  0.4540290000000  0.4875750000000 1.0
C      1  0.4783360000000  0.4147860000000  0.4887070000000 1.0
C      1  0.4152860000000  0.4937350000000  0.4860840000000 1.0
C      1  0.4682580000000  0.5800960000000  0.4825420000000 1.0
C      1  0.5655320000000  0.5544780000000  0.4860490000000 1.0
C      1  0.5723100000000  0.4537610000000  0.5167990000000 1.0
C      1  0.4780630000000  0.4150710000000  0.5180810000000 1.0
C      1  0.4159990000000  0.4970640000000  0.5152840000000 1.0
C      1  0.4678580000000  0.5815350000000  0.5120320000000 1.0
C      1  0.5650110000000  0.5545510000000  0.5153120000000 1.0
C      1  0.4859470000000  0.4663270000000  0.5935850000000 1.0
C      1  0.5112380000000  0.5382990000000  0.4087200000000 1.0
C      1  0.4941220000000  0.5033770000000  0.5011010000000 1.0
END
