TITL C-2441154-10-370 0.0502220270385463 125000 -14715.1257248216 0 0 105 (C1) n - 1
REM
REM in /home/bkarasulu/work/CARBON/AIRSS/Generating-Clusters/ReaxFF-fromJPCA2015/Units_Real/with-SteepDescent/Higher-Symm
REM
REM
REM
REM
REM
REM ./C.cell (1df0a924f5614ab8850e4351716899ee)
REM
REM compiler GCC version 9.2.1 20190827 (Red Hat 9.2.1-1)
REM options -cpp -mtune=generic -march=x86-64 -g -O0 -fpre-include=/usr/include/finclude/math-vector-fortran.h
REM seed -883946526 -177605187 -379520525 -1316741123 1097183506 848310692 1996024782 -218445877 -890543699 -1473206991 -1984914337 -755362935 1966215804 -238926002 -1580674499 689820360 -844481947 -1482490078 1173185000 968763532 -1602163406 -1431711409 -589904613 -622841973 -1534153709 -1294717560 2012754688 -201714991 -1505776977 -2143046866 -1809839205 1782335745 1554224853
REM
CELL 1.54180   50.00000   50.00000   50.00000   90.00000   90.00000   90.00000
LATT -1
SFAC C  
C      1  0.5010780000000  0.5523870000000  0.5314690000000 1.0
C      1  0.4699090000000  0.5565230000000  0.4846020000000 1.0
C      1  0.5268040000000  0.5520010000000  0.4831570000000 1.0
C      1  0.5004800000000  0.5542370000000  0.4676490000000 1.0
C      1  0.4706620000000  0.5539120000000  0.5133890000000 1.0
C      1  0.5275680000000  0.5532750000000  0.5172080000000 1.0
C      1  0.4445710000000  0.5326310000000  0.4314910000000 1.0
C      1  0.5866460000000  0.5337010000000  0.4861370000000 1.0
C      1  0.4685340000000  0.5338040000000  0.5821190000000 1.0
C      1  0.4448940000000  0.5337130000000  0.5676490000000 1.0
C      1  0.5867300000000  0.5337420000000  0.5136970000000 1.0
C      1  0.4686910000000  0.5331360000000  0.4181930000000 1.0
C      1  0.5235900000000  0.5310970000000  0.4305560000000 1.0
C      1  0.5490370000000  0.5309550000000  0.5555110000000 1.0
C      1  0.4291790000000  0.5309470000000  0.5146640000000 1.0
C      1  0.5233100000000  0.5313220000000  0.5695470000000 1.0
C      1  0.5489800000000  0.5315690000000  0.4449670000000 1.0
C      1  0.4276330000000  0.5295980000000  0.4856550000000 1.0
C      1  0.5115500000000  0.4792950000000  0.4126120000000 1.0
C      1  0.5722970000000  0.4797100000000  0.5536160000000 1.0
C      1  0.4217080000000  0.4787840000000  0.5337040000000 1.0
C      1  0.5109490000000  0.4794620000000  0.5864920000000 1.0
C      1  0.5722150000000  0.4802650000000  0.4455660000000 1.0
C      1  0.4216860000000  0.4773000000000  0.4659430000000 1.0
C      1  0.4749880000000  0.4398200000000  0.5130060000000 1.0
C      1  0.4955430000000  0.4530940000000  0.4720050000000 1.0
C      1  0.5218080000000  0.4524880000000  0.5150290000000 1.0
C      1  0.4746670000000  0.4406040000000  0.4876330000000 1.0
C      1  0.4960630000000  0.4507570000000  0.5285250000000 1.0
C      1  0.5217770000000  0.4537130000000  0.4855440000000 1.0
C      1  0.4281350000000  0.4595700000000  0.4865450000000 1.0
C      1  0.5545980000000  0.4619950000000  0.4322780000000 1.0
C      1  0.5299270000000  0.4596780000000  0.5791460000000 1.0
C      1  0.4271890000000  0.4603900000000  0.5136420000000 1.0
C      1  0.5558260000000  0.4612230000000  0.5678080000000 1.0
C      1  0.5273210000000  0.4583620000000  0.4228350000000 1.0
C      1  0.5382160000000  0.4752990000000  0.5263680000000 1.0
C      1  0.4632710000000  0.4881370000000  0.5242330000000 1.0
C      1  0.4861540000000  0.4816880000000  0.4639960000000 1.0
C      1  0.5380210000000  0.4766450000000  0.4743640000000 1.0
C      1  0.4628410000000  0.4903640000000  0.4782450000000 1.0
C      1  0.4864970000000  0.4798790000000  0.5403860000000 1.0
C      1  0.5053220000000  0.5536090000000  0.5606590000000 1.0
C      1  0.4430070000000  0.5513020000000  0.4730480000000 1.0
C      1  0.5501060000000  0.5538570000000  0.4650820000000 1.0
C      1  0.5046680000000  0.5523600000000  0.4384490000000 1.0
C      1  0.4455960000000  0.5540280000000  0.5251510000000 1.0
C      1  0.5512120000000  0.5521280000000  0.5352730000000 1.0
C      1  0.4803320000000  0.4389050000000  0.4299850000000 1.0
C      1  0.5644490000000  0.4373220000000  0.5128810000000 1.0
C      1  0.4528060000000  0.4380820000000  0.5552780000000 1.0
C      1  0.4782390000000  0.4401810000000  0.5694820000000 1.0
C      1  0.5643760000000  0.4376560000000  0.4840260000000 1.0
C      1  0.4548050000000  0.4372940000000  0.4449310000000 1.0
C      1  0.5372940000000  0.4268270000000  0.5130810000000 1.0
C      1  0.4663830000000  0.4221420000000  0.5341540000000 1.0
C      1  0.4946820000000  0.4285920000000  0.4526590000000 1.0
C      1  0.5368610000000  0.4277740000000  0.4838920000000 1.0
C      1  0.4691220000000  0.4223610000000  0.4661400000000 1.0
C      1  0.4921670000000  0.4271330000000  0.5477600000000 1.0
C      1  0.5852780000000  0.5099850000000  0.5292650000000 1.0
C      1  0.4320960000000  0.5101220000000  0.5589790000000 1.0
C      1  0.4829330000000  0.5099240000000  0.4128890000000 1.0
C      1  0.5853260000000  0.5100730000000  0.4705020000000 1.0
C      1  0.4324260000000  0.5085310000000  0.4411600000000 1.0
C      1  0.4827330000000  0.5105250000000  0.5883450000000 1.0
C      1  0.4770490000000  0.5571180000000  0.4308030000000 1.0
C      1  0.5713060000000  0.5577420000000  0.5151380000000 1.0
C      1  0.4518630000000  0.5572970000000  0.5534780000000 1.0
C      1  0.4774460000000  0.5578900000000  0.5689630000000 1.0
C      1  0.5712220000000  0.5579090000000  0.4849910000000 1.0
C      1  0.4507740000000  0.5567230000000  0.4455680000000 1.0
C      1  0.4874710000000  0.4642120000000  0.4155130000000 1.0
C      1  0.5708110000000  0.4658930000000  0.5262760000000 1.0
C      1  0.4362370000000  0.4631910000000  0.5539420000000 1.0
C      1  0.4863940000000  0.4690180000000  0.5740640000000 1.0
C      1  0.5710080000000  0.4665280000000  0.4725560000000 1.0
C      1  0.4374660000000  0.4617240000000  0.4462610000000 1.0
C      1  0.4436810000000  0.4843220000000  0.4298080000000 1.0
C      1  0.5881080000000  0.4859540000000  0.4858280000000 1.0
C      1  0.4674290000000  0.4868110000000  0.5849240000000 1.0
C      1  0.4421800000000  0.4857240000000  0.5711240000000 1.0
C      1  0.5880090000000  0.4858830000000  0.5137730000000 1.0
C      1  0.4684440000000  0.4854280000000  0.4153050000000 1.0
C      1  0.5685240000000  0.5094000000000  0.4469480000000 1.0
C      1  0.5111530000000  0.5087980000000  0.5844660000000 1.0
C      1  0.4215250000000  0.5067670000000  0.4674040000000 1.0
C      1  0.5687080000000  0.5086830000000  0.5528160000000 1.0
C      1  0.5112170000000  0.5083490000000  0.4160330000000 1.0
C      1  0.4221690000000  0.5085890000000  0.5322560000000 1.0
C      1  0.5259930000000  0.5005510000000  0.5149330000000 1.0
C      1  0.4768080000000  0.5116050000000  0.5151930000000 1.0
C      1  0.5007530000000  0.5058270000000  0.4723120000000 1.0
C      1  0.5259770000000  0.5014980000000  0.4864770000000 1.0
C      1  0.4760750000000  0.5147340000000  0.4864390000000 1.0
C      1  0.5011480000000  0.5043300000000  0.5296530000000 1.0
C      1  0.5007700000000  0.5845640000000  0.4723030000000 1.0
C      1  0.5241480000000  0.5838430000000  0.5142930000000 1.0
C      1  0.4734610000000  0.5829310000000  0.5161800000000 1.0
C      1  0.4997950000000  0.5828980000000  0.5302530000000 1.0
C      1  0.5269770000000  0.5830630000000  0.4852660000000 1.0
C      1  0.4764960000000  0.5862080000000  0.4873270000000 1.0
C      1  0.5325710000000  0.4711200000000  0.5537460000000 1.0
C      1  0.5323810000000  0.4722820000000  0.4467660000000 1.0
C      1  0.4526970000000  0.4731270000000  0.5003630000000 1.0
END
