TITL C-2441166-8118-224 0.00436309664552701 125000 -5168.93144909472 0 0 38 (C1) n - 1
REM
REM in /home/bkarasulu/work/CARBON/AIRSS/Generating-Clusters/ReaxFF-fromJPCA2015/Units_Real/with-SteepDescent/Higher-Symm
REM
REM
REM
REM
REM
REM ./C.cell (1df0a924f5614ab8850e4351716899ee)
REM
REM compiler GCC version 9.2.1 20190827 (Red Hat 9.2.1-1)
REM options -cpp -mtune=generic -march=x86-64 -g -O0 -fpre-include=/usr/include/finclude/math-vector-fortran.h
REM seed 1680022117 1014110448 1646302313 -800181603 1318242433 535979371 1396170273 -2141535285 1344312193 -1271998851 -296287739 613567173 -67593684 384243052 -391677121 -1821340233 2064536370 1308774275 2120635313 1276256462 -654320692 -1847735516 4334030 535653811 -60413772 573465047 698793633 1780696761 1815480723 1697679706 1701969061 1611449063 -1059389266
REM
CELL 1.54180   50.00000   50.00000   50.00000   90.00000   90.00000   90.00000
LATT -1
SFAC C  
C      1  0.5024930000000  0.4999930000000  0.5782660000000 1.0
C      1  0.4910820000000  0.5359270000000  0.5494930000000 1.0
C      1  0.5376440000000  0.5208860000000  0.4591250000000 1.0
C      1  0.4777710000000  0.5458920000000  0.4999500000000 1.0
C      1  0.5414690000000  0.5408730000000  0.4810400000000 1.0
C      1  0.5109040000000  0.4536650000000  0.4491850000000 1.0
C      1  0.4678840000000  0.5217510000000  0.5463920000000 1.0
C      1  0.4708440000000  0.4577270000000  0.4536910000000 1.0
C      1  0.4882870000000  0.5281480000000  0.4455740000000 1.0
C      1  0.4884690000000  0.4724920000000  0.4400590000000 1.0
C      1  0.4681530000000  0.4560940000000  0.5246020000000 1.0
C      1  0.4781300000000  0.5015420000000  0.4403160000000 1.0
C      1  0.4544580000000  0.4964200000000  0.4572180000000 1.0
C      1  0.4983690000000  0.5018470000000  0.4844630000000 1.0
C      1  0.5129920000000  0.5605250000000  0.5125220000000 1.0
C      1  0.4681960000000  0.4508000000000  0.5551370000000 1.0
C      1  0.5353500000000  0.5510190000000  0.5200970000000 1.0
C      1  0.4910040000000  0.5341700000000  0.4772730000000 1.0
C      1  0.5112880000000  0.4446570000000  0.5006850000000 1.0
C      1  0.4720890000000  0.5028760000000  0.5247080000000 1.0
C      1  0.5153410000000  0.5546930000000  0.4856120000000 1.0
C      1  0.5516560000000  0.5339520000000  0.5074990000000 1.0
C      1  0.5635440000000  0.4839110000000  0.5087820000000 1.0
C      1  0.4578560000000  0.4807840000000  0.5125320000000 1.0
C      1  0.5222340000000  0.5020720000000  0.5314720000000 1.0
C      1  0.4954480000000  0.4450870000000  0.5228460000000 1.0
C      1  0.5163780000000  0.4474590000000  0.4764560000000 1.0
C      1  0.5338020000000  0.4741340000000  0.4504790000000 1.0
C      1  0.4876550000000  0.5521470000000  0.5262390000000 1.0
C      1  0.4998470000000  0.4996880000000  0.5136360000000 1.0
C      1  0.5152620000000  0.5233620000000  0.4421200000000 1.0
C      1  0.4739280000000  0.5071500000000  0.5729590000000 1.0
C      1  0.5508600000000  0.5042210000000  0.5192690000000 1.0
C      1  0.4970270000000  0.4430600000000  0.5541790000000 1.0
C      1  0.4492850000000  0.4692570000000  0.4661140000000 1.0
C      1  0.5127530000000  0.5165930000000  0.5548630000000 1.0
C      1  0.5250760000000  0.4956630000000  0.4703670000000 1.0
C      1  0.4651730000000  0.4894620000000  0.4847820000000 1.0
END
