TITL C-2441154-10-850 0.094751079394441 125000 -24510.6911123507 0 0 183 (C1) n - 1
REM
REM in /home/bkarasulu/work/CARBON/AIRSS/Generating-Clusters/ReaxFF-fromJPCA2015/Units_Real/with-SteepDescent/Higher-Symm
REM
REM
REM
REM
REM
REM ./C.cell (1df0a924f5614ab8850e4351716899ee)
REM
REM compiler GCC version 9.2.1 20190827 (Red Hat 9.2.1-1)
REM options -cpp -mtune=generic -march=x86-64 -g -O0 -fpre-include=/usr/include/finclude/math-vector-fortran.h
REM seed 1531029724 796404317 1891331576 144460885 370427954 -392968279 733620410 -2022807322 771462342 -411093344 406354925 -1359702372 1294613593 -670569214 -1306198117 -382935099 -1181397872 -1073252603 -1741315003 36526718 -1591946335 1196236135 -554794445 904666830 815077521 220714006 -1431976076 -2037011640 -897048740 -1319259700 -613769281 -279739017 -2102272806
REM
CELL 1.54180   50.00000   50.00000   50.00000   90.00000   90.00000   90.00000
LATT -1
SFAC C  
C      1  0.4907400000000  0.5568430000000  0.4453220000000 1.0
C      1  0.4861190000000  0.5262480000000  0.5892210000000 1.0
C      1  0.4910240000000  0.4225710000000  0.4758420000000 1.0
C      1  0.5180840000000  0.4316410000000  0.4328010000000 1.0
C      1  0.5138980000000  0.4705790000000  0.5905620000000 1.0
C      1  0.5143810000000  0.5992260000000  0.4793600000000 1.0
C      1  0.4486190000000  0.4651580000000  0.5787090000000 1.0
C      1  0.4426590000000  0.4461180000000  0.4314190000000 1.0
C      1  0.4389260000000  0.5962930000000  0.4901960000000 1.0
C      1  0.5609410000000  0.5385190000000  0.5814480000000 1.0
C      1  0.5596760000000  0.5527190000000  0.4289460000000 1.0
C      1  0.5572700000000  0.4102220000000  0.4930020000000 1.0
C      1  0.5760190000000  0.5599520000000  0.4518560000000 1.0
C      1  0.5753480000000  0.5132890000000  0.5771050000000 1.0
C      1  0.5751170000000  0.4226980000000  0.4721900000000 1.0
C      1  0.4220780000000  0.4369210000000  0.4495800000000 1.0
C      1  0.4269240000000  0.4841480000000  0.5778810000000 1.0
C      1  0.4266250000000  0.5761390000000  0.4719670000000 1.0
C      1  0.5626200000000  0.4624420000000  0.5453930000000 1.0
C      1  0.5630310000000  0.4765070000000  0.4485050000000 1.0
C      1  0.5668600000000  0.5646280000000  0.5107850000000 1.0
C      1  0.4275530000000  0.5447580000000  0.5594470000000 1.0
C      1  0.4270350000000  0.5238510000000  0.4310000000000 1.0
C      1  0.4262950000000  0.4319700000000  0.5093070000000 1.0
C      1  0.4755630000000  0.4389280000000  0.4073990000000 1.0
C      1  0.4671820000000  0.6051560000000  0.4966090000000 1.0
C      1  0.4787630000000  0.4408790000000  0.5931520000000 1.0
C      1  0.5244910000000  0.5612630000000  0.4027740000000 1.0
C      1  0.5327190000000  0.3918150000000  0.4952540000000 1.0
C      1  0.5232740000000  0.5616920000000  0.5979180000000 1.0
C      1  0.5010040000000  0.5728840000000  0.4926970000000 1.0
C      1  0.4982920000000  0.4740500000000  0.5638370000000 1.0
C      1  0.4920060000000  0.4636670000000  0.4421970000000 1.0
C      1  0.4720820000000  0.4358640000000  0.4955020000000 1.0
C      1  0.4915480000000  0.5273980000000  0.5590970000000 1.0
C      1  0.4678730000000  0.5362300000000  0.4498940000000 1.0
C      1  0.4450110000000  0.5473350000000  0.4301560000000 1.0
C      1  0.4416370000000  0.5335450000000  0.5812870000000 1.0
C      1  0.4466870000000  0.4185210000000  0.4909960000000 1.0
C      1  0.5569790000000  0.4529990000000  0.4321100000000 1.0
C      1  0.5557980000000  0.4645810000000  0.5760110000000 1.0
C      1  0.5574650000000  0.5849850000000  0.4927540000000 1.0
C      1  0.4884220000000  0.6116910000000  0.4771380000000 1.0
C      1  0.4922870000000  0.4616750000000  0.6079600000000 1.0
C      1  0.4946960000000  0.4210490000000  0.4163900000000 1.0
C      1  0.5093430000000  0.3971530000000  0.4787860000000 1.0
C      1  0.5077650000000  0.5364070000000  0.6058040000000 1.0
C      1  0.5068850000000  0.5717200000000  0.4221120000000 1.0
C      1  0.5226720000000  0.5349900000000  0.5163680000000 1.0
C      1  0.5134440000000  0.4656530000000  0.5195890000000 1.0
C      1  0.5171770000000  0.5033340000000  0.4666810000000 1.0
C      1  0.4861390000000  0.4759650000000  0.5232750000000 1.0
C      1  0.4739670000000  0.5385940000000  0.5112980000000 1.0
C      1  0.4920710000000  0.4898420000000  0.4592330000000 1.0
C      1  0.4067940000000  0.4603650000000  0.4559110000000 1.0
C      1  0.4097440000000  0.5589210000000  0.4884980000000 1.0
C      1  0.4081980000000  0.4778700000000  0.5569380000000 1.0
C      1  0.5916320000000  0.5365880000000  0.4610600000000 1.0
C      1  0.5934010000000  0.4380230000000  0.4882750000000 1.0
C      1  0.5928700000000  0.5125100000000  0.5533140000000 1.0
C      1  0.5825020000000  0.4901080000000  0.4902040000000 1.0
C      1  0.5826890000000  0.5230290000000  0.4872090000000 1.0
C      1  0.5871960000000  0.4953640000000  0.5308540000000 1.0
C      1  0.4178030000000  0.5112540000000  0.4824100000000 1.0
C      1  0.4242320000000  0.4829810000000  0.4915860000000 1.0
C      1  0.4195100000000  0.5089720000000  0.5231640000000 1.0
C      1  0.4677820000000  0.5710940000000  0.5426150000000 1.0
C      1  0.4695430000000  0.4399810000000  0.5282600000000 1.0
C      1  0.4718890000000  0.4995580000000  0.4230900000000 1.0
C      1  0.5172870000000  0.4394030000000  0.5331130000000 1.0
C      1  0.5219660000000  0.5587660000000  0.5343740000000 1.0
C      1  0.5313880000000  0.4996310000000  0.4254620000000 1.0
C      1  0.4013320000000  0.4625560000000  0.5321930000000 1.0
C      1  0.4001410000000  0.4874100000000  0.4492810000000 1.0
C      1  0.4022310000000  0.5453140000000  0.5137720000000 1.0
C      1  0.5979050000000  0.5375600000000  0.5366250000000 1.0
C      1  0.5959900000000  0.5103380000000  0.4480380000000 1.0
C      1  0.6001260000000  0.4484310000000  0.5157360000000 1.0
C      1  0.4763720000000  0.5139030000000  0.4947210000000 1.0
C      1  0.4820220000000  0.5021200000000  0.5222300000000 1.0
C      1  0.4866990000000  0.4785240000000  0.4825450000000 1.0
C      1  0.5104570000000  0.4681500000000  0.4916030000000 1.0
C      1  0.5097580000000  0.5105480000000  0.5217180000000 1.0
C      1  0.5033120000000  0.5208080000000  0.4837450000000 1.0
C      1  0.5160550000000  0.5247430000000  0.4191290000000 1.0
C      1  0.5108140000000  0.5485320000000  0.5620920000000 1.0
C      1  0.5083290000000  0.4108380000000  0.5269360000000 1.0
C      1  0.4885410000000  0.4762690000000  0.4149090000000 1.0
C      1  0.4967800000000  0.4452170000000  0.5528390000000 1.0
C      1  0.5057600000000  0.5787540000000  0.5207080000000 1.0
C      1  0.4114890000000  0.5314090000000  0.5380170000000 1.0
C      1  0.4140060000000  0.4583590000000  0.5061040000000 1.0
C      1  0.4106650000000  0.5141030000000  0.4531960000000 1.0
C      1  0.5910830000000  0.4673100000000  0.5357170000000 1.0
C      1  0.5869800000000  0.5433020000000  0.5099800000000 1.0
C      1  0.5873160000000  0.4843470000000  0.4628570000000 1.0
C      1  0.5348530000000  0.5778350000000  0.5764710000000 1.0
C      1  0.5345880000000  0.3970550000000  0.5243980000000 1.0
C      1  0.5363120000000  0.5355910000000  0.3991040000000 1.0
C      1  0.4658380000000  0.4238040000000  0.5744630000000 1.0
C      1  0.4627950000000  0.5949860000000  0.5242410000000 1.0
C      1  0.4628280000000  0.4631820000000  0.4014770000000 1.0
C      1  0.4706780000000  0.5794380000000  0.4467300000000 1.0
C      1  0.4683920000000  0.5066150000000  0.6011140000000 1.0
C      1  0.4683550000000  0.4101200000000  0.4566730000000 1.0
C      1  0.5371120000000  0.4113020000000  0.4403780000000 1.0
C      1  0.5319860000000  0.4911790000000  0.6008210000000 1.0
C      1  0.5333230000000  0.5947670000000  0.4577150000000 1.0
C      1  0.5480430000000  0.5259920000000  0.5097260000000 1.0
C      1  0.5455730000000  0.4774920000000  0.5238040000000 1.0
C      1  0.5425890000000  0.4985790000000  0.4528610000000 1.0
C      1  0.4602820000000  0.4671600000000  0.5231530000000 1.0
C      1  0.4726310000000  0.5405990000000  0.5392320000000 1.0
C      1  0.4675500000000  0.5050070000000  0.4511650000000 1.0
C      1  0.4573800000000  0.5462290000000  0.4756220000000 1.0
C      1  0.4610320000000  0.5033060000000  0.5478180000000 1.0
C      1  0.4647060000000  0.4610560000000  0.4767970000000 1.0
C      1  0.5359130000000  0.4610590000000  0.4794960000000 1.0
C      1  0.5383870000000  0.5088430000000  0.5548320000000 1.0
C      1  0.5362990000000  0.5430640000000  0.4670570000000 1.0
C      1  0.4878890000000  0.4007310000000  0.4373640000000 1.0
C      1  0.4860920000000  0.6045730000000  0.4484910000000 1.0
C      1  0.4879170000000  0.4909900000000  0.6161860000000 1.0
C      1  0.5123820000000  0.5967070000000  0.4368390000000 1.0
C      1  0.5137950000000  0.3946440000000  0.4504600000000 1.0
C      1  0.5121820000000  0.5082990000000  0.6153940000000 1.0
C      1  0.5608350000000  0.4270970000000  0.4472490000000 1.0
C      1  0.5591950000000  0.5816620000000  0.4642300000000 1.0
C      1  0.5588470000000  0.4908020000000  0.5881970000000 1.0
C      1  0.4424250000000  0.5727710000000  0.4475460000000 1.0
C      1  0.4406490000000  0.4169720000000  0.4607600000000 1.0
C      1  0.4413110000000  0.5064750000000  0.5901320000000 1.0
C      1  0.5097270000000  0.4041280000000  0.5568580000000 1.0
C      1  0.5115610000000  0.4923130000000  0.3858010000000 1.0
C      1  0.5180410000000  0.5963320000000  0.5597180000000 1.0
C      1  0.4903440000000  0.5895920000000  0.5594020000000 1.0
C      1  0.4945590000000  0.5113080000000  0.3768800000000 1.0
C      1  0.4807180000000  0.4020520000000  0.5583510000000 1.0
C      1  0.5364840000000  0.4330000000000  0.4856110000000 1.0
C      1  0.5341120000000  0.5449940000000  0.4390480000000 1.0
C      1  0.5345360000000  0.5319140000000  0.5706860000000 1.0
C      1  0.4735790000000  0.5608560000000  0.4936270000000 1.0
C      1  0.4657740000000  0.4520160000000  0.4480220000000 1.0
C      1  0.4692050000000  0.4822390000000  0.5661520000000 1.0
C      1  0.4400250000000  0.5288660000000  0.4907780000000 1.0
C      1  0.4400130000000  0.4915790000000  0.5316660000000 1.0
C      1  0.4447500000000  0.4823370000000  0.4710360000000 1.0
C      1  0.5610020000000  0.4707220000000  0.4988530000000 1.0
C      1  0.5554620000000  0.5050660000000  0.5297380000000 1.0
C      1  0.5525720000000  0.5243990000000  0.4821790000000 1.0
C      1  0.4270920000000  0.4788240000000  0.4469460000000 1.0
C      1  0.4281260000000  0.5549370000000  0.5096870000000 1.0
C      1  0.4194490000000  0.4524380000000  0.5521460000000 1.0
C      1  0.5806460000000  0.5168100000000  0.4264800000000 1.0
C      1  0.5751730000000  0.4421500000000  0.5084670000000 1.0
C      1  0.5819940000000  0.5568720000000  0.5494060000000 1.0
C      1  0.5653500000000  0.5314800000000  0.4087800000000 1.0
C      1  0.5636050000000  0.5660590000000  0.5688580000000 1.0
C      1  0.5586200000000  0.4140520000000  0.5264650000000 1.0
C      1  0.4385530000000  0.4702050000000  0.4156400000000 1.0
C      1  0.4404050000000  0.4382870000000  0.5684550000000 1.0
C      1  0.4368730000000  0.5852940000000  0.5167630000000 1.0
C      1  0.5134500000000  0.4293720000000  0.5728450000000 1.0
C      1  0.5122150000000  0.4664940000000  0.3968590000000 1.0
C      1  0.5178940000000  0.6028780000000  0.5306830000000 1.0
C      1  0.4878660000000  0.5674280000000  0.5774110000000 1.0
C      1  0.4889180000000  0.5278630000000  0.3979480000000 1.0
C      1  0.4786710000000  0.3955670000000  0.5303810000000 1.0
C      1  0.4437860000000  0.4230430000000  0.5316950000000 1.0
C      1  0.4461020000000  0.5097180000000  0.4118650000000 1.0
C      1  0.4446120000000  0.5682440000000  0.5595630000000 1.0
C      1  0.5496940000000  0.5747380000000  0.5317490000000 1.0
C      1  0.5456620000000  0.4851150000000  0.4053320000000 1.0
C      1  0.5479990000000  0.4348770000000  0.5452890000000 1.0
C      1  0.5405170000000  0.4577080000000  0.4073440000000 1.0
C      1  0.5441880000000  0.5983220000000  0.5159860000000 1.0
C      1  0.5411930000000  0.4391470000000  0.5750240000000 1.0
C      1  0.4608250000000  0.5338880000000  0.4041870000000 1.0
C      1  0.4539000000000  0.4000590000000  0.5167810000000 1.0
C      1  0.4598320000000  0.5587820000000  0.5815740000000 1.0
C      1  0.5108350000000  0.5022950000000  0.5493240000000 1.0
C      1  0.5083810000000  0.5477050000000  0.4730910000000 1.0
C      1  0.5084820000000  0.4430790000000  0.4574220000000 1.0
END
