TITL C-2441159-1093-1377 0.0865914296166668 125000 -20107.2092217675 0 0 150 (C1) n - 1
REM
REM in /home/bkarasulu/work/CARBON/AIRSS/Generating-Clusters/ReaxFF-fromJPCA2015/Units_Real/with-SteepDescent/Higher-Symm
REM
REM
REM
REM
REM
REM ./C.cell (1df0a924f5614ab8850e4351716899ee)
REM
REM compiler GCC version 9.2.1 20190827 (Red Hat 9.2.1-1)
REM options -cpp -mtune=generic -march=x86-64 -g -O0 -fpre-include=/usr/include/finclude/math-vector-fortran.h
REM seed -927226181 -463534634 -1772999926 -1240619193 -816280441 -564658394 999978451 -257226810 -1606459743 26032865 902328063 1887473904 -519182063 -828622392 -500823064 342340250 -1422030097 -226505605 1768344061 1008798157 -1053979319 802794914 -883058115 -1090052184 -2127255696 -386045498 1035616858 -1780165119 -308218916 591632016 -1678039720 -1665557766 432111065
REM
CELL 1.54180   50.00000   50.00000   50.00000   90.00000   90.00000   90.00000
LATT -1
SFAC C  
C      1  0.4955090000000  0.4376810000000  0.5153190000000 1.0
C      1  0.4409810000000  0.5869570000000  0.5177630000000 1.0
C      1  0.5861650000000  0.5355910000000  0.5309180000000 1.0
C      1  0.4912530000000  0.4759730000000  0.4879180000000 1.0
C      1  0.5768880000000  0.5069670000000  0.4433220000000 1.0
C      1  0.5662590000000  0.5093280000000  0.4148020000000 1.0
C      1  0.5144070000000  0.4612630000000  0.5975390000000 1.0
C      1  0.5189430000000  0.5231000000000  0.4080040000000 1.0
C      1  0.4655520000000  0.6039810000000  0.5105880000000 1.0
C      1  0.5011540000000  0.5382010000000  0.5317350000000 1.0
C      1  0.4580760000000  0.4679430000000  0.5871450000000 1.0
C      1  0.5816920000000  0.4652790000000  0.5125270000000 1.0
C      1  0.4878540000000  0.5883690000000  0.4413350000000 1.0
C      1  0.5523290000000  0.4618680000000  0.5137650000000 1.0
C      1  0.5361950000000  0.5753720000000  0.4382490000000 1.0
C      1  0.4613210000000  0.5193520000000  0.5911780000000 1.0
C      1  0.4820480000000  0.5071520000000  0.4606370000000 1.0
C      1  0.4349330000000  0.4830670000000  0.5776290000000 1.0
C      1  0.4123050000000  0.5235820000000  0.4886330000000 1.0
C      1  0.4550460000000  0.4382440000000  0.4264900000000 1.0
C      1  0.4894270000000  0.5490320000000  0.5019750000000 1.0
C      1  0.5219780000000  0.4938820000000  0.5265840000000 1.0
C      1  0.5760590000000  0.5563390000000  0.4870900000000 1.0
C      1  0.4713770000000  0.5360680000000  0.4832430000000 1.0
C      1  0.5438330000000  0.5373600000000  0.5057890000000 1.0
C      1  0.4583040000000  0.4499310000000  0.5408220000000 1.0
C      1  0.5190600000000  0.4041400000000  0.4849360000000 1.0
C      1  0.4730320000000  0.4048690000000  0.5063690000000 1.0
C      1  0.5305820000000  0.4266190000000  0.5558030000000 1.0
C      1  0.4854250000000  0.5928360000000  0.5287340000000 1.0
C      1  0.4995410000000  0.4616440000000  0.5747610000000 1.0
C      1  0.4335030000000  0.5704500000000  0.5405920000000 1.0
C      1  0.4756380000000  0.5671320000000  0.5213070000000 1.0
C      1  0.5764750000000  0.4781270000000  0.4468640000000 1.0
C      1  0.4791420000000  0.4221510000000  0.5606560000000 1.0
C      1  0.4221820000000  0.5763280000000  0.4738680000000 1.0
C      1  0.4811680000000  0.4130250000000  0.4571160000000 1.0
C      1  0.5230270000000  0.4483530000000  0.4754260000000 1.0
C      1  0.4110970000000  0.5532130000000  0.4881180000000 1.0
C      1  0.4888780000000  0.5049670000000  0.4320070000000 1.0
C      1  0.5212180000000  0.4102750000000  0.5338770000000 1.0
C      1  0.5711140000000  0.4973020000000  0.5656280000000 1.0
C      1  0.4980710000000  0.5871680000000  0.4682360000000 1.0
C      1  0.5556750000000  0.5403830000000  0.5738230000000 1.0
C      1  0.5910580000000  0.4554310000000  0.4856470000000 1.0
C      1  0.4547640000000  0.5290500000000  0.4154850000000 1.0
C      1  0.4831770000000  0.4570160000000  0.5291740000000 1.0
C      1  0.4432130000000  0.5125510000000  0.5675840000000 1.0
C      1  0.5890360000000  0.4878000000000  0.5453220000000 1.0
C      1  0.5929740000000  0.4798270000000  0.4705450000000 1.0
C      1  0.5278450000000  0.4590510000000  0.4243450000000 1.0
C      1  0.5477320000000  0.5631710000000  0.5528890000000 1.0
C      1  0.5004170000000  0.5018300000000  0.5822120000000 1.0
C      1  0.5979970000000  0.5092960000000  0.4821820000000 1.0
C      1  0.5081430000000  0.5283540000000  0.5752210000000 1.0
C      1  0.4372110000000  0.4277290000000  0.4736970000000 1.0
C      1  0.5026690000000  0.5475320000000  0.4260530000000 1.0
C      1  0.5380660000000  0.4677870000000  0.4899870000000 1.0
C      1  0.5102800000000  0.5762620000000  0.4260850000000 1.0
C      1  0.4306450000000  0.5444600000000  0.4522120000000 1.0
C      1  0.4782330000000  0.4540650000000  0.4139520000000 1.0
C      1  0.5567900000000  0.4347300000000  0.4562080000000 1.0
C      1  0.4735830000000  0.5502290000000  0.4231110000000 1.0
C      1  0.5449190000000  0.5642410000000  0.4903010000000 1.0
C      1  0.4892870000000  0.6040040000000  0.4897690000000 1.0
C      1  0.5933890000000  0.4597120000000  0.5407730000000 1.0
C      1  0.4243090000000  0.5376170000000  0.5486510000000 1.0
C      1  0.5040080000000  0.4348930000000  0.5649420000000 1.0
C      1  0.5272190000000  0.4999330000000  0.4570900000000 1.0
C      1  0.5277710000000  0.4998300000000  0.5963970000000 1.0
C      1  0.4475430000000  0.4187070000000  0.5017860000000 1.0
C      1  0.4908670000000  0.4802410000000  0.4624040000000 1.0
C      1  0.5363740000000  0.5854300000000  0.5100710000000 1.0
C      1  0.4618420000000  0.4622530000000  0.4351940000000 1.0
C      1  0.5015510000000  0.5641090000000  0.5536700000000 1.0
C      1  0.5543480000000  0.5112660000000  0.4975040000000 1.0
C      1  0.5094670000000  0.5157380000000  0.4744320000000 1.0
C      1  0.4145080000000  0.5231210000000  0.4421550000000 1.0
C      1  0.4116960000000  0.5054490000000  0.4646850000000 1.0
C      1  0.4806380000000  0.4892500000000  0.4053240000000 1.0
C      1  0.5087080000000  0.5980410000000  0.5114240000000 1.0
C      1  0.4381450000000  0.5332810000000  0.5245260000000 1.0
C      1  0.5262200000000  0.4786210000000  0.4005750000000 1.0
C      1  0.5787040000000  0.4373220000000  0.5528680000000 1.0
C      1  0.5062410000000  0.4992400000000  0.3940650000000 1.0
C      1  0.5221970000000  0.5814350000000  0.5619710000000 1.0
C      1  0.4082270000000  0.4964820000000  0.5340410000000 1.0
C      1  0.4369900000000  0.5714900000000  0.4501570000000 1.0
C      1  0.5244660000000  0.5707220000000  0.4659950000000 1.0
C      1  0.5160550000000  0.5038140000000  0.4328650000000 1.0
C      1  0.5416750000000  0.5393430000000  0.5336570000000 1.0
C      1  0.5739600000000  0.4331500000000  0.4794230000000 1.0
C      1  0.4619110000000  0.4422030000000  0.5710590000000 1.0
C      1  0.4172440000000  0.4495540000000  0.5345070000000 1.0
C      1  0.5529440000000  0.5526100000000  0.4301550000000 1.0
C      1  0.4782650000000  0.5203950000000  0.5291360000000 1.0
C      1  0.5448850000000  0.5376560000000  0.4537940000000 1.0
C      1  0.5683340000000  0.4248740000000  0.5298730000000 1.0
C      1  0.5639220000000  0.4172160000000  0.5041140000000 1.0
C      1  0.4440940000000  0.4838870000000  0.4328770000000 1.0
C      1  0.4910380000000  0.4866710000000  0.5597290000000 1.0
C      1  0.4171600000000  0.4649560000000  0.4948500000000 1.0
C      1  0.4160450000000  0.4464630000000  0.4742050000000 1.0
C      1  0.5408290000000  0.4748130000000  0.5355840000000 1.0
C      1  0.5478730000000  0.5316840000000  0.4100360000000 1.0
C      1  0.5276650000000  0.4217050000000  0.4618300000000 1.0
C      1  0.4415100000000  0.5269120000000  0.4389230000000 1.0
C      1  0.4446420000000  0.5207650000000  0.4992070000000 1.0
C      1  0.5526300000000  0.4856580000000  0.4071780000000 1.0
C      1  0.5993420000000  0.5174200000000  0.5111920000000 1.0
C      1  0.4810020000000  0.4961550000000  0.5106660000000 1.0
C      1  0.3994980000000  0.4802490000000  0.5134780000000 1.0
C      1  0.4375930000000  0.4308160000000  0.5256420000000 1.0
C      1  0.5038490000000  0.4434860000000  0.4248030000000 1.0
C      1  0.4540860000000  0.5010220000000  0.4113200000000 1.0
C      1  0.4002390000000  0.5226300000000  0.5384840000000 1.0
C      1  0.5168130000000  0.5418130000000  0.4574360000000 1.0
C      1  0.4630690000000  0.5732000000000  0.4372760000000 1.0
C      1  0.4904180000000  0.4022860000000  0.4831260000000 1.0
C      1  0.5544630000000  0.4577320000000  0.4389530000000 1.0
C      1  0.4336740000000  0.5684590000000  0.4971930000000 1.0
C      1  0.3935020000000  0.5096360000000  0.5123820000000 1.0
C      1  0.5291410000000  0.4760260000000  0.6112460000000 1.0
C      1  0.4986490000000  0.4487520000000  0.4893090000000 1.0
C      1  0.5293140000000  0.4950920000000  0.4975460000000 1.0
C      1  0.5040470000000  0.4232630000000  0.4437500000000 1.0
C      1  0.4442770000000  0.4739440000000  0.4845380000000 1.0
C      1  0.4544720000000  0.4218930000000  0.4504240000000 1.0
C      1  0.4720080000000  0.4926510000000  0.5952220000000 1.0
C      1  0.5783420000000  0.5594840000000  0.5165380000000 1.0
C      1  0.5575030000000  0.5770280000000  0.5279380000000 1.0
C      1  0.5534560000000  0.5118190000000  0.4632610000000 1.0
C      1  0.5523440000000  0.4458200000000  0.5639930000000 1.0
C      1  0.4181620000000  0.4665370000000  0.5606720000000 1.0
C      1  0.5353940000000  0.4069730000000  0.5087270000000 1.0
C      1  0.4374770000000  0.4698470000000  0.5392080000000 1.0
C      1  0.5222950000000  0.5208100000000  0.5420160000000 1.0
C      1  0.4763340000000  0.5624490000000  0.5695290000000 1.0
C      1  0.4954850000000  0.4815830000000  0.5318160000000 1.0
C      1  0.5740370000000  0.5259200000000  0.5574630000000 1.0
C      1  0.4663830000000  0.5058060000000  0.5508260000000 1.0
C      1  0.4905290000000  0.4116650000000  0.5311830000000 1.0
C      1  0.4337250000000  0.4875190000000  0.4601400000000 1.0
C      1  0.4604390000000  0.5618080000000  0.5447250000000 1.0
C      1  0.5346700000000  0.5277550000000  0.5891580000000 1.0
C      1  0.5505810000000  0.4754890000000  0.5628010000000 1.0
C      1  0.4820690000000  0.5393870000000  0.5854230000000 1.0
C      1  0.4542200000000  0.4928010000000  0.5037860000000 1.0
C      1  0.5864800000000  0.5326800000000  0.4747130000000 1.0
C      1  0.5797510000000  0.4965000000000  0.5172940000000 1.0
END
