TITL C-2441158-471-89 0.00585587339230233 125000 -14639.683957266 0 0 96 (C1) n - 1
REM
REM in /home/bkarasulu/work/CARBON/AIRSS/Generating-Clusters/ReaxFF-fromJPCA2015/Units_Real/with-SteepDescent/Higher-Symm
REM
REM
REM
REM
REM
REM ./C.cell (1df0a924f5614ab8850e4351716899ee)
REM
REM compiler GCC version 9.2.1 20190827 (Red Hat 9.2.1-1)
REM options -cpp -mtune=generic -march=x86-64 -g -O0 -fpre-include=/usr/include/finclude/math-vector-fortran.h
REM seed -1713944872 642786388 1910434985 536986088 749638359 810794397 1567191976 -1751113120 1926974763 -248866980 1301750773 -190346185 227890601 461701483 1435716629 2013924868 -628916573 -539666448 702837239 -617342702 1828586969 2074368480 -1673346282 331912748 1290623182 2023844536 1416129808 1633788191 -659370448 -2133479590 509221934 -1042261115 897729539
REM
CELL 1.54180   50.00000   50.00000   50.00000   90.00000   90.00000   90.00000
LATT -1
SFAC C  
C      1  0.4604540000000  0.4975260000000  0.5794490000000 1.0
C      1  0.4984050000000  0.5792870000000  0.4608690000000 1.0
C      1  0.5788050000000  0.4610430000000  0.4983560000000 1.0
C      1  0.4617190000000  0.5026150000000  0.4224160000000 1.0
C      1  0.5387750000000  0.4971230000000  0.4208810000000 1.0
C      1  0.5373270000000  0.5012520000000  0.5773750000000 1.0
C      1  0.4966300000000  0.4194560000000  0.5407090000000 1.0
C      1  0.5022750000000  0.5778470000000  0.5377610000000 1.0
C      1  0.5029210000000  0.4238430000000  0.4647930000000 1.0
C      1  0.5778780000000  0.5379240000000  0.5018370000000 1.0
C      1  0.4215150000000  0.4608490000000  0.5032070000000 1.0
C      1  0.4209810000000  0.5377550000000  0.4978370000000 1.0
C      1  0.5392950000000  0.4398660000000  0.5241220000000 1.0
C      1  0.4368080000000  0.5226830000000  0.5434640000000 1.0
C      1  0.5233390000000  0.5427150000000  0.4369630000000 1.0
C      1  0.5432720000000  0.5630690000000  0.4762500000000 1.0
C      1  0.4554130000000  0.4349030000000  0.4768870000000 1.0
C      1  0.4564720000000  0.5627860000000  0.5224720000000 1.0
C      1  0.4376090000000  0.4763240000000  0.4578490000000 1.0
C      1  0.5645450000000  0.5236160000000  0.4551220000000 1.0
C      1  0.5619710000000  0.4764220000000  0.5426230000000 1.0
C      1  0.5236980000000  0.4540460000000  0.5659370000000 1.0
C      1  0.4764030000000  0.5423630000000  0.5620590000000 1.0
C      1  0.4770390000000  0.4567700000000  0.4376370000000 1.0
C      1  0.4681750000000  0.5622470000000  0.4938340000000 1.0
C      1  0.5643510000000  0.4948970000000  0.4668720000000 1.0
C      1  0.4959200000000  0.4659680000000  0.5623760000000 1.0
C      1  0.4659130000000  0.4317430000000  0.5054920000000 1.0
C      1  0.5299740000000  0.5606890000000  0.5018030000000 1.0
C      1  0.5179500000000  0.4497760000000  0.5065680000000 1.0
C      1  0.5595910000000  0.5018430000000  0.5289130000000 1.0
C      1  0.4383280000000  0.4943170000000  0.5320450000000 1.0
C      1  0.4401410000000  0.5018940000000  0.4710590000000 1.0
C      1  0.4978450000000  0.5293140000000  0.4400980000000 1.0
C      1  0.5056180000000  0.4685000000000  0.4364240000000 1.0
C      1  0.5013750000000  0.5281470000000  0.5587970000000 1.0
C      1  0.4561740000000  0.4765010000000  0.4345990000000 1.0
C      1  0.4766110000000  0.4350400000000  0.4566920000000 1.0
C      1  0.4341260000000  0.4540080000000  0.4769020000000 1.0
C      1  0.4539840000000  0.5237010000000  0.5663220000000 1.0
C      1  0.5439680000000  0.4751760000000  0.5662240000000 1.0
C      1  0.5456730000000  0.5233720000000  0.4336560000000 1.0
C      1  0.4762660000000  0.5655160000000  0.5433450000000 1.0
C      1  0.5231030000000  0.4319150000000  0.5474780000000 1.0
C      1  0.5239830000000  0.5663530000000  0.4543650000000 1.0
C      1  0.4344550000000  0.5440600000000  0.5234470000000 1.0
C      1  0.5648970000000  0.4543670000000  0.5234590000000 1.0
C      1  0.5661540000000  0.5440740000000  0.4757520000000 1.0
C      1  0.4710090000000  0.4503330000000  0.5697520000000 1.0
C      1  0.4501080000000  0.5682340000000  0.4688080000000 1.0
C      1  0.5705090000000  0.4699800000000  0.4492670000000 1.0
C      1  0.4620790000000  0.5537710000000  0.4304400000000 1.0
C      1  0.5298730000000  0.4499330000000  0.4305450000000 1.0
C      1  0.5368290000000  0.5523590000000  0.5702180000000 1.0
C      1  0.4494810000000  0.4294870000000  0.5308970000000 1.0
C      1  0.5534780000000  0.5706050000000  0.5375430000000 1.0
C      1  0.5532920000000  0.4335060000000  0.4611260000000 1.0
C      1  0.5705620000000  0.5367960000000  0.5529610000000 1.0
C      1  0.4314520000000  0.4704730000000  0.5496120000000 1.0
C      1  0.4292640000000  0.5376620000000  0.4474300000000 1.0
C      1  0.4877570000000  0.4890730000000  0.5820320000000 1.0
C      1  0.4916340000000  0.5827270000000  0.4881240000000 1.0
C      1  0.5831520000000  0.4881860000000  0.4913550000000 1.0
C      1  0.4894090000000  0.5104660000000  0.4187000000000 1.0
C      1  0.5113030000000  0.4915020000000  0.4161220000000 1.0
C      1  0.5095150000000  0.5087320000000  0.5798220000000 1.0
C      1  0.4906670000000  0.4145510000000  0.5131370000000 1.0
C      1  0.5104790000000  0.5815640000000  0.5101780000000 1.0
C      1  0.5090650000000  0.4241540000000  0.4931400000000 1.0
C      1  0.5809850000000  0.5102430000000  0.5100720000000 1.0
C      1  0.4180040000000  0.4884950000000  0.5093870000000 1.0
C      1  0.4185460000000  0.5100320000000  0.4898220000000 1.0
C      1  0.5331460000000  0.5105310000000  0.5208980000000 1.0
C      1  0.5099260000000  0.5218070000000  0.5317430000000 1.0
C      1  0.5223600000000  0.5338600000000  0.5096780000000 1.0
C      1  0.5350830000000  0.4915670000000  0.4759000000000 1.0
C      1  0.4669470000000  0.5105920000000  0.4791070000000 1.0
C      1  0.4698340000000  0.4862950000000  0.5214420000000 1.0
C      1  0.5123700000000  0.4809550000000  0.4644660000000 1.0
C      1  0.4899150000000  0.5220750000000  0.4673130000000 1.0
C      1  0.4946120000000  0.4738170000000  0.5292020000000 1.0
C      1  0.5235050000000  0.4693220000000  0.4863040000000 1.0
C      1  0.4779350000000  0.5339280000000  0.4888410000000 1.0
C      1  0.4779450000000  0.4630680000000  0.5086850000000 1.0
C      1  0.4495340000000  0.4705450000000  0.5724340000000 1.0
C      1  0.4702430000000  0.5736840000000  0.4482220000000 1.0
C      1  0.5747800000000  0.4491380000000  0.4697610000000 1.0
C      1  0.4468230000000  0.5294800000000  0.4261860000000 1.0
C      1  0.5505210000000  0.4702620000000  0.4284870000000 1.0
C      1  0.5522940000000  0.5283010000000  0.5735880000000 1.0
C      1  0.4699310000000  0.4277030000000  0.5516380000000 1.0
C      1  0.5290070000000  0.5738940000000  0.5526890000000 1.0
C      1  0.5284480000000  0.4271310000000  0.4489990000000 1.0
C      1  0.5742280000000  0.5525110000000  0.5289190000000 1.0
C      1  0.4284060000000  0.4491400000000  0.5300260000000 1.0
C      1  0.4256310000000  0.5520300000000  0.4715800000000 1.0
END
