TITL C-2441158-471-256 0.00371011451031707 125000 -11406.4787903797 0 0 77 (C1) n - 1
REM
REM in /home/bkarasulu/work/CARBON/AIRSS/Generating-Clusters/ReaxFF-fromJPCA2015/Units_Real/with-SteepDescent/Higher-Symm
REM
REM
REM
REM
REM
REM ./C.cell (1df0a924f5614ab8850e4351716899ee)
REM
REM compiler GCC version 9.2.1 20190827 (Red Hat 9.2.1-1)
REM options -cpp -mtune=generic -march=x86-64 -g -O0 -fpre-include=/usr/include/finclude/math-vector-fortran.h
REM seed 1901510232 1608996391 -908451602 -1515164127 1427656090 -61585392 1586899361 966892014 241144388 -899181245 232611453 1903689318 1015302931 -274918168 -1374456705 952088357 766253587 779574209 -495205739 227311000 -140749463 -717223521 -1145555225 721384515 1166251115 -1864272880 411484328 787024547 747290381 -1908162733 -781666746 379747653 1317105505
REM
CELL 1.54180   50.00000   50.00000   50.00000   90.00000   90.00000   90.00000
LATT -1
SFAC C  
C      1  0.5068780000000  0.5683090000000  0.5498770000000 1.0
C      1  0.5071390000000  0.4275210000000  0.5308870000000 1.0
C      1  0.5073290000000  0.5078330000000  0.4142120000000 1.0
C      1  0.5659750000000  0.4868070000000  0.4667060000000 1.0
C      1  0.5669750000000  0.5352730000000  0.5064950000000 1.0
C      1  0.5753330000000  0.4760630000000  0.5324380000000 1.0
C      1  0.5442230000000  0.5561800000000  0.5418290000000 1.0
C      1  0.5452140000000  0.4358220000000  0.5124340000000 1.0
C      1  0.5442780000000  0.5081310000000  0.4307300000000 1.0
C      1  0.5445140000000  0.5344080000000  0.4628260000000 1.0
C      1  0.5446270000000  0.5133390000000  0.5465750000000 1.0
C      1  0.5350310000000  0.4546600000000  0.4910360000000 1.0
C      1  0.5001540000000  0.5679000000000  0.4839870000000 1.0
C      1  0.5067430000000  0.4692280000000  0.5690370000000 1.0
C      1  0.5019950000000  0.4509200000000  0.4451630000000 1.0
C      1  0.5313860000000  0.4380280000000  0.5400150000000 1.0
C      1  0.5270120000000  0.4881340000000  0.4211790000000 1.0
C      1  0.5253180000000  0.5717990000000  0.5284840000000 1.0
C      1  0.4945500000000  0.4801430000000  0.5040560000000 1.0
C      1  0.5027290000000  0.5097990000000  0.4670500000000 1.0
C      1  0.5061950000000  0.5300650000000  0.5150480000000 1.0
C      1  0.5010270000000  0.3990550000000  0.4546170000000 1.0
C      1  0.5002700000000  0.5956910000000  0.4397020000000 1.0
C      1  0.5005130000000  0.5097510000000  0.6041030000000 1.0
C      1  0.4681040000000  0.5116860000000  0.4294570000000 1.0
C      1  0.4679410000000  0.5532850000000  0.5439620000000 1.0
C      1  0.4565440000000  0.4320050000000  0.5264890000000 1.0
C      1  0.4442410000000  0.4295060000000  0.4860330000000 1.0
C      1  0.4430550000000  0.5460150000000  0.4486470000000 1.0
C      1  0.4462160000000  0.5157410000000  0.5615420000000 1.0
C      1  0.5172550000000  0.5312650000000  0.4560290000000 1.0
C      1  0.5159790000000  0.5192760000000  0.5423720000000 1.0
C      1  0.5073880000000  0.4567380000000  0.4937980000000 1.0
C      1  0.5017420000000  0.5245910000000  0.5666990000000 1.0
C      1  0.4950530000000  0.4325060000000  0.4915170000000 1.0
C      1  0.5023040000000  0.5472810000000  0.4398540000000 1.0
C      1  0.4574660000000  0.4309200000000  0.4619470000000 1.0
C      1  0.4582810000000  0.5661860000000  0.4598360000000 1.0
C      1  0.4583300000000  0.4935000000000  0.5723890000000 1.0
C      1  0.4339660000000  0.4408780000000  0.5096200000000 1.0
C      1  0.4419320000000  0.5183270000000  0.4435290000000 1.0
C      1  0.4425350000000  0.5367710000000  0.5432730000000 1.0
C      1  0.4904000000000  0.4254090000000  0.4617760000000 1.0
C      1  0.4909460000000  0.5694610000000  0.4555560000000 1.0
C      1  0.4908270000000  0.4969270000000  0.5809190000000 1.0
C      1  0.4890150000000  0.5518120000000  0.5647670000000 1.0
C      1  0.4831770000000  0.4222610000000  0.5164850000000 1.0
C      1  0.4897640000000  0.5298140000000  0.4196290000000 1.0
C      1  0.5619580000000  0.5122480000000  0.4517660000000 1.0
C      1  0.5621640000000  0.5357490000000  0.5357870000000 1.0
C      1  0.5653620000000  0.4533550000000  0.5193190000000 1.0
C      1  0.5915080000000  0.4924880000000  0.5139230000000 1.0
C      1  0.5867920000000  0.4925060000000  0.4861160000000 1.0
C      1  0.5872080000000  0.5164870000000  0.5005470000000 1.0
C      1  0.4433870000000  0.4884500000000  0.5230070000000 1.0
C      1  0.4446530000000  0.4801410000000  0.4808380000000 1.0
C      1  0.4397340000000  0.5301000000000  0.4928880000000 1.0
C      1  0.4483800000000  0.4752130000000  0.5526120000000 1.0
C      1  0.4537700000000  0.4590130000000  0.4583090000000 1.0
C      1  0.4517950000000  0.5581580000000  0.4866080000000 1.0
C      1  0.5221530000000  0.5571840000000  0.4996830000000 1.0
C      1  0.5317190000000  0.4647140000000  0.5551900000000 1.0
C      1  0.5264970000000  0.4650180000000  0.4434470000000 1.0
C      1  0.4377780000000  0.5199010000000  0.5198260000000 1.0
C      1  0.4287100000000  0.4697930000000  0.5044420000000 1.0
C      1  0.4385870000000  0.5107180000000  0.4716330000000 1.0
C      1  0.4818900000000  0.5468220000000  0.5194510000000 1.0
C      1  0.4597500000000  0.4478370000000  0.5514190000000 1.0
C      1  0.4831960000000  0.4967670000000  0.4492380000000 1.0
C      1  0.4770440000000  0.5639070000000  0.4985640000000 1.0
C      1  0.4850180000000  0.4562620000000  0.5602160000000 1.0
C      1  0.4785550000000  0.4677430000000  0.4455820000000 1.0
C      1  0.5453740000000  0.4661730000000  0.4657830000000 1.0
C      1  0.5468210000000  0.5451860000000  0.4892660000000 1.0
C      1  0.5513270000000  0.4850900000000  0.5486550000000 1.0
C      1  0.4663690000000  0.4859050000000  0.5022690000000 1.0
C      1  0.5042570000000  0.5062820000000  0.4955210000000 1.0
END
