TITL C-2441157-2117-1232 0.00714804171587148 125000 -12268.0891181504 0 0 84 (C1) n - 1
REM
REM in /home/bkarasulu/work/CARBON/AIRSS/Generating-Clusters/ReaxFF-fromJPCA2015/Units_Real/with-SteepDescent/Higher-Symm
REM
REM
REM
REM
REM
REM ./C.cell (1df0a924f5614ab8850e4351716899ee)
REM
REM compiler GCC version 9.2.1 20190827 (Red Hat 9.2.1-1)
REM options -cpp -mtune=generic -march=x86-64 -g -O0 -fpre-include=/usr/include/finclude/math-vector-fortran.h
REM seed 259639865 918941936 1399828701 -2063693300 -241687337 -1709518269 -124153227 -1081937253 -2108868465 -1438371626 -1186099593 -565818166 -1158285550 -778631250 -1182551749 -1459157502 902755511 -54499097 663277226 -871629368 387513633 -1814063737 -1021853418 -1599499057 -1054186793 1927934571 -1913451895 895945949 -782397756 -1928537841 -445771832 -251996241 2095102594
REM
CELL 1.54180   50.00000   50.00000   50.00000   90.00000   90.00000   90.00000
LATT -1
SFAC C  
C      1  0.5843110000000  0.5383840000000  0.5395370000000 1.0
C      1  0.4203420000000  0.5354520000000  0.4796390000000 1.0
C      1  0.4276620000000  0.5334760000000  0.5389310000000 1.0
C      1  0.5884290000000  0.5314010000000  0.4694980000000 1.0
C      1  0.4449800000000  0.4397760000000  0.5267470000000 1.0
C      1  0.5416790000000  0.4543240000000  0.4767340000000 1.0
C      1  0.5483320000000  0.4496930000000  0.5301400000000 1.0
C      1  0.4485270000000  0.4461540000000  0.4720930000000 1.0
C      1  0.5697320000000  0.5230480000000  0.4523350000000 1.0
C      1  0.4476890000000  0.5141860000000  0.5300270000000 1.0
C      1  0.4361220000000  0.5219170000000  0.4591690000000 1.0
C      1  0.5653380000000  0.5179500000000  0.5409250000000 1.0
C      1  0.5127840000000  0.5465380000000  0.4685290000000 1.0
C      1  0.4952370000000  0.5550900000000  0.5357480000000 1.0
C      1  0.4906240000000  0.5538170000000  0.4530380000000 1.0
C      1  0.5230980000000  0.5600270000000  0.5425270000000 1.0
C      1  0.4490760000000  0.4900460000000  0.5457020000000 1.0
C      1  0.5579220000000  0.4946790000000  0.4538570000000 1.0
C      1  0.5596220000000  0.4914190000000  0.5457210000000 1.0
C      1  0.4447530000000  0.4944410000000  0.4546240000000 1.0
C      1  0.5638220000000  0.4746500000000  0.4737030000000 1.0
C      1  0.4396760000000  0.4708880000000  0.5228400000000 1.0
C      1  0.4341200000000  0.4724020000000  0.4703790000000 1.0
C      1  0.5666780000000  0.4712620000000  0.5261750000000 1.0
C      1  0.4515510000000  0.5680020000000  0.4713890000000 1.0
C      1  0.5387020000000  0.5730950000000  0.5200820000000 1.0
C      1  0.5504530000000  0.5649380000000  0.4799770000000 1.0
C      1  0.4490310000000  0.5672910000000  0.5135650000000 1.0
C      1  0.5279270000000  0.4593190000000  0.5495770000000 1.0
C      1  0.4733230000000  0.4403400000000  0.4563670000000 1.0
C      1  0.4673160000000  0.4360670000000  0.5432250000000 1.0
C      1  0.5143240000000  0.4482870000000  0.4563560000000 1.0
C      1  0.5168520000000  0.5169720000000  0.4307560000000 1.0
C      1  0.4871370000000  0.5211080000000  0.5646400000000 1.0
C      1  0.4882830000000  0.5141990000000  0.4287720000000 1.0
C      1  0.5161330000000  0.5176850000000  0.5652250000000 1.0
C      1  0.5282300000000  0.5422820000000  0.4428780000000 1.0
C      1  0.4743050000000  0.5462030000000  0.5537440000000 1.0
C      1  0.4753090000000  0.5403870000000  0.4337540000000 1.0
C      1  0.5336420000000  0.5409720000000  0.5615840000000 1.0
C      1  0.4510480000000  0.5462860000000  0.4510640000000 1.0
C      1  0.5630530000000  0.5378860000000  0.5591140000000 1.0
C      1  0.5540800000000  0.5485770000000  0.4547940000000 1.0
C      1  0.4488360000000  0.5544000000000  0.5400800000000 1.0
C      1  0.5137050000000  0.4985600000000  0.4713360000000 1.0
C      1  0.4938090000000  0.4901140000000  0.5327280000000 1.0
C      1  0.4862120000000  0.5005970000000  0.4705700000000 1.0
C      1  0.5192070000000  0.5018920000000  0.5272170000000 1.0
C      1  0.4056020000000  0.5230480000000  0.5232240000000 1.0
C      1  0.6056120000000  0.5273110000000  0.4903190000000 1.0
C      1  0.6005070000000  0.5244790000000  0.5200880000000 1.0
C      1  0.4006490000000  0.5243610000000  0.4956330000000 1.0
C      1  0.4757320000000  0.4953040000000  0.5551650000000 1.0
C      1  0.5297590000000  0.4960020000000  0.4469640000000 1.0
C      1  0.5319180000000  0.4913650000000  0.5516650000000 1.0
C      1  0.4748290000000  0.4917560000000  0.4448330000000 1.0
C      1  0.4460660000000  0.4309100000000  0.4975990000000 1.0
C      1  0.5490170000000  0.4346620000000  0.5039730000000 1.0
C      1  0.5243810000000  0.5821200000000  0.4953300000000 1.0
C      1  0.4695540000000  0.5781780000000  0.4941070000000 1.0
C      1  0.5271180000000  0.5035830000000  0.4984240000000 1.0
C      1  0.4687830000000  0.5014080000000  0.4911440000000 1.0
C      1  0.4676100000000  0.5220160000000  0.5086400000000 1.0
C      1  0.5145590000000  0.5322440000000  0.4948180000000 1.0
C      1  0.4039550000000  0.4990730000000  0.5060660000000 1.0
C      1  0.5971260000000  0.5009220000000  0.5038380000000 1.0
C      1  0.4996000000000  0.4245130000000  0.4621700000000 1.0
C      1  0.4921590000000  0.4247030000000  0.5402640000000 1.0
C      1  0.5592260000000  0.5624330000000  0.5043010000000 1.0
C      1  0.4313030000000  0.5605670000000  0.4904520000000 1.0
C      1  0.5038430000000  0.4464950000000  0.5527440000000 1.0
C      1  0.4900550000000  0.4616610000000  0.4466940000000 1.0
C      1  0.5267510000000  0.4685250000000  0.4971430000000 1.0
C      1  0.4624230000000  0.4771270000000  0.5028230000000 1.0
C      1  0.5323650000000  0.4148410000000  0.4963180000000 1.0
C      1  0.4711840000000  0.4217990000000  0.4990390000000 1.0
C      1  0.4225490000000  0.4787230000000  0.4974020000000 1.0
C      1  0.5772420000000  0.4801720000000  0.4995430000000 1.0
C      1  0.4976640000000  0.5802160000000  0.4947200000000 1.0
C      1  0.4951840000000  0.4256060000000  0.5077250000000 1.0
C      1  0.4916760000000  0.5378650000000  0.5116130000000 1.0
C      1  0.5037230000000  0.4549040000000  0.5039380000000 1.0
C      1  0.5074170000000  0.4074330000000  0.4865940000000 1.0
C      1  0.4858210000000  0.4715880000000  0.5148010000000 1.0
END
