TITL C-2441156-4686-518 0.0589030348201926 125000 -12045.1316208899 0 0 95 (C1) n - 1
REM
REM in /home/bkarasulu/work/CARBON/AIRSS/Generating-Clusters/ReaxFF-fromJPCA2015/Units_Real/with-SteepDescent/Higher-Symm
REM
REM
REM
REM
REM
REM ./C.cell (1df0a924f5614ab8850e4351716899ee)
REM
REM compiler GCC version 9.2.1 20190827 (Red Hat 9.2.1-1)
REM options -cpp -mtune=generic -march=x86-64 -g -O0 -fpre-include=/usr/include/finclude/math-vector-fortran.h
REM seed -28305726 335929863 -758758087 1478788257 1913380200 411710735 -1715795041 -1705196860 -589312102 1151720801 1951883361 -1216235744 1441509900 1959538361 407991060 1817357188 134502600 273523240 -1169043003 -788608946 185280985 -1423093056 -1672297681 -352703755 288048578 2099281775 -816090452 32968996 -1868673 1085295017 1234274271 -314103260 1121830341
REM
CELL 1.54180   50.00000   50.00000   50.00000   90.00000   90.00000   90.00000
LATT -1
SFAC C  
C      1  0.4733700000000  0.4334370000000  0.5060890000000 1.0
C      1  0.4727740000000  0.4848530000000  0.5672370000000 1.0
C      1  0.4740250000000  0.5545390000000  0.5341340000000 1.0
C      1  0.4735030000000  0.5492480000000  0.4587200000000 1.0
C      1  0.4727790000000  0.4757330000000  0.4396170000000 1.0
C      1  0.5274090000000  0.4364140000000  0.5044870000000 1.0
C      1  0.5267510000000  0.4846580000000  0.5648310000000 1.0
C      1  0.5263540000000  0.5540160000000  0.5342140000000 1.0
C      1  0.5273700000000  0.5485660000000  0.4590460000000 1.0
C      1  0.5275680000000  0.4759540000000  0.4383180000000 1.0
C      1  0.5719350000000  0.4907130000000  0.4604810000000 1.0
C      1  0.5725970000000  0.4568860000000  0.4959190000000 1.0
C      1  0.5699310000000  0.4848110000000  0.5304400000000 1.0
C      1  0.5695330000000  0.5241440000000  0.5232530000000 1.0
C      1  0.5725350000000  0.5357410000000  0.4784640000000 1.0
C      1  0.4291550000000  0.4905190000000  0.4605560000000 1.0
C      1  0.4285650000000  0.4564720000000  0.4958110000000 1.0
C      1  0.4302270000000  0.4849760000000  0.5304250000000 1.0
C      1  0.4298310000000  0.5246720000000  0.5234750000000 1.0
C      1  0.4278890000000  0.5355410000000  0.4786540000000 1.0
C      1  0.4176280000000  0.4633060000000  0.5201750000000 1.0
C      1  0.4153180000000  0.5070830000000  0.5427520000000 1.0
C      1  0.4175480000000  0.5426330000000  0.5046400000000 1.0
C      1  0.4182350000000  0.5160910000000  0.4621830000000 1.0
C      1  0.4180930000000  0.4683640000000  0.4731640000000 1.0
C      1  0.5832250000000  0.4632010000000  0.5203790000000 1.0
C      1  0.5842150000000  0.5070610000000  0.5410710000000 1.0
C      1  0.5825290000000  0.5420250000000  0.5048670000000 1.0
C      1  0.5825560000000  0.5162600000000  0.4621210000000 1.0
C      1  0.5828140000000  0.4685960000000  0.4732530000000 1.0
C      1  0.4758910000000  0.5033070000000  0.5444940000000 1.0
C      1  0.4780770000000  0.5407360000000  0.5088770000000 1.0
C      1  0.4765140000000  0.5210450000000  0.4660990000000 1.0
C      1  0.4751190000000  0.4768380000000  0.4700490000000 1.0
C      1  0.4790830000000  0.4605720000000  0.5145290000000 1.0
C      1  0.5216100000000  0.5033650000000  0.5429130000000 1.0
C      1  0.5237330000000  0.5397480000000  0.5094830000000 1.0
C      1  0.5257930000000  0.5195040000000  0.4670670000000 1.0
C      1  0.5264770000000  0.4772870000000  0.4719990000000 1.0
C      1  0.5254840000000  0.4655470000000  0.5134440000000 1.0
C      1  0.5276300000000  0.4552110000000  0.5420060000000 1.0
C      1  0.5264800000000  0.5278670000000  0.5580040000000 1.0
C      1  0.5276080000000  0.5633950000000  0.4933070000000 1.0
C      1  0.5276280000000  0.5123060000000  0.4380350000000 1.0
C      1  0.5273800000000  0.4440520000000  0.4691430000000 1.0
C      1  0.4732620000000  0.4534230000000  0.5425490000000 1.0
C      1  0.4729460000000  0.5280950000000  0.5601300000000 1.0
C      1  0.4730950000000  0.5642190000000  0.4929500000000 1.0
C      1  0.4727440000000  0.5133660000000  0.4379660000000 1.0
C      1  0.4729590000000  0.4457290000000  0.4688670000000 1.0
C      1  0.5704130000000  0.5636590000000  0.5174910000000 1.0
C      1  0.5706080000000  0.5386680000000  0.4501690000000 1.0
C      1  0.5704840000000  0.4643010000000  0.4483410000000 1.0
C      1  0.5709680000000  0.4380390000000  0.5182430000000 1.0
C      1  0.5705730000000  0.5037190000000  0.5654200000000 1.0
C      1  0.4300070000000  0.5641970000000  0.5170710000000 1.0
C      1  0.4300790000000  0.5387580000000  0.4504720000000 1.0
C      1  0.4299760000000  0.4641550000000  0.4480430000000 1.0
C      1  0.4297670000000  0.4380830000000  0.5185950000000 1.0
C      1  0.4302960000000  0.5042510000000  0.5656010000000 1.0
C      1  0.5438700000000  0.4526670000000  0.4457640000000 1.0
C      1  0.5444770000000  0.4332090000000  0.5292050000000 1.0
C      1  0.5452680000000  0.5071610000000  0.5755910000000 1.0
C      1  0.5449640000000  0.5738710000000  0.5170800000000 1.0
C      1  0.5443930000000  0.5372740000000  0.4374820000000 1.0
C      1  0.4561590000000  0.4518040000000  0.4450250000000 1.0
C      1  0.4556370000000  0.4319610000000  0.5303230000000 1.0
C      1  0.4549550000000  0.5075630000000  0.5778350000000 1.0
C      1  0.4556390000000  0.5740680000000  0.5171620000000 1.0
C      1  0.4559410000000  0.5381070000000  0.4371730000000 1.0
C      1  0.5005540000000  0.5604610000000  0.4501050000000 1.0
C      1  0.5002300000000  0.5672330000000  0.5413380000000 1.0
C      1  0.5010000000000  0.4216280000000  0.5074560000000 1.0
C      1  0.4999850000000  0.4803850000000  0.5783500000000 1.0
C      1  0.5002480000000  0.4700990000000  0.4267110000000 1.0
C      1  0.5007270000000  0.4450550000000  0.5523710000000 1.0
C      1  0.4998950000000  0.4330750000000  0.4640700000000 1.0
C      1  0.5000340000000  0.5344210000000  0.5706950000000 1.0
C      1  0.5004300000000  0.5774630000000  0.4897150000000 1.0
C      1  0.5000230000000  0.5134180000000  0.4242010000000 1.0
C      1  0.5003910000000  0.5857820000000  0.4627220000000 1.0
C      1  0.5003270000000  0.4503790000000  0.5819330000000 1.0
C      1  0.4999010000000  0.5647210000000  0.5711550000000 1.0
C      1  0.4997950000000  0.4907180000000  0.4073110000000 1.0
C      1  0.4999750000000  0.4077880000000  0.4812360000000 1.0
C      1  0.5010100000000  0.5251000000000  0.5018380000000 1.0
C      1  0.5010360000000  0.5144650000000  0.4750990000000 1.0
C      1  0.5007740000000  0.4872970000000  0.4737470000000 1.0
C      1  0.4972490000000  0.5006900000000  0.5334800000000 1.0
C      1  0.5003440000000  0.4736780000000  0.5037330000000 1.0
C      1  0.5576110000000  0.5016770000000  0.5105540000000 1.0
C      1  0.4419400000000  0.5022530000000  0.5101050000000 1.0
C      1  0.5386680000000  0.4969020000000  0.4903420000000 1.0
C      1  0.4647200000000  0.4999550000000  0.4932670000000 1.0
C      1  0.4910710000000  0.4986160000000  0.5094450000000 1.0
END
