TITL C-2441161-5029-895 0.00708541978644449 125000 -6976.15222320171 0 0 50 (C1) n - 1
REM
REM in /home/bkarasulu/work/CARBON/AIRSS/Generating-Clusters/ReaxFF-fromJPCA2015/Units_Real/with-SteepDescent/Higher-Symm
REM
REM
REM
REM
REM
REM ./C.cell (1df0a924f5614ab8850e4351716899ee)
REM
REM compiler GCC version 9.2.1 20190827 (Red Hat 9.2.1-1)
REM options -cpp -mtune=generic -march=x86-64 -g -O0 -fpre-include=/usr/include/finclude/math-vector-fortran.h
REM seed -731136729 -1344190492 446347334 -1549236570 -1486393573 2006302774 1835728904 325601261 -1073023141 -1721399886 906845541 -1241752211 -187286107 -603865949 605280316 388242259 -736016663 -872561539 1525320787 -1562878874 -294876142 -200820744 -966052065 936559819 395204883 1339023219 1729692758 234273590 -1971640862 -213646115 -521807100 -212662281 1168505724
REM
CELL 1.54180   50.00000   50.00000   50.00000   90.00000   90.00000   90.00000
LATT -1
SFAC C  
C      1  0.4953630000000  0.5327200000000  0.5310080000000 1.0
C      1  0.5280330000000  0.5279430000000  0.4938990000000 1.0
C      1  0.4791350000000  0.5338880000000  0.4795780000000 1.0
C      1  0.4510010000000  0.4927870000000  0.5604340000000 1.0
C      1  0.5888360000000  0.5123640000000  0.5079180000000 1.0
C      1  0.4722040000000  0.4927800000000  0.4273300000000 1.0
C      1  0.5480310000000  0.4675380000000  0.5276110000000 1.0
C      1  0.4940600000000  0.4735520000000  0.4401810000000 1.0
C      1  0.4499730000000  0.4730590000000  0.5359260000000 1.0
C      1  0.5092520000000  0.5175370000000  0.4423850000000 1.0
C      1  0.4464100000000  0.5195130000000  0.5253610000000 1.0
C      1  0.5423820000000  0.5177840000000  0.5221060000000 1.0
C      1  0.5259800000000  0.5425280000000  0.4509420000000 1.0
C      1  0.4485910000000  0.5455220000000  0.5116410000000 1.0
C      1  0.5388980000000  0.5415690000000  0.5367970000000 1.0
C      1  0.5320950000000  0.4893880000000  0.5348350000000 1.0
C      1  0.5161740000000  0.4890920000000  0.4491010000000 1.0
C      1  0.4469630000000  0.4907690000000  0.5134970000000 1.0
C      1  0.4500070000000  0.5200080000000  0.5518340000000 1.0
C      1  0.5688830000000  0.5200960000000  0.5183210000000 1.0
C      1  0.4844900000000  0.5182470000000  0.4311600000000 1.0
C      1  0.5498210000000  0.4558280000000  0.4785400000000 1.0
C      1  0.4609190000000  0.4628250000000  0.4699080000000 1.0
C      1  0.4938160000000  0.4596710000000  0.5485870000000 1.0
C      1  0.4865060000000  0.5615150000000  0.4687270000000 1.0
C      1  0.4947790000000  0.5623470000000  0.5304950000000 1.0
C      1  0.5281140000000  0.5580510000000  0.4942610000000 1.0
C      1  0.4746130000000  0.4355910000000  0.5117520000000 1.0
C      1  0.5276750000000  0.4329360000000  0.5179210000000 1.0
C      1  0.5035240000000  0.4321030000000  0.4681860000000 1.0
C      1  0.5038250000000  0.4837300000000  0.5348880000000 1.0
C      1  0.5309960000000  0.4791970000000  0.4733620000000 1.0
C      1  0.4644120000000  0.4831260000000  0.4918150000000 1.0
C      1  0.5441170000000  0.5256050000000  0.4656790000000 1.0
C      1  0.4492950000000  0.5353010000000  0.4835490000000 1.0
C      1  0.5152040000000  0.5297720000000  0.5527500000000 1.0
C      1  0.5307800000000  0.4388370000000  0.4669700000000 1.0
C      1  0.4608540000000  0.4421110000000  0.4882180000000 1.0
C      1  0.5171570000000  0.4452620000000  0.5412810000000 1.0
C      1  0.5236910000000  0.5633410000000  0.5225570000000 1.0
C      1  0.5156540000000  0.5648860000000  0.4684380000000 1.0
C      1  0.4688330000000  0.5679110000000  0.5169370000000 1.0
C      1  0.5516420000000  0.4477290000000  0.5079180000000 1.0
C      1  0.4839290000000  0.4504330000000  0.4545770000000 1.0
C      1  0.4679750000000  0.4506360000000  0.5359120000000 1.0
C      1  0.5103690000000  0.4691850000000  0.4912920000000 1.0
C      1  0.4824850000000  0.5743300000000  0.4932540000000 1.0
C      1  0.5031610000000  0.4391490000000  0.4983150000000 1.0
C      1  0.4928530000000  0.4893520000000  0.5044290000000 1.0
C      1  0.4977600000000  0.5211170000000  0.5003670000000 1.0
END
