TITL C-2441166-8118-801 0.0413442522413934 125000 -8900.00481111667 0 0 71 (C1) n - 1
REM
REM in /home/bkarasulu/work/CARBON/AIRSS/Generating-Clusters/ReaxFF-fromJPCA2015/Units_Real/with-SteepDescent/Higher-Symm
REM
REM
REM
REM
REM
REM ./C.cell (1df0a924f5614ab8850e4351716899ee)
REM
REM compiler GCC version 9.2.1 20190827 (Red Hat 9.2.1-1)
REM options -cpp -mtune=generic -march=x86-64 -g -O0 -fpre-include=/usr/include/finclude/math-vector-fortran.h
REM seed 742319863 12429032 -720168688 1917189883 2140679863 -984505625 -1147387564 1736450634 -331430091 -157970669 1460772611 -577646360 -1141919749 -1976724545 -63318221 -1027789396 -1449664176 250286581 1114343268 -1747849381 -1689311559 -60554658 -1860792847 -1201398517 504356192 1299367920 1822674047 -888794551 910920560 -1087686779 -997604066 -1728245972 -618882107
REM
CELL 1.54180   50.00000   50.00000   50.00000   90.00000   90.00000   90.00000
LATT -1
SFAC C  
C      1  0.4575540000000  0.4586880000000  0.4669530000000 1.0
C      1  0.5427000000000  0.5601160000000  0.4695640000000 1.0
C      1  0.4700650000000  0.4865340000000  0.4938820000000 1.0
C      1  0.5462650000000  0.4405770000000  0.4841450000000 1.0
C      1  0.4414500000000  0.4723620000000  0.5355320000000 1.0
C      1  0.4338070000000  0.5127590000000  0.5422160000000 1.0
C      1  0.5247250000000  0.5430830000000  0.4871570000000 1.0
C      1  0.4940110000000  0.5505450000000  0.5662320000000 1.0
C      1  0.5279490000000  0.5477870000000  0.4461180000000 1.0
C      1  0.5224570000000  0.5298430000000  0.5344270000000 1.0
C      1  0.5519750000000  0.5317510000000  0.5296880000000 1.0
C      1  0.4247860000000  0.4971780000000  0.4879610000000 1.0
C      1  0.5360210000000  0.4871200000000  0.5563480000000 1.0
C      1  0.5400080000000  0.4526930000000  0.4579030000000 1.0
C      1  0.5098470000000  0.4171820000000  0.4903020000000 1.0
C      1  0.4494350000000  0.5014130000000  0.4409470000000 1.0
C      1  0.4791500000000  0.4485510000000  0.4831070000000 1.0
C      1  0.4797860000000  0.4942500000000  0.5451220000000 1.0
C      1  0.4634050000000  0.4714890000000  0.5551510000000 1.0
C      1  0.4619870000000  0.4226320000000  0.5154880000000 1.0
C      1  0.4829290000000  0.4324140000000  0.5343390000000 1.0
C      1  0.5002680000000  0.5233120000000  0.5759230000000 1.0
C      1  0.5013490000000  0.5104490000000  0.4950290000000 1.0
C      1  0.4959130000000  0.4849240000000  0.4830050000000 1.0
C      1  0.5230090000000  0.5247850000000  0.4623920000000 1.0
C      1  0.4264600000000  0.5189770000000  0.5088160000000 1.0
C      1  0.5765080000000  0.4958210000000  0.4823540000000 1.0
C      1  0.5577120000000  0.5034770000000  0.4448080000000 1.0
C      1  0.4871400000000  0.4551360000000  0.5150740000000 1.0
C      1  0.4618030000000  0.5397890000000  0.4676010000000 1.0
C      1  0.4829600000000  0.4114780000000  0.4991930000000 1.0
C      1  0.4519290000000  0.5278400000000  0.5587680000000 1.0
C      1  0.4866470000000  0.5810030000000  0.4458290000000 1.0
C      1  0.5855480000000  0.4913730000000  0.5316250000000 1.0
C      1  0.5738850000000  0.5185460000000  0.4640180000000 1.0
C      1  0.5862350000000  0.5072590000000  0.5079400000000 1.0
C      1  0.5207370000000  0.5138740000000  0.5108160000000 1.0
C      1  0.4654070000000  0.5362740000000  0.4970910000000 1.0
C      1  0.4946750000000  0.5515440000000  0.5363490000000 1.0
C      1  0.5467850000000  0.4768340000000  0.4434560000000 1.0
C      1  0.4746990000000  0.5115470000000  0.5683310000000 1.0
C      1  0.5133150000000  0.5669410000000  0.4962680000000 1.0
C      1  0.4916860000000  0.5716520000000  0.5130820000000 1.0
C      1  0.5110530000000  0.4594160000000  0.4603100000000 1.0
C      1  0.4417010000000  0.4690090000000  0.4902280000000 1.0
C      1  0.4407110000000  0.5461480000000  0.5032530000000 1.0
C      1  0.4943650000000  0.4760480000000  0.4406200000000 1.0
C      1  0.4785050000000  0.5068030000000  0.5125970000000 1.0
C      1  0.5380060000000  0.4949660000000  0.5133520000000 1.0
C      1  0.5203020000000  0.5110930000000  0.5588790000000 1.0
C      1  0.5653270000000  0.5428360000000  0.4787900000000 1.0
C      1  0.5024210000000  0.4684540000000  0.5388830000000 1.0
C      1  0.4703860000000  0.5229430000000  0.4441440000000 1.0
C      1  0.4329240000000  0.5020360000000  0.4633150000000 1.0
C      1  0.4490970000000  0.4530340000000  0.5145360000000 1.0
C      1  0.5682050000000  0.5335950000000  0.5064560000000 1.0
C      1  0.4995520000000  0.5543260000000  0.4411860000000 1.0
C      1  0.4416210000000  0.4990450000000  0.5238360000000 1.0
C      1  0.4839930000000  0.4512100000000  0.5566680000000 1.0
C      1  0.5331930000000  0.4969670000000  0.4626170000000 1.0
C      1  0.5550940000000  0.5023720000000  0.5369600000000 1.0
C      1  0.4643740000000  0.4745930000000  0.4435020000000 1.0
C      1  0.4686220000000  0.5510940000000  0.5532740000000 1.0
C      1  0.5488680000000  0.4558940000000  0.5099280000000 1.0
C      1  0.5271450000000  0.4364170000000  0.5054210000000 1.0
C      1  0.4642980000000  0.5638520000000  0.5042310000000 1.0
C      1  0.5504010000000  0.4833750000000  0.4898170000000 1.0
C      1  0.4915350000000  0.5039360000000  0.4429830000000 1.0
C      1  0.5320110000000  0.4651370000000  0.5380990000000 1.0
C      1  0.4821400000000  0.5595650000000  0.4669550000000 1.0
C      1  0.4991660000000  0.4340370000000  0.4688140000000 1.0
END
