TITL C-2441162-9305-612 0.0451998624468014 125000 -21969.1202083633 0 0 152 (C1) n - 1
REM
REM in /home/bkarasulu/work/CARBON/AIRSS/Generating-Clusters/ReaxFF-fromJPCA2015/Units_Real/with-SteepDescent/Higher-Symm
REM
REM
REM
REM
REM
REM ./C.cell (1df0a924f5614ab8850e4351716899ee)
REM
REM compiler GCC version 9.2.1 20190827 (Red Hat 9.2.1-1)
REM options -cpp -mtune=generic -march=x86-64 -g -O0 -fpre-include=/usr/include/finclude/math-vector-fortran.h
REM seed 1079071490 1002293713 1938416445 1418031237 -698030836 1352392685 -825119909 -533696322 954708193 454131267 -263674169 -1531958765 835815214 517804473 -1958598485 1496658502 -1547151136 -1649507582 -2081395754 1869595592 62843783 1912881340 -1455957139 948483167 -680041651 -575994270 -618784873 67029868 -471259501 -1817856214 521292770 -1512930308 -1020378348
REM
CELL 1.54180   50.00000   50.00000   50.00000   90.00000   90.00000   90.00000
LATT -1
SFAC C  
C      1  0.4338580000000  0.4436370000000  0.4485920000000 1.0
C      1  0.5323910000000  0.4238430000000  0.4475170000000 1.0
C      1  0.5821620000000  0.5087920000000  0.4488600000000 1.0
C      1  0.5150810000000  0.5832210000000  0.4469610000000 1.0
C      1  0.4267150000000  0.5402790000000  0.4480800000000 1.0
C      1  0.4756970000000  0.5119730000000  0.5902920000000 1.0
C      1  0.4822540000000  0.4846270000000  0.5941980000000 1.0
C      1  0.5098760000000  0.4791700000000  0.5912540000000 1.0
C      1  0.5224240000000  0.5048090000000  0.5924280000000 1.0
C      1  0.5018130000000  0.5245240000000  0.5927990000000 1.0
C      1  0.4822710000000  0.4618680000000  0.4107170000000 1.0
C      1  0.5504030000000  0.4651790000000  0.4136940000000 1.0
C      1  0.5510620000000  0.5187950000000  0.4055820000000 1.0
C      1  0.4844040000000  0.5545830000000  0.4094570000000 1.0
C      1  0.4398500000000  0.4989650000000  0.4105500000000 1.0
C      1  0.3956020000000  0.5065420000000  0.4773690000000 1.0
C      1  0.4621320000000  0.4056320000000  0.4748500000000 1.0
C      1  0.5783110000000  0.4347370000000  0.4763870000000 1.0
C      1  0.5865920000000  0.5575230000000  0.4739780000000 1.0
C      1  0.4722110000000  0.5991100000000  0.4758810000000 1.0
C      1  0.4866880000000  0.5214560000000  0.4406220000000 1.0
C      1  0.4700290000000  0.4970230000000  0.4430770000000 1.0
C      1  0.5140290000000  0.4768210000000  0.4433910000000 1.0
C      1  0.5311860000000  0.5002560000000  0.4422030000000 1.0
C      1  0.5162900000000  0.5252870000000  0.4394030000000 1.0
C      1  0.5763670000000  0.4231210000000  0.5032920000000 1.0
C      1  0.5937440000000  0.5527820000000  0.5017630000000 1.0
C      1  0.4807670000000  0.6058220000000  0.5034690000000 1.0
C      1  0.3926990000000  0.5169300000000  0.5047210000000 1.0
C      1  0.4519360000000  0.4038920000000  0.5029060000000 1.0
C      1  0.5051940000000  0.4046150000000  0.4920650000000 1.0
C      1  0.5916640000000  0.4769130000000  0.4952860000000 1.0
C      1  0.5484020000000  0.5805660000000  0.4922820000000 1.0
C      1  0.4407380000000  0.5710600000000  0.4932030000000 1.0
C      1  0.4108850000000  0.4636220000000  0.4952060000000 1.0
C      1  0.4223580000000  0.5296920000000  0.5733230000000 1.0
C      1  0.4439490000000  0.4339350000000  0.5696030000000 1.0
C      1  0.5465280000000  0.4277230000000  0.5727090000000 1.0
C      1  0.5826330000000  0.5175560000000  0.5713710000000 1.0
C      1  0.5032260000000  0.5835150000000  0.5698770000000 1.0
C      1  0.5336360000000  0.4460920000000  0.5037150000000 1.0
C      1  0.5602270000000  0.5159090000000  0.5050870000000 1.0
C      1  0.5026110000000  0.5609630000000  0.5000850000000 1.0
C      1  0.4428190000000  0.5205860000000  0.5018000000000 1.0
C      1  0.4612450000000  0.4515060000000  0.5069400000000 1.0
C      1  0.5030000000000  0.4222230000000  0.4466830000000 1.0
C      1  0.5781410000000  0.4794680000000  0.4509570000000 1.0
C      1  0.5436870000000  0.5713450000000  0.4475490000000 1.0
C      1  0.4450570000000  0.5639270000000  0.4478070000000 1.0
C      1  0.4201870000000  0.4710570000000  0.4500670000000 1.0
C      1  0.5238600000000  0.4973500000000  0.5431460000000 1.0
C      1  0.5085370000000  0.5205880000000  0.5434370000000 1.0
C      1  0.4826480000000  0.5148930000000  0.5323410000000 1.0
C      1  0.4802780000000  0.4857140000000  0.5383450000000 1.0
C      1  0.5073820000000  0.4750660000000  0.5350470000000 1.0
C      1  0.5378640000000  0.4365800000000  0.5301660000000 1.0
C      1  0.5657150000000  0.5311490000000  0.5293980000000 1.0
C      1  0.5075570000000  0.5661340000000  0.5277340000000 1.0
C      1  0.4318990000000  0.5247420000000  0.5287440000000 1.0
C      1  0.4667940000000  0.4606260000000  0.5338980000000 1.0
C      1  0.4917590000000  0.5593780000000  0.5541730000000 1.0
C      1  0.4385600000000  0.5096510000000  0.5558690000000 1.0
C      1  0.4717160000000  0.4455180000000  0.5629810000000 1.0
C      1  0.5425770000000  0.4547950000000  0.5560950000000 1.0
C      1  0.5577220000000  0.5315780000000  0.5585460000000 1.0
C      1  0.5229030000000  0.5268310000000  0.4100860000000 1.0
C      1  0.4819020000000  0.5254230000000  0.4115470000000 1.0
C      1  0.4616970000000  0.4820700000000  0.4189730000000 1.0
C      1  0.5046690000000  0.4796020000000  0.4143290000000 1.0
C      1  0.5435350000000  0.4929470000000  0.4169910000000 1.0
C      1  0.5304660000000  0.5574820000000  0.4914280000000 1.0
C      1  0.4555080000000  0.5454540000000  0.4929340000000 1.0
C      1  0.4398900000000  0.4691360000000  0.4956640000000 1.0
C      1  0.5090070000000  0.4337480000000  0.4942540000000 1.0
C      1  0.5647250000000  0.4875040000000  0.5002560000000 1.0
C      1  0.4188650000000  0.4920750000000  0.4296020000000 1.0
C      1  0.4838140000000  0.4363130000000  0.4278420000000 1.0
C      1  0.5531240000000  0.4640570000000  0.4432810000000 1.0
C      1  0.5516870000000  0.5480990000000  0.4346080000000 1.0
C      1  0.4693020000000  0.5650090000000  0.4318340000000 1.0
C      1  0.4022290000000  0.4781640000000  0.4710290000000 1.0
C      1  0.4903440000000  0.4051720000000  0.4664760000000 1.0
C      1  0.5899400000000  0.4614270000000  0.4701980000000 1.0
C      1  0.5647240000000  0.5762920000000  0.4682130000000 1.0
C      1  0.4477780000000  0.5845930000000  0.4682680000000 1.0
C      1  0.4827340000000  0.5435990000000  0.4904750000000 1.0
C      1  0.4497860000000  0.4952950000000  0.4898650000000 1.0
C      1  0.4867170000000  0.4505350000000  0.4925050000000 1.0
C      1  0.5427000000000  0.4711770000000  0.4933990000000 1.0
C      1  0.5398880000000  0.5300920000000  0.4889700000000 1.0
C      1  0.4306760000000  0.5568780000000  0.5313160000000 1.0
C      1  0.4183580000000  0.4449520000000  0.5324130000000 1.0
C      1  0.5208460000000  0.4118940000000  0.5306750000000 1.0
C      1  0.6035380000000  0.4886090000000  0.5340820000000 1.0
C      1  0.5278790000000  0.5883090000000  0.5314260000000 1.0
C      1  0.6081450000000  0.4983670000000  0.5064500000000 1.0
C      1  0.5335010000000  0.6020040000000  0.5055950000000 1.0
C      1  0.4158340000000  0.5648620000000  0.5079810000000 1.0
C      1  0.4096780000000  0.4362720000000  0.5060040000000 1.0
C      1  0.5292540000000  0.3970360000000  0.5070000000000 1.0
C      1  0.4740490000000  0.5960080000000  0.5304790000000 1.0
C      1  0.4049260000000  0.5058900000000  0.5306250000000 1.0
C      1  0.4629790000000  0.4124680000000  0.5286630000000 1.0
C      1  0.5764450000000  0.4368110000000  0.5307340000000 1.0
C      1  0.5740870000000  0.5582400000000  0.5241000000000 1.0
C      1  0.5677860000000  0.4196240000000  0.5551880000000 1.0
C      1  0.6055430000000  0.5112550000000  0.5544790000000 1.0
C      1  0.4976340000000  0.6001440000000  0.5471680000000 1.0
C      1  0.4001450000000  0.5225950000000  0.5562590000000 1.0
C      1  0.4401790000000  0.4255210000000  0.5424580000000 1.0
C      1  0.5674710000000  0.4706960000000  0.5596120000000 1.0
C      1  0.5498930000000  0.5615830000000  0.5635310000000 1.0
C      1  0.4621080000000  0.5636780000000  0.5632140000000 1.0
C      1  0.4267700000000  0.4805200000000  0.5621760000000 1.0
C      1  0.4935840000000  0.4246140000000  0.5636040000000 1.0
C      1  0.4797800000000  0.4933470000000  0.4867780000000 1.0
C      1  0.4976780000000  0.4747210000000  0.5015930000000 1.0
C      1  0.5203930000000  0.4853780000000  0.4910380000000 1.0
C      1  0.5175950000000  0.5125210000000  0.4906400000000 1.0
C      1  0.4902440000000  0.5185000000000  0.4991390000000 1.0
C      1  0.5554540000000  0.5755080000000  0.5394690000000 1.0
C      1  0.4518450000000  0.5756840000000  0.5397440000000 1.0
C      1  0.4134440000000  0.4732680000000  0.5393420000000 1.0
C      1  0.4918270000000  0.4115230000000  0.5388640000000 1.0
C      1  0.5858700000000  0.4646850000000  0.5398090000000 1.0
C      1  0.4255330000000  0.4150700000000  0.4933270000000 1.0
C      1  0.5546960000000  0.4045550000000  0.4937560000000 1.0
C      1  0.6044410000000  0.5251920000000  0.4946640000000 1.0
C      1  0.5088620000000  0.6105720000000  0.4929580000000 1.0
C      1  0.3987600000000  0.5444820000000  0.4948080000000 1.0
C      1  0.4574990000000  0.4393800000000  0.4351640000000 1.0
C      1  0.5473120000000  0.4394760000000  0.4276810000000 1.0
C      1  0.5688040000000  0.5265190000000  0.4282970000000 1.0
C      1  0.4963740000000  0.5762610000000  0.4261350000000 1.0
C      1  0.4263490000000  0.5205860000000  0.4265590000000 1.0
C      1  0.5248260000000  0.5656190000000  0.5765650000000 1.0
C      1  0.4501990000000  0.5413370000000  0.5772500000000 1.0
C      1  0.4383520000000  0.4607170000000  0.5804330000000 1.0
C      1  0.5175240000000  0.4316100000000  0.5776060000000 1.0
C      1  0.5659380000000  0.4942890000000  0.5748780000000 1.0
C      1  0.5406540000000  0.5054320000000  0.5695430000000 1.0
C      1  0.5092870000000  0.5404460000000  0.5695640000000 1.0
C      1  0.4639540000000  0.5185190000000  0.5644370000000 1.0
C      1  0.4666490000000  0.4642110000000  0.5854250000000 1.0
C      1  0.5171800000000  0.4599580000000  0.5696990000000 1.0
C      1  0.5538560000000  0.4187660000000  0.4679030000000 1.0
C      1  0.5936340000000  0.5280410000000  0.4675450000000 1.0
C      1  0.5009210000000  0.5998090000000  0.4664600000000 1.0
C      1  0.4060450000000  0.5333110000000  0.4682280000000 1.0
C      1  0.4368580000000  0.4194120000000  0.4665140000000 1.0
C      1  0.5030420000000  0.5065400000000  0.4022300000000 1.0
C      1  0.4894260000000  0.4829350000000  0.4586050000000 1.0
END
