TITL C-2441159-1093-818 0.122371800263189 125000 -12338.1478834521 0 0 116 (C1) n - 1
REM
REM in /home/bkarasulu/work/CARBON/AIRSS/Generating-Clusters/ReaxFF-fromJPCA2015/Units_Real/with-SteepDescent/Higher-Symm
REM
REM
REM
REM
REM
REM ./C.cell (1df0a924f5614ab8850e4351716899ee)
REM
REM compiler GCC version 9.2.1 20190827 (Red Hat 9.2.1-1)
REM options -cpp -mtune=generic -march=x86-64 -g -O0 -fpre-include=/usr/include/finclude/math-vector-fortran.h
REM seed 956395436 1120504491 514698679 -1697458205 814108096 1740904290 78553190 -230986014 -24331263 -1768443547 1575860493 -896378947 66173958 -773096184 1432410764 1715109177 -980346879 2145971014 -2080796456 -907412196 930123658 1499066990 -1443838942 -1639113068 -1632549498 -535577362 -1138662098 978141233 -565604159 1150796899 430723715 455905252 681509147
REM
CELL 1.54180   50.00000   50.00000   50.00000   90.00000   90.00000   90.00000
LATT -1
SFAC C  
C      1  0.4519340000000  0.4842860000000  0.5814790000000 1.0
C      1  0.5936390000000  0.4846660000000  0.5007370000000 1.0
C      1  0.4540140000000  0.4841350000000  0.4175320000000 1.0
C      1  0.4524740000000  0.5149170000000  0.5803290000000 1.0
C      1  0.5932630000000  0.5149820000000  0.5001020000000 1.0
C      1  0.4550350000000  0.5144760000000  0.4175360000000 1.0
C      1  0.5468750000000  0.4834380000000  0.5804530000000 1.0
C      1  0.4075340000000  0.4845820000000  0.4995800000000 1.0
C      1  0.5452920000000  0.4842090000000  0.4186870000000 1.0
C      1  0.5481090000000  0.5142380000000  0.5810450000000 1.0
C      1  0.4071620000000  0.5148910000000  0.4991310000000 1.0
C      1  0.5463090000000  0.5149560000000  0.4181240000000 1.0
C      1  0.5274960000000  0.5365940000000  0.5735280000000 1.0
C      1  0.5505770000000  0.5375660000000  0.4382620000000 1.0
C      1  0.4226630000000  0.5375120000000  0.4867200000000 1.0
C      1  0.5276790000000  0.4611630000000  0.5737490000000 1.0
C      1  0.5507210000000  0.4612970000000  0.4385220000000 1.0
C      1  0.4222710000000  0.4610200000000  0.4863370000000 1.0
C      1  0.4720960000000  0.5376130000000  0.5740680000000 1.0
C      1  0.4495740000000  0.5364440000000  0.4391310000000 1.0
C      1  0.5781980000000  0.5381790000000  0.4866990000000 1.0
C      1  0.4723050000000  0.4620240000000  0.5743960000000 1.0
C      1  0.4492650000000  0.4621210000000  0.4388280000000 1.0
C      1  0.5779970000000  0.4609240000000  0.4866770000000 1.0
C      1  0.4892370000000  0.5240090000000  0.4802810000000 1.0
C      1  0.4842420000000  0.5143770000000  0.5263110000000 1.0
C      1  0.5300920000000  0.5127250000000  0.4978650000000 1.0
C      1  0.4894810000000  0.4751220000000  0.4779670000000 1.0
C      1  0.4833300000000  0.4825020000000  0.5229800000000 1.0
C      1  0.5286490000000  0.4834710000000  0.4990240000000 1.0
C      1  0.5144960000000  0.5121870000000  0.4740360000000 1.0
C      1  0.5144720000000  0.5184570000000  0.5227130000000 1.0
C      1  0.4687450000000  0.5127220000000  0.4972960000000 1.0
C      1  0.5151300000000  0.4857070000000  0.4746920000000 1.0
C      1  0.5130630000000  0.4815650000000  0.5256810000000 1.0
C      1  0.4694720000000  0.4856450000000  0.4969550000000 1.0
C      1  0.4852610000000  0.4281970000000  0.5323020000000 1.0
C      1  0.5356740000000  0.4272690000000  0.4965050000000 1.0
C      1  0.4815200000000  0.4293110000000  0.4735930000000 1.0
C      1  0.4859390000000  0.5708890000000  0.5339830000000 1.0
C      1  0.5352120000000  0.5717080000000  0.4958650000000 1.0
C      1  0.4796000000000  0.5717040000000  0.4700020000000 1.0
C      1  0.5143420000000  0.4273170000000  0.5323970000000 1.0
C      1  0.4639210000000  0.4260020000000  0.4969230000000 1.0
C      1  0.5224090000000  0.4278320000000  0.4707440000000 1.0
C      1  0.5146990000000  0.5710950000000  0.5320760000000 1.0
C      1  0.4657510000000  0.5709070000000  0.4951200000000 1.0
C      1  0.5201100000000  0.5710380000000  0.4706490000000 1.0
C      1  0.5446800000000  0.4816130000000  0.4585070000000 1.0
C      1  0.4442080000000  0.4799800000000  0.4830120000000 1.0
C      1  0.5133310000000  0.4843840000000  0.5597740000000 1.0
C      1  0.5468290000000  0.5170400000000  0.4579640000000 1.0
C      1  0.4453800000000  0.5190700000000  0.4830040000000 1.0
C      1  0.5114740000000  0.5146320000000  0.5655880000000 1.0
C      1  0.4485100000000  0.4852130000000  0.4570560000000 1.0
C      1  0.5591670000000  0.4815430000000  0.4804530000000 1.0
C      1  0.4876480000000  0.4826690000000  0.5640290000000 1.0
C      1  0.4494540000000  0.5136080000000  0.4570110000000 1.0
C      1  0.5580840000000  0.5176260000000  0.4816370000000 1.0
C      1  0.4861380000000  0.5156400000000  0.5596830000000 1.0
C      1  0.5675350000000  0.5569970000000  0.5220770000000 1.0
C      1  0.4844270000000  0.5557430000000  0.4297350000000 1.0
C      1  0.4470230000000  0.5562590000000  0.5478820000000 1.0
C      1  0.5680940000000  0.4419330000000  0.5220220000000 1.0
C      1  0.4842770000000  0.4433170000000  0.4300050000000 1.0
C      1  0.4470000000000  0.4432190000000  0.5476750000000 1.0
C      1  0.4320730000000  0.5571800000000  0.5218910000000 1.0
C      1  0.5146840000000  0.5566100000000  0.4300190000000 1.0
C      1  0.5524150000000  0.5555050000000  0.5476290000000 1.0
C      1  0.4320520000000  0.4416900000000  0.5217390000000 1.0
C      1  0.5150390000000  0.4416550000000  0.4298500000000 1.0
C      1  0.5527690000000  0.4426500000000  0.5475600000000 1.0
C      1  0.4873750000000  0.5467910000000  0.4582670000000 1.0
C      1  0.4699090000000  0.5465690000000  0.5311170000000 1.0
C      1  0.5425960000000  0.5473260000000  0.5103830000000 1.0
C      1  0.4875320000000  0.4523150000000  0.4579190000000 1.0
C      1  0.4709910000000  0.4548550000000  0.5312480000000 1.0
C      1  0.5424800000000  0.4526600000000  0.5102210000000 1.0
C      1  0.5122240000000  0.5466050000000  0.4576240000000 1.0
C      1  0.5289000000000  0.5449250000000  0.5308150000000 1.0
C      1  0.4574530000000  0.5486170000000  0.5098990000000 1.0
C      1  0.5119060000000  0.4496600000000  0.4570500000000 1.0
C      1  0.5296740000000  0.4524260000000  0.5308080000000 1.0
C      1  0.4568820000000  0.4507390000000  0.5100700000000 1.0
C      1  0.5479470000000  0.4354230000000  0.4549860000000 1.0
C      1  0.4378430000000  0.4352640000000  0.4804880000000 1.0
C      1  0.5151290000000  0.4355120000000  0.5625940000000 1.0
C      1  0.5465770000000  0.5639730000000  0.4560480000000 1.0
C      1  0.4377800000000  0.5637830000000  0.4807110000000 1.0
C      1  0.5151090000000  0.5634950000000  0.5619910000000 1.0
C      1  0.4527700000000  0.4373770000000  0.4552040000000 1.0
C      1  0.5618410000000  0.4349870000000  0.4815070000000 1.0
C      1  0.4854170000000  0.4347190000000  0.5615660000000 1.0
C      1  0.4527420000000  0.5622240000000  0.4550960000000 1.0
C      1  0.5619190000000  0.5638980000000  0.4812940000000 1.0
C      1  0.4847460000000  0.5631860000000  0.5629770000000 1.0
C      1  0.4796440000000  0.4864960000000  0.4305780000000 1.0
C      1  0.4484450000000  0.4868140000000  0.5528590000000 1.0
C      1  0.5712140000000  0.4853410000000  0.5185250000000 1.0
C      1  0.4804240000000  0.5130700000000  0.4303990000000 1.0
C      1  0.4473340000000  0.5133100000000  0.5529090000000 1.0
C      1  0.5716790000000  0.5124280000000  0.5186760000000 1.0
C      1  0.5190100000000  0.4856830000000  0.4284560000000 1.0
C      1  0.5523770000000  0.4861150000000  0.5528600000000 1.0
C      1  0.4274240000000  0.4856250000000  0.5195110000000 1.0
C      1  0.5197230000000  0.5124880000000  0.4291250000000 1.0
C      1  0.5512470000000  0.5126290000000  0.5524830000000 1.0
C      1  0.4275800000000  0.5123800000000  0.5192050000000 1.0
C      1  0.5724310000000  0.5328800000000  0.5429530000000 1.0
C      1  0.5727060000000  0.4663650000000  0.5420080000000 1.0
C      1  0.4270110000000  0.5324210000000  0.5422320000000 1.0
C      1  0.4270530000000  0.4663500000000  0.5425830000000 1.0
C      1  0.4990590000000  0.5324390000000  0.4155250000000 1.0
C      1  0.4989610000000  0.4661710000000  0.4156270000000 1.0
C      1  0.4955410000000  0.4502170000000  0.4947120000000 1.0
C      1  0.4952560000000  0.5481910000000  0.4969570000000 1.0
END
