TITL C-2441159-1093-613 0.0893592942727347 125000 -21329.9076558728 0 0 156 (C1) n - 1
REM
REM in /home/bkarasulu/work/CARBON/AIRSS/Generating-Clusters/ReaxFF-fromJPCA2015/Units_Real/with-SteepDescent/Higher-Symm
REM
REM
REM
REM
REM
REM ./C.cell (1df0a924f5614ab8850e4351716899ee)
REM
REM compiler GCC version 9.2.1 20190827 (Red Hat 9.2.1-1)
REM options -cpp -mtune=generic -march=x86-64 -g -O0 -fpre-include=/usr/include/finclude/math-vector-fortran.h
REM seed 572466230 -786789245 -1232142205 917666947 1192780245 556768115 1597748276 -296833859 -2031819247 -1478549814 424564458 2083912570 2060956986 965570092 -1007972466 -1336094727 -914888143 2071120848 -1713463320 -1209357850 1998629223 442215999 1557722566 -1611496236 -1984811532 1505657108 -784518795 2033336440 1390365158 -116848892 -1117671299 -791681230 -1393127388
REM
CELL 1.54180   50.00000   50.00000   50.00000   90.00000   90.00000   90.00000
LATT -1
SFAC C  
C      1  0.4531150000000  0.5481280000000  0.4329560000000 1.0
C      1  0.5485790000000  0.5505460000000  0.5706130000000 1.0
C      1  0.5686150000000  0.4677650000000  0.5643990000000 1.0
C      1  0.4291090000000  0.4686990000000  0.4355610000000 1.0
C      1  0.5848390000000  0.5230310000000  0.4610980000000 1.0
C      1  0.4136910000000  0.5189500000000  0.5395320000000 1.0
C      1  0.5307110000000  0.4095460000000  0.5076350000000 1.0
C      1  0.4687280000000  0.4145970000000  0.4952980000000 1.0
C      1  0.5367620000000  0.5878060000000  0.5477080000000 1.0
C      1  0.4639810000000  0.5887190000000  0.4533620000000 1.0
C      1  0.4876590000000  0.5786860000000  0.5130640000000 1.0
C      1  0.5121750000000  0.5757410000000  0.4871340000000 1.0
C      1  0.4625450000000  0.4690500000000  0.4859620000000 1.0
C      1  0.5421210000000  0.4677040000000  0.5122910000000 1.0
C      1  0.4255540000000  0.4373740000000  0.4769460000000 1.0
C      1  0.5718310000000  0.4371190000000  0.5242010000000 1.0
C      1  0.5150060000000  0.5870630000000  0.4587830000000 1.0
C      1  0.4858840000000  0.5878830000000  0.5419240000000 1.0
C      1  0.5551690000000  0.4183880000000  0.4744310000000 1.0
C      1  0.4391340000000  0.4146980000000  0.5251830000000 1.0
C      1  0.4472760000000  0.4788360000000  0.4153670000000 1.0
C      1  0.5518980000000  0.4784940000000  0.5848530000000 1.0
C      1  0.4596270000000  0.5114060000000  0.6000220000000 1.0
C      1  0.5400960000000  0.5124680000000  0.4026390000000 1.0
C      1  0.4842660000000  0.5232420000000  0.5879410000000 1.0
C      1  0.5220830000000  0.5342110000000  0.4055430000000 1.0
C      1  0.5328170000000  0.4632780000000  0.4068350000000 1.0
C      1  0.4820980000000  0.4817730000000  0.5706600000000 1.0
C      1  0.4977050000000  0.4887290000000  0.3897560000000 1.0
C      1  0.5027320000000  0.4847720000000  0.6093090000000 1.0
C      1  0.5128940000000  0.4774700000000  0.5560540000000 1.0
C      1  0.4873930000000  0.4837910000000  0.4453450000000 1.0
C      1  0.5022120000000  0.5278250000000  0.4506260000000 1.0
C      1  0.5034570000000  0.5404520000000  0.5382250000000 1.0
C      1  0.5088890000000  0.4574440000000  0.5998610000000 1.0
C      1  0.4895100000000  0.4620150000000  0.3982510000000 1.0
C      1  0.5778690000000  0.4356120000000  0.4687220000000 1.0
C      1  0.4214440000000  0.4366200000000  0.5322130000000 1.0
C      1  0.4746190000000  0.4951290000000  0.4894290000000 1.0
C      1  0.5262550000000  0.5128650000000  0.5216710000000 1.0
C      1  0.5658920000000  0.4860630000000  0.4336590000000 1.0
C      1  0.4346810000000  0.4859390000000  0.5670280000000 1.0
C      1  0.4972640000000  0.5513460000000  0.5619170000000 1.0
C      1  0.5039270000000  0.5544270000000  0.4382280000000 1.0
C      1  0.5874130000000  0.4872220000000  0.5543830000000 1.0
C      1  0.4117860000000  0.4896310000000  0.4465690000000 1.0
C      1  0.4746860000000  0.4511120000000  0.5248940000000 1.0
C      1  0.5282870000000  0.4551280000000  0.4720220000000 1.0
C      1  0.5290770000000  0.5535800000000  0.4241050000000 1.0
C      1  0.4685480000000  0.5537820000000  0.5678520000000 1.0
C      1  0.5356470000000  0.4435270000000  0.4479800000000 1.0
C      1  0.4708590000000  0.4467730000000  0.5519330000000 1.0
C      1  0.5728220000000  0.5028820000000  0.5034210000000 1.0
C      1  0.4289980000000  0.4997890000000  0.4927480000000 1.0
C      1  0.4794230000000  0.5107280000000  0.3960160000000 1.0
C      1  0.5200510000000  0.5090960000000  0.6039120000000 1.0
C      1  0.4722080000000  0.5969460000000  0.4763550000000 1.0
C      1  0.5297980000000  0.5961730000000  0.5236800000000 1.0
C      1  0.4210920000000  0.5552770000000  0.4721430000000 1.0
C      1  0.5798630000000  0.5544120000000  0.5299920000000 1.0
C      1  0.5469520000000  0.5059320000000  0.5942000000000 1.0
C      1  0.4519660000000  0.5062720000000  0.4055250000000 1.0
C      1  0.5537720000000  0.5578080000000  0.4376750000000 1.0
C      1  0.4429460000000  0.5631170000000  0.5602420000000 1.0
C      1  0.4914070000000  0.5875330000000  0.4423750000000 1.0
C      1  0.5095550000000  0.5887470000000  0.5571870000000 1.0
C      1  0.5573930000000  0.4203890000000  0.5045030000000 1.0
C      1  0.4397720000000  0.4189600000000  0.4958900000000 1.0
C      1  0.4011800000000  0.5065760000000  0.4878990000000 1.0
C      1  0.6002230000000  0.5073670000000  0.5118110000000 1.0
C      1  0.4808160000000  0.5534420000000  0.4215080000000 1.0
C      1  0.5199280000000  0.5565510000000  0.5797750000000 1.0
C      1  0.4423420000000  0.5774260000000  0.5159480000000 1.0
C      1  0.5565400000000  0.5788480000000  0.4818190000000 1.0
C      1  0.4670960000000  0.5084980000000  0.5136800000000 1.0
C      1  0.5344480000000  0.5260930000000  0.4818900000000 1.0
C      1  0.5654820000000  0.4994110000000  0.4598770000000 1.0
C      1  0.4221790000000  0.4919250000000  0.5420640000000 1.0
C      1  0.4331620000000  0.5489210000000  0.5135480000000 1.0
C      1  0.5701190000000  0.5530150000000  0.4883760000000 1.0
C      1  0.4977110000000  0.4381760000000  0.5634270000000 1.0
C      1  0.5082590000000  0.4372500000000  0.4367820000000 1.0
C      1  0.4692310000000  0.4076240000000  0.5243070000000 1.0
C      1  0.5272690000000  0.4069630000000  0.4784770000000 1.0
C      1  0.5260180000000  0.4888130000000  0.3953020000000 1.0
C      1  0.4754370000000  0.4870990000000  0.6014770000000 1.0
C      1  0.5355490000000  0.5937360000000  0.4969870000000 1.0
C      1  0.4634230000000  0.5946930000000  0.5026500000000 1.0
C      1  0.4830270000000  0.4580040000000  0.4663950000000 1.0
C      1  0.5150040000000  0.4696240000000  0.5263630000000 1.0
C      1  0.4540240000000  0.5823630000000  0.5417630000000 1.0
C      1  0.5439310000000  0.5785500000000  0.4560810000000 1.0
C      1  0.5562220000000  0.5235670000000  0.5444500000000 1.0
C      1  0.4491540000000  0.5260010000000  0.4590560000000 1.0
C      1  0.4611270000000  0.4992420000000  0.4588560000000 1.0
C      1  0.5405160000000  0.4997380000000  0.5419520000000 1.0
C      1  0.5718640000000  0.5340670000000  0.4374090000000 1.0
C      1  0.4296010000000  0.5325300000000  0.5615940000000 1.0
C      1  0.5040190000000  0.4013990000000  0.4610050000000 1.0
C      1  0.4907670000000  0.4045360000000  0.5437500000000 1.0
C      1  0.5736910000000  0.4633200000000  0.4725580000000 1.0
C      1  0.4292510000000  0.4662210000000  0.5241510000000 1.0
C      1  0.5235270000000  0.5493980000000  0.4945850000000 1.0
C      1  0.4737070000000  0.5534940000000  0.5052330000000 1.0
C      1  0.4404860000000  0.5661990000000  0.4545380000000 1.0
C      1  0.5604070000000  0.5651370000000  0.5477350000000 1.0
C      1  0.5264490000000  0.4648370000000  0.5778830000000 1.0
C      1  0.4747420000000  0.4706270000000  0.4217070000000 1.0
C      1  0.4366260000000  0.5114050000000  0.5817000000000 1.0
C      1  0.5634010000000  0.5116390000000  0.4199960000000 1.0
C      1  0.5055240000000  0.4975450000000  0.5136650000000 1.0
C      1  0.4993290000000  0.5045630000000  0.4879450000000 1.0
C      1  0.4041480000000  0.4553580000000  0.4850040000000 1.0
C      1  0.5926620000000  0.4554970000000  0.5157290000000 1.0
C      1  0.3976570000000  0.4821800000000  0.4714460000000 1.0
C      1  0.5992370000000  0.4821830000000  0.5281870000000 1.0
C      1  0.5570470000000  0.4437600000000  0.5489480000000 1.0
C      1  0.4409820000000  0.4476280000000  0.4537360000000 1.0
C      1  0.5183320000000  0.4123250000000  0.5349340000000 1.0
C      1  0.4779040000000  0.4134290000000  0.4674010000000 1.0
C      1  0.4925830000000  0.5290650000000  0.4760770000000 1.0
C      1  0.4780280000000  0.5329180000000  0.5253990000000 1.0
C      1  0.4041850000000  0.4506780000000  0.5138240000000 1.0
C      1  0.5946680000000  0.4508080000000  0.4871450000000 1.0
C      1  0.5039160000000  0.4502220000000  0.4850470000000 1.0
C      1  0.4992940000000  0.4503590000000  0.5130120000000 1.0
C      1  0.4434200000000  0.5209130000000  0.5069300000000 1.0
C      1  0.5587880000000  0.5269140000000  0.4940590000000 1.0
C      1  0.4425410000000  0.4818350000000  0.4727790000000 1.0
C      1  0.5577640000000  0.4864500000000  0.5227140000000 1.0
C      1  0.4360470000000  0.5264040000000  0.4193230000000 1.0
C      1  0.5638630000000  0.5277830000000  0.5837240000000 1.0
C      1  0.4061710000000  0.5374170000000  0.5167400000000 1.0
C      1  0.5960140000000  0.5391720000000  0.4839080000000 1.0
C      1  0.4548240000000  0.4603060000000  0.5108790000000 1.0
C      1  0.5482830000000  0.4647350000000  0.4853790000000 1.0
C      1  0.5126170000000  0.5015240000000  0.4450150000000 1.0
C      1  0.4807450000000  0.5098180000000  0.5632300000000 1.0
C      1  0.5985630000000  0.5371220000000  0.5142650000000 1.0
C      1  0.4027740000000  0.5368210000000  0.4871360000000 1.0
C      1  0.4931750000000  0.5348270000000  0.4035460000000 1.0
C      1  0.5090950000000  0.5350470000000  0.5969350000000 1.0
C      1  0.4678950000000  0.5450750000000  0.4786200000000 1.0
C      1  0.5276420000000  0.5418840000000  0.5223500000000 1.0
C      1  0.4942970000000  0.4342900000000  0.5911540000000 1.0
C      1  0.5106040000000  0.4439950000000  0.4079970000000 1.0
C      1  0.5312730000000  0.4320240000000  0.5504320000000 1.0
C      1  0.4692480000000  0.4367260000000  0.4522860000000 1.0
C      1  0.4913000000000  0.4125260000000  0.5720420000000 1.0
C      1  0.5058450000000  0.4078110000000  0.4310770000000 1.0
C      1  0.5360160000000  0.5061810000000  0.4613820000000 1.0
C      1  0.4623920000000  0.5289590000000  0.5532190000000 1.0
C      1  0.4566270000000  0.4658380000000  0.5669390000000 1.0
C      1  0.5499770000000  0.4617590000000  0.4296180000000 1.0
C      1  0.5784130000000  0.5156250000000  0.5606320000000 1.0
C      1  0.4238990000000  0.5168650000000  0.4439880000000 1.0
END
