TITL C-2441157-2117-270 0.0460731713993623 125000 -13710.8028381414 0 0 105 (C1) n - 1
REM
REM in /home/bkarasulu/work/CARBON/AIRSS/Generating-Clusters/ReaxFF-fromJPCA2015/Units_Real/with-SteepDescent/Higher-Symm
REM
REM
REM
REM
REM
REM ./C.cell (1df0a924f5614ab8850e4351716899ee)
REM
REM compiler GCC version 9.2.1 20190827 (Red Hat 9.2.1-1)
REM options -cpp -mtune=generic -march=x86-64 -g -O0 -fpre-include=/usr/include/finclude/math-vector-fortran.h
REM seed 982949798 1363827420 -1004929977 -1741903349 -741243791 -1099089950 555476419 -723184580 -1238234923 451131058 489852729 1837185999 -1928578749 -460785938 1858058452 -300440638 1211678997 -1995820454 -145259334 -1628059315 198979219 1480410029 -429499013 -1656614817 -185474066 1198271775 1307630111 780487626 -1637776485 213803381 -172811678 -632203174 -1972342859
REM
CELL 1.54180   50.00000   50.00000   50.00000   90.00000   90.00000   90.00000
LATT -1
SFAC C  
C      1  0.4720380000000  0.5097730000000  0.4283710000000 1.0
C      1  0.5316170000000  0.4895590000000  0.4269360000000 1.0
C      1  0.5703560000000  0.5074320000000  0.4730810000000 1.0
C      1  0.5846210000000  0.4863760000000  0.5336340000000 1.0
C      1  0.5297870000000  0.5104060000000  0.5751240000000 1.0
C      1  0.4683440000000  0.4910900000000  0.5704360000000 1.0
C      1  0.4261440000000  0.5118070000000  0.5285500000000 1.0
C      1  0.4287550000000  0.4917850000000  0.4687820000000 1.0
C      1  0.4817230000000  0.5596390000000  0.5708710000000 1.0
C      1  0.4367540000000  0.4424830000000  0.5339130000000 1.0
C      1  0.4337460000000  0.5552350000000  0.4714270000000 1.0
C      1  0.4635720000000  0.4392730000000  0.4380750000000 1.0
C      1  0.5196510000000  0.5572920000000  0.4309170000000 1.0
C      1  0.5634320000000  0.4412000000000  0.4640240000000 1.0
C      1  0.5690980000000  0.5599850000000  0.5190640000000 1.0
C      1  0.5327370000000  0.4422520000000  0.5616550000000 1.0
C      1  0.5617150000000  0.4821170000000  0.5466180000000 1.0
C      1  0.5058550000000  0.5196120000000  0.5893300000000 1.0
C      1  0.4414540000000  0.4809540000000  0.5673730000000 1.0
C      1  0.4117900000000  0.5205820000000  0.5047730000000 1.0
C      1  0.4342670000000  0.4802830000000  0.4428830000000 1.0
C      1  0.4928880000000  0.5183260000000  0.4108830000000 1.0
C      1  0.5585290000000  0.4799210000000  0.4323050000000 1.0
C      1  0.5868060000000  0.5174250000000  0.4956230000000 1.0
C      1  0.4912200000000  0.5630160000000  0.4336180000000 1.0
C      1  0.5367090000000  0.4344000000000  0.4515580000000 1.0
C      1  0.5666740000000  0.5639780000000  0.4908690000000 1.0
C      1  0.5446120000000  0.4353520000000  0.5348200000000 1.0
C      1  0.5073710000000  0.5646780000000  0.5573590000000 1.0
C      1  0.4584390000000  0.4357000000000  0.5523530000000 1.0
C      1  0.4416730000000  0.5621140000000  0.5104170000000 1.0
C      1  0.4554300000000  0.4354820000000  0.4652520000000 1.0
C      1  0.4796190000000  0.5732100000000  0.5159940000000 1.0
C      1  0.4815590000000  0.4266390000000  0.4962640000000 1.0
C      1  0.4811980000000  0.5835910000000  0.4883690000000 1.0
C      1  0.5042000000000  0.4274520000000  0.4772510000000 1.0
C      1  0.5123130000000  0.5792710000000  0.4854340000000 1.0
C      1  0.5232020000000  0.4280690000000  0.4999720000000 1.0
C      1  0.5124660000000  0.5756000000000  0.5173870000000 1.0
C      1  0.5007830000000  0.4268160000000  0.5186000000000 1.0
C      1  0.4904840000000  0.4464240000000  0.4240510000000 1.0
C      1  0.5422630000000  0.5450760000000  0.4459010000000 1.0
C      1  0.5729790000000  0.4505140000000  0.4905940000000 1.0
C      1  0.5572090000000  0.5516770000000  0.5448980000000 1.0
C      1  0.5071070000000  0.4542590000000  0.5688990000000 1.0
C      1  0.4542750000000  0.5513200000000  0.5617790000000 1.0
C      1  0.4304090000000  0.4548670000000  0.5071980000000 1.0
C      1  0.4418080000000  0.5506220000000  0.4480520000000 1.0
C      1  0.5487790000000  0.4972010000000  0.5191250000000 1.0
C      1  0.5197490000000  0.5051030000000  0.5480800000000 1.0
C      1  0.4824770000000  0.4918020000000  0.5476230000000 1.0
C      1  0.4519610000000  0.4995000000000  0.5230690000000 1.0
C      1  0.4510730000000  0.4938960000000  0.4838100000000 1.0
C      1  0.4795850000000  0.5014410000000  0.4533960000000 1.0
C      1  0.5186750000000  0.4973080000000  0.4490580000000 1.0
C      1  0.5422090000000  0.5071530000000  0.4798270000000 1.0
C      1  0.4792780000000  0.5095890000000  0.5269720000000 1.0
C      1  0.4536260000000  0.4763670000000  0.5051060000000 1.0
C      1  0.4730530000000  0.5107280000000  0.4793950000000 1.0
C      1  0.4981880000000  0.4806540000000  0.4570300000000 1.0
C      1  0.5246960000000  0.5224090000000  0.4620940000000 1.0
C      1  0.5278670000000  0.4893720000000  0.4989770000000 1.0
C      1  0.5323920000000  0.5198550000000  0.5263160000000 1.0
C      1  0.5071540000000  0.4779140000000  0.5445390000000 1.0
C      1  0.5642780000000  0.5278810000000  0.5587340000000 1.0
C      1  0.4990440000000  0.4711020000000  0.5880570000000 1.0
C      1  0.4388200000000  0.5276400000000  0.5652980000000 1.0
C      1  0.4105340000000  0.4715980000000  0.4988790000000 1.0
C      1  0.4369520000000  0.5272740000000  0.4386890000000 1.0
C      1  0.4988810000000  0.4707240000000  0.4108270000000 1.0
C      1  0.5616010000000  0.5283220000000  0.4382630000000 1.0
C      1  0.5867550000000  0.4731570000000  0.4963210000000 1.0
C      1  0.4867270000000  0.5433950000000  0.5159620000000 1.0
C      1  0.4782360000000  0.4577150000000  0.5017730000000 1.0
C      1  0.4819580000000  0.5383760000000  0.4876400000000 1.0
C      1  0.4987590000000  0.4590670000000  0.4765920000000 1.0
C      1  0.5097500000000  0.5425730000000  0.4816540000000 1.0
C      1  0.5215090000000  0.4599640000000  0.4956320000000 1.0
C      1  0.5172570000000  0.5425970000000  0.5112310000000 1.0
C      1  0.5029890000000  0.4578290000000  0.5196320000000 1.0
C      1  0.5727960000000  0.5033470000000  0.4433540000000 1.0
C      1  0.5930150000000  0.4938390000000  0.5111600000000 1.0
C      1  0.5586160000000  0.5036390000000  0.5700680000000 1.0
C      1  0.4880620000000  0.4964810000000  0.5918260000000 1.0
C      1  0.4253350000000  0.5041770000000  0.5588370000000 1.0
C      1  0.4069140000000  0.4970710000000  0.4878190000000 1.0
C      1  0.4442340000000  0.5030180000000  0.4272030000000 1.0
C      1  0.5110650000000  0.4954200000000  0.4054140000000 1.0
C      1  0.5615160000000  0.4456360000000  0.5152840000000 1.0
C      1  0.5317410000000  0.5537610000000  0.5561700000000 1.0
C      1  0.4827420000000  0.4436750000000  0.5624660000000 1.0
C      1  0.4459280000000  0.5559520000000  0.5348210000000 1.0
C      1  0.4358290000000  0.4446130000000  0.4825430000000 1.0
C      1  0.4665590000000  0.5571100000000  0.4449790000000 1.0
C      1  0.5151030000000  0.4421790000000  0.4364710000000 1.0
C      1  0.5550200000000  0.5561310000000  0.4673040000000 1.0
C      1  0.5841150000000  0.5444900000000  0.5034930000000 1.0
C      1  0.5553980000000  0.4546850000000  0.5544250000000 1.0
C      1  0.5013720000000  0.5466010000000  0.5825650000000 1.0
C      1  0.4373350000000  0.4548050000000  0.5580030000000 1.0
C      1  0.4216350000000  0.5474820000000  0.4954850000000 1.0
C      1  0.4417730000000  0.4530090000000  0.4430330000000 1.0
C      1  0.5021380000000  0.5446460000000  0.4142130000000 1.0
C      1  0.5589840000000  0.4540170000000  0.4420410000000 1.0
C      1  0.4960200000000  0.5007570000000  0.5028280000000 1.0
END
