TITL C-2441165-58-1043 0.000194132320975297 125000 -3971.09648437991 0 0 28 (C1) n - 1
REM
REM in /home/bkarasulu/work/CARBON/AIRSS/Generating-Clusters/ReaxFF-fromJPCA2015/Units_Real/with-SteepDescent/Higher-Symm
REM
REM
REM
REM
REM
REM ./C.cell (1df0a924f5614ab8850e4351716899ee)
REM
REM compiler GCC version 9.2.1 20190827 (Red Hat 9.2.1-1)
REM options -cpp -mtune=generic -march=x86-64 -g -O0 -fpre-include=/usr/include/finclude/math-vector-fortran.h
REM seed 691645691 -493888467 -38248044 1579591237 1828992492 -1332785861 327194673 605458013 1008988751 125505011 -1187716559 -2088266537 -1783063421 -465833429 -629810502 -1058270333 949898304 1399645947 1028124938 -550880929 823540745 -1068897471 1565535471 -459402234 369402692 888085548 -1148718518 -1185207964 -264696461 -1381097328 -567728871 254432866 -1794325592
REM
CELL 1.54180   50.00000   50.00000   50.00000   90.00000   90.00000   90.00000
LATT -1
SFAC C  
C      1  0.4611010000000  0.5377280000000  0.4923240000000 1.0
C      1  0.4610870000000  0.4644400000000  0.4679790000000 1.0
C      1  0.4392690000000  0.4866550000000  0.5299900000000 1.0
C      1  0.4876900000000  0.4613540000000  0.4593440000000 1.0
C      1  0.4678080000000  0.4791090000000  0.5409590000000 1.0
C      1  0.4879270000000  0.5472050000000  0.4909730000000 1.0
C      1  0.4319480000000  0.4941630000000  0.5038390000000 1.0
C      1  0.4368450000000  0.5240170000000  0.4948520000000 1.0
C      1  0.4383590000000  0.4727260000000  0.4819460000000 1.0
C      1  0.5060110000000  0.5362630000000  0.4679880000000 1.0
C      1  0.5079430000000  0.4515470000000  0.4798810000000 1.0
C      1  0.5285480000000  0.5213640000000  0.5546020000000 1.0
C      1  0.4961370000000  0.4561920000000  0.5047100000000 1.0
C      1  0.4996880000000  0.5251030000000  0.5411860000000 1.0
C      1  0.4976920000000  0.5118960000000  0.4599110000000 1.0
C      1  0.5515000000000  0.5112300000000  0.5117480000000 1.0
C      1  0.5462830000000  0.5091970000000  0.4693650000000 1.0
C      1  0.5456160000000  0.4743460000000  0.5028670000000 1.0
C      1  0.5489330000000  0.4813270000000  0.4609380000000 1.0
C      1  0.5472140000000  0.4746460000000  0.5314020000000 1.0
C      1  0.5507850000000  0.5379120000000  0.4994260000000 1.0
C      1  0.5356550000000  0.4605540000000  0.4801630000000 1.0
C      1  0.5476090000000  0.5063770000000  0.5402340000000 1.0
C      1  0.5349230000000  0.5344750000000  0.4721990000000 1.0
C      1  0.4899830000000  0.4887860000000  0.4539050000000 1.0
C      1  0.4852880000000  0.4635220000000  0.5237850000000 1.0
C      1  0.4944920000000  0.5380850000000  0.5165230000000 1.0
C      1  0.4842320000000  0.5009530000000  0.5414970000000 1.0
END
