TITL C-2441165-58-1340 0.0783002713106099 125000 -21929.8021966827 0 0 155 (C1) n - 1
REM
REM in /home/bkarasulu/work/CARBON/AIRSS/Generating-Clusters/ReaxFF-fromJPCA2015/Units_Real/with-SteepDescent/Higher-Symm
REM
REM
REM
REM
REM
REM ./C.cell (1df0a924f5614ab8850e4351716899ee)
REM
REM compiler GCC version 9.2.1 20190827 (Red Hat 9.2.1-1)
REM options -cpp -mtune=generic -march=x86-64 -g -O0 -fpre-include=/usr/include/finclude/math-vector-fortran.h
REM seed 1452150080 -524269490 -1082651476 1487579027 2138782847 -1418712299 -1575792235 1067746149 1945999511 2079209343 -96239859 -784043505 -344598057 1120403416 -1148529160 -26032031 -1948393739 -1019413587 -1598249365 -26135863 449478940 -915470971 982228676 -889008718 1858192997 984486947 -2035430851 1711978844 1591598943 1916678473 -790318421 -314709402 474840690
REM
CELL 1.54180   50.00000   50.00000   50.00000   90.00000   90.00000   90.00000
LATT -1
SFAC C  
C      1  0.5493820000000  0.4912970000000  0.4104700000000 1.0
C      1  0.4935400000000  0.4113510000000  0.5479770000000 1.0
C      1  0.4125960000000  0.5482160000000  0.4905110000000 1.0
C      1  0.5490600000000  0.5068500000000  0.5910920000000 1.0
C      1  0.4513410000000  0.4943410000000  0.5894000000000 1.0
C      1  0.4511520000000  0.5047590000000  0.4085260000000 1.0
C      1  0.4928430000000  0.5897450000000  0.4508770000000 1.0
C      1  0.5092860000000  0.4122630000000  0.4517920000000 1.0
C      1  0.5067110000000  0.5895030000000  0.5482390000000 1.0
C      1  0.4139510000000  0.4486850000000  0.5081840000000 1.0
C      1  0.5878070000000  0.5480650000000  0.5082880000000 1.0
C      1  0.5927420000000  0.4505980000000  0.4952800000000 1.0
C      1  0.5077380000000  0.4969600000000  0.4654880000000 1.0
C      1  0.4812470000000  0.4506850000000  0.4994720000000 1.0
C      1  0.4568290000000  0.5029000000000  0.4829540000000 1.0
C      1  0.5094310000000  0.5009600000000  0.5322960000000 1.0
C      1  0.4924570000000  0.4947460000000  0.5534570000000 1.0
C      1  0.4887490000000  0.5097090000000  0.4495100000000 1.0
C      1  0.4897960000000  0.5526960000000  0.5059110000000 1.0
C      1  0.5098010000000  0.4485630000000  0.5033220000000 1.0
C      1  0.5175580000000  0.5488880000000  0.5010120000000 1.0
C      1  0.4775420000000  0.5030010000000  0.5027080000000 1.0
C      1  0.5557340000000  0.4974890000000  0.5132870000000 1.0
C      1  0.5342390000000  0.5046140000000  0.4964750000000 1.0
C      1  0.5371990000000  0.4098080000000  0.5291760000000 1.0
C      1  0.4107400000000  0.5317910000000  0.5352590000000 1.0
C      1  0.5320920000000  0.5356210000000  0.4097280000000 1.0
C      1  0.5364290000000  0.5907040000000  0.4676260000000 1.0
C      1  0.4650500000000  0.4087340000000  0.4673770000000 1.0
C      1  0.4638540000000  0.5917910000000  0.5301560000000 1.0
C      1  0.4100690000000  0.4703760000000  0.4617020000000 1.0
C      1  0.5900410000000  0.5310750000000  0.4640180000000 1.0
C      1  0.5916100000000  0.4710060000000  0.5372780000000 1.0
C      1  0.5320710000000  0.4638080000000  0.5904260000000 1.0
C      1  0.4703980000000  0.5379830000000  0.5909970000000 1.0
C      1  0.4697620000000  0.4627450000000  0.4086040000000 1.0
C      1  0.4494230000000  0.5175870000000  0.4625300000000 1.0
C      1  0.5249140000000  0.4552630000000  0.4427840000000 1.0
C      1  0.4573830000000  0.4533590000000  0.5236870000000 1.0
C      1  0.4510530000000  0.4723870000000  0.5464180000000 1.0
C      1  0.5455350000000  0.5251310000000  0.5450480000000 1.0
C      1  0.5471460000000  0.4663580000000  0.4581650000000 1.0
C      1  0.5211290000000  0.5362710000000  0.5486100000000 1.0
C      1  0.4728790000000  0.4525670000000  0.5495390000000 1.0
C      1  0.4653330000000  0.5384850000000  0.4557460000000 1.0
C      1  0.4543420000000  0.5557710000000  0.4745870000000 1.0
C      1  0.5458560000000  0.4577610000000  0.4859190000000 1.0
C      1  0.5383950000000  0.5473500000000  0.5269650000000 1.0
C      1  0.4884420000000  0.5303300000000  0.4149740000000 1.0
C      1  0.5354150000000  0.4305810000000  0.4879590000000 1.0
C      1  0.4088940000000  0.4888510000000  0.5333630000000 1.0
C      1  0.4892770000000  0.4697630000000  0.5850600000000 1.0
C      1  0.5148960000000  0.5391410000000  0.5761100000000 1.0
C      1  0.5131530000000  0.4671760000000  0.4183760000000 1.0
C      1  0.5338680000000  0.5928470000000  0.5113150000000 1.0
C      1  0.4692540000000  0.4153010000000  0.5085090000000 1.0
C      1  0.4689220000000  0.5708450000000  0.4906730000000 1.0
C      1  0.4232450000000  0.5161460000000  0.4570500000000 1.0
C      1  0.5934290000000  0.4872340000000  0.4661260000000 1.0
C      1  0.5688850000000  0.5120510000000  0.5355780000000 1.0
C      1  0.4220460000000  0.5569430000000  0.5372810000000 1.0
C      1  0.5570210000000  0.5365860000000  0.4225840000000 1.0
C      1  0.5385850000000  0.4225260000000  0.5544260000000 1.0
C      1  0.4214220000000  0.4441680000000  0.4611470000000 1.0
C      1  0.5776360000000  0.5562230000000  0.4625410000000 1.0
C      1  0.5797050000000  0.4453180000000  0.5385890000000 1.0
C      1  0.5568050000000  0.4620720000000  0.5782790000000 1.0
C      1  0.4449790000000  0.5388290000000  0.5775410000000 1.0
C      1  0.4448100000000  0.4610270000000  0.4213510000000 1.0
C      1  0.5376080000000  0.5771530000000  0.4431860000000 1.0
C      1  0.4630980000000  0.4219340000000  0.4432540000000 1.0
C      1  0.4617930000000  0.5793390000000  0.5553250000000 1.0
C      1  0.5989000000000  0.4743990000000  0.5101110000000 1.0
C      1  0.4741460000000  0.5101700000000  0.5975750000000 1.0
C      1  0.5098060000000  0.5979810000000  0.4734850000000 1.0
C      1  0.5960540000000  0.5256160000000  0.4911450000000 1.0
C      1  0.4176420000000  0.4748990000000  0.4901160000000 1.0
C      1  0.4072410000000  0.5257180000000  0.5078070000000 1.0
C      1  0.4747150000000  0.4896700000000  0.4019780000000 1.0
C      1  0.5269070000000  0.5082510000000  0.4028920000000 1.0
C      1  0.5265050000000  0.4907470000000  0.5974840000000 1.0
C      1  0.5095870000000  0.4035610000000  0.5253720000000 1.0
C      1  0.4911950000000  0.5977790000000  0.5256970000000 1.0
C      1  0.4923270000000  0.4029010000000  0.4733700000000 1.0
C      1  0.5710270000000  0.4518880000000  0.4493660000000 1.0
C      1  0.4624720000000  0.4401030000000  0.5753940000000 1.0
C      1  0.4404330000000  0.5774120000000  0.4604890000000 1.0
C      1  0.5750310000000  0.5600110000000  0.5568130000000 1.0
C      1  0.4260080000000  0.4630720000000  0.5606840000000 1.0
C      1  0.4259830000000  0.5596480000000  0.4416660000000 1.0
C      1  0.4513900000000  0.5504070000000  0.4309190000000 1.0
C      1  0.5412930000000  0.4385670000000  0.4231030000000 1.0
C      1  0.5596340000000  0.5561940000000  0.5825060000000 1.0
C      1  0.4415040000000  0.4267880000000  0.5350680000000 1.0
C      1  0.5554530000000  0.5706000000000  0.5377270000000 1.0
C      1  0.5578710000000  0.4265420000000  0.4434220000000 1.0
C      1  0.4154840000000  0.4922230000000  0.4446580000000 1.0
C      1  0.4920770000000  0.4471480000000  0.4153410000000 1.0
C      1  0.4484280000000  0.4143650000000  0.4892130000000 1.0
C      1  0.4154100000000  0.5097670000000  0.5524030000000 1.0
C      1  0.5821400000000  0.4923370000000  0.5530870000000 1.0
C      1  0.5851800000000  0.5078270000000  0.4477590000000 1.0
C      1  0.4921170000000  0.5540210000000  0.5832990000000 1.0
C      1  0.5095770000000  0.4483190000000  0.5830850000000 1.0
C      1  0.5087260000000  0.5506100000000  0.4167370000000 1.0
C      1  0.4489960000000  0.5817690000000  0.5086070000000 1.0
C      1  0.5534110000000  0.4185570000000  0.5078920000000 1.0
C      1  0.5523890000000  0.5850300000000  0.4906370000000 1.0
C      1  0.5427820000000  0.5187490000000  0.4743250000000 1.0
C      1  0.5157890000000  0.4794860000000  0.5448810000000 1.0
C      1  0.4760150000000  0.5408670000000  0.5287540000000 1.0
C      1  0.5493060000000  0.4701000000000  0.5113020000000 1.0
C      1  0.4621160000000  0.5157150000000  0.5230610000000 1.0
C      1  0.4478130000000  0.4762280000000  0.4858100000000 1.0
C      1  0.5228500000000  0.5186130000000  0.4541060000000 1.0
C      1  0.4859500000000  0.4815570000000  0.4568300000000 1.0
C      1  0.4762490000000  0.5182190000000  0.5477750000000 1.0
C      1  0.4707600000000  0.4636940000000  0.4748540000000 1.0
C      1  0.5267390000000  0.5423420000000  0.4747980000000 1.0
C      1  0.5245670000000  0.4611320000000  0.5241140000000 1.0
C      1  0.4094430000000  0.4589090000000  0.5352360000000 1.0
C      1  0.4600030000000  0.5322460000000  0.4105360000000 1.0
C      1  0.5360330000000  0.4181000000000  0.4604200000000 1.0
C      1  0.4125300000000  0.5430250000000  0.4615980000000 1.0
C      1  0.5919500000000  0.4587920000000  0.4674750000000 1.0
C      1  0.5850120000000  0.5418160000000  0.5360600000000 1.0
C      1  0.4601270000000  0.4658130000000  0.5909710000000 1.0
C      1  0.5407860000000  0.5354550000000  0.5907360000000 1.0
C      1  0.5406380000000  0.4634740000000  0.4061770000000 1.0
C      1  0.5344480000000  0.5899290000000  0.5395800000000 1.0
C      1  0.4649120000000  0.4100140000000  0.5383790000000 1.0
C      1  0.4662060000000  0.5908800000000  0.4612810000000 1.0
C      1  0.4898970000000  0.4247480000000  0.4333100000000 1.0
C      1  0.4247110000000  0.4314680000000  0.4878780000000 1.0
C      1  0.4325480000000  0.4870760000000  0.4223970000000 1.0
C      1  0.4882310000000  0.5766400000000  0.5668300000000 1.0
C      1  0.5118250000000  0.4254140000000  0.5655670000000 1.0
C      1  0.5109520000000  0.5736260000000  0.4334400000000 1.0
C      1  0.4245950000000  0.5666870000000  0.5101280000000 1.0
C      1  0.5778820000000  0.4327810000000  0.5127570000000 1.0
C      1  0.5744290000000  0.5667080000000  0.4890900000000 1.0
C      1  0.4336120000000  0.5123030000000  0.5749400000000 1.0
C      1  0.5674150000000  0.4887920000000  0.5772030000000 1.0
C      1  0.5671640000000  0.5094870000000  0.4252390000000 1.0
C      1  0.4980420000000  0.5061830000000  0.4039510000000 1.0
C      1  0.4980960000000  0.4943150000000  0.5972980000000 1.0
C      1  0.5078880000000  0.5991000000000  0.5021380000000 1.0
C      1  0.4075370000000  0.4977090000000  0.5070860000000 1.0
C      1  0.4934860000000  0.4033790000000  0.5017780000000 1.0
C      1  0.5982750000000  0.4970190000000  0.4922620000000 1.0
C      1  0.4406620000000  0.5603650000000  0.5589360000000 1.0
C      1  0.5596860000000  0.5590410000000  0.4403400000000 1.0
C      1  0.4409800000000  0.4401680000000  0.4403200000000 1.0
C      1  0.5601660000000  0.4411480000000  0.5590400000000 1.0
C      1  0.5061930000000  0.5032340000000  0.5046820000000 1.0
END
