TITL C-2441157-2117-322 0.00237317032376691 125000 -7418.1041612619 0 0 53 (C1) n - 1
REM
REM in /home/bkarasulu/work/CARBON/AIRSS/Generating-Clusters/ReaxFF-fromJPCA2015/Units_Real/with-SteepDescent/Higher-Symm
REM
REM
REM
REM
REM
REM ./C.cell (1df0a924f5614ab8850e4351716899ee)
REM
REM compiler GCC version 9.2.1 20190827 (Red Hat 9.2.1-1)
REM options -cpp -mtune=generic -march=x86-64 -g -O0 -fpre-include=/usr/include/finclude/math-vector-fortran.h
REM seed -147270959 -1526201561 1886591241 -317249501 -230548384 561081530 1784335409 -1097714916 1715610875 -915486226 -28029445 -783390658 -1451656926 420435691 -680029798 -1476316350 -117935794 100019543 955825721 1696112799 713317972 275165907 2022922512 2059330026 -1143835797 -367944967 1265038459 -1882704485 1259947297 669678651 1066829551 134968371 2082851047
REM
CELL 1.54180   50.00000   50.00000   50.00000   90.00000   90.00000   90.00000
LATT -1
SFAC C  
C      1  0.5716230000000  0.4975710000000  0.5163630000000 1.0
C      1  0.5218980000000  0.5714480000000  0.5168040000000 1.0
C      1  0.4406410000000  0.5377370000000  0.5160330000000 1.0
C      1  0.4435210000000  0.4658380000000  0.5225760000000 1.0
C      1  0.5167970000000  0.4283450000000  0.5161850000000 1.0
C      1  0.4524930000000  0.4877950000000  0.4470290000000 1.0
C      1  0.4954960000000  0.4502290000000  0.4420150000000 1.0
C      1  0.5427110000000  0.4831680000000  0.4480160000000 1.0
C      1  0.5308990000000  0.5373110000000  0.4466950000000 1.0
C      1  0.4722470000000  0.5433780000000  0.4444700000000 1.0
C      1  0.5161780000000  0.5217070000000  0.4284010000000 1.0
C      1  0.4840190000000  0.5240650000000  0.4283180000000 1.0
C      1  0.4732370000000  0.4947730000000  0.4278470000000 1.0
C      1  0.4962610000000  0.4759860000000  0.4261350000000 1.0
C      1  0.5218940000000  0.4909390000000  0.4281070000000 1.0
C      1  0.4763250000000  0.4905540000000  0.4919220000000 1.0
C      1  0.5008690000000  0.4782250000000  0.4836370000000 1.0
C      1  0.5241420000000  0.4906310000000  0.4976340000000 1.0
C      1  0.5163810000000  0.5192590000000  0.4992870000000 1.0
C      1  0.4886650000000  0.5165920000000  0.4884960000000 1.0
C      1  0.5607840000000  0.5246700000000  0.5151310000000 1.0
C      1  0.4922300000000  0.5724840000000  0.5146000000000 1.0
C      1  0.4242930000000  0.5225690000000  0.5005500000000 1.0
C      1  0.4578890000000  0.4437220000000  0.5115480000000 1.0
C      1  0.5399950000000  0.4400080000000  0.5069360000000 1.0
C      1  0.4782040000000  0.4303470000000  0.4992320000000 1.0
C      1  0.5599800000000  0.4550300000000  0.4993860000000 1.0
C      1  0.5590840000000  0.5439880000000  0.4935640000000 1.0
C      1  0.4747150000000  0.5663760000000  0.4925270000000 1.0
C      1  0.4199850000000  0.4977840000000  0.4950080000000 1.0
C      1  0.5395240000000  0.5650730000000  0.4941590000000 1.0
C      1  0.4510670000000  0.5523240000000  0.4942050000000 1.0
C      1  0.4309270000000  0.4722520000000  0.4957300000000 1.0
C      1  0.5044680000000  0.4259110000000  0.4893100000000 1.0
C      1  0.5722220000000  0.4794960000000  0.4931340000000 1.0
C      1  0.4792360000000  0.4634070000000  0.5400470000000 1.0
C      1  0.5270920000000  0.4844450000000  0.5278410000000 1.0
C      1  0.5322290000000  0.5257990000000  0.5252570000000 1.0
C      1  0.4881180000000  0.5582260000000  0.5381260000000 1.0
C      1  0.4535610000000  0.5208130000000  0.5376030000000 1.0
C      1  0.5326140000000  0.5397030000000  0.4778030000000 1.0
C      1  0.4731090000000  0.5419780000000  0.4769030000000 1.0
C      1  0.4528670000000  0.4815070000000  0.4765710000000 1.0
C      1  0.5033050000000  0.4491950000000  0.4702020000000 1.0
C      1  0.5490890000000  0.4870710000000  0.4763320000000 1.0
C      1  0.5544470000000  0.4849900000000  0.5385150000000 1.0
C      1  0.5289330000000  0.5519220000000  0.5399470000000 1.0
C      1  0.4738990000000  0.5392060000000  0.5535210000000 1.0
C      1  0.4513610000000  0.4920980000000  0.5381170000000 1.0
C      1  0.4983910000000  0.4427830000000  0.5369930000000 1.0
C      1  0.4993490000000  0.5004070000000  0.5676580000000 1.0
C      1  0.5002870000000  0.4855830000000  0.5465520000000 1.0
C      1  0.5023250000000  0.5031820000000  0.4626080000000 1.0
END
