TITL C-2441166-8118-1485 0.0394695461304063 125000 -17688.1496660244 0 0 125 (C1) n - 1
REM
REM in /home/bkarasulu/work/CARBON/AIRSS/Generating-Clusters/ReaxFF-fromJPCA2015/Units_Real/with-SteepDescent/Higher-Symm
REM
REM
REM
REM
REM
REM ./C.cell (1df0a924f5614ab8850e4351716899ee)
REM
REM compiler GCC version 9.2.1 20190827 (Red Hat 9.2.1-1)
REM options -cpp -mtune=generic -march=x86-64 -g -O0 -fpre-include=/usr/include/finclude/math-vector-fortran.h
REM seed 2131217019 -31391311 -2058445924 -821532579 -1468499045 -1896425733 2141252865 459411742 1712927749 -1800676639 1270973063 1946023885 -1544366828 -476012560 -1770235378 -1659400053 860149469 -1620857897 -1980794348 117568515 -1059359495 1103667543 2047485726 1157545897 1844555306 -996048952 1797922684 -645787706 -822257825 1329426747 176429313 1269967244 -245763033
REM
CELL 1.54180   50.00000   50.00000   50.00000   90.00000   90.00000   90.00000
LATT -1
SFAC C  
C      1  0.4050170000000  0.4692100000000  0.4817120000000 1.0
C      1  0.4418850000000  0.5690480000000  0.4799070000000 1.0
C      1  0.5541650000000  0.5782160000000  0.4846770000000 1.0
C      1  0.5920190000000  0.4730740000000  0.4794440000000 1.0
C      1  0.5033740000000  0.4069940000000  0.4785150000000 1.0
C      1  0.5354770000000  0.5157590000000  0.5114240000000 1.0
C      1  0.5296100000000  0.4677990000000  0.5212600000000 1.0
C      1  0.4794240000000  0.4772120000000  0.5175870000000 1.0
C      1  0.4721870000000  0.5056050000000  0.5213140000000 1.0
C      1  0.5005130000000  0.5459060000000  0.5207530000000 1.0
C      1  0.5622040000000  0.5611280000000  0.5077800000000 1.0
C      1  0.5788110000000  0.4593870000000  0.5009060000000 1.0
C      1  0.4875690000000  0.4132130000000  0.5032060000000 1.0
C      1  0.4088330000000  0.4867170000000  0.5052300000000 1.0
C      1  0.4617810000000  0.5750060000000  0.5007040000000 1.0
C      1  0.4391760000000  0.4320640000000  0.4934820000000 1.0
C      1  0.4220220000000  0.5342750000000  0.4913860000000 1.0
C      1  0.5068120000000  0.5889350000000  0.4897050000000 1.0
C      1  0.5909290000000  0.5207900000000  0.4922410000000 1.0
C      1  0.5450560000000  0.4277610000000  0.4878440000000 1.0
C      1  0.5080560000000  0.5637660000000  0.4299120000000 1.0
C      1  0.5542800000000  0.5111310000000  0.4123230000000 1.0
C      1  0.5261760000000  0.4488390000000  0.4170270000000 1.0
C      1  0.4458610000000  0.4597370000000  0.4224870000000 1.0
C      1  0.4490550000000  0.5160290000000  0.4198590000000 1.0
C      1  0.5213670000000  0.5139540000000  0.4362150000000 1.0
C      1  0.5217370000000  0.4870330000000  0.4476170000000 1.0
C      1  0.4956010000000  0.4769790000000  0.4384440000000 1.0
C      1  0.4766190000000  0.4971010000000  0.4467320000000 1.0
C      1  0.4926460000000  0.5209860000000  0.4375200000000 1.0
C      1  0.4734460000000  0.5537020000000  0.5146920000000 1.0
C      1  0.5449650000000  0.5536020000000  0.5298820000000 1.0
C      1  0.5560160000000  0.4763360000000  0.5127750000000 1.0
C      1  0.4969920000000  0.4323620000000  0.5236470000000 1.0
C      1  0.4345050000000  0.4783290000000  0.5165390000000 1.0
C      1  0.4626660000000  0.4760220000000  0.5825970000000 1.0
C      1  0.4619880000000  0.5321920000000  0.5828170000000 1.0
C      1  0.5152840000000  0.5417810000000  0.5901100000000 1.0
C      1  0.5441020000000  0.4982920000000  0.5847790000000 1.0
C      1  0.5108990000000  0.4552520000000  0.5806120000000 1.0
C      1  0.4783500000000  0.4343900000000  0.5489570000000 1.0
C      1  0.4274790000000  0.5025720000000  0.5610760000000 1.0
C      1  0.4836680000000  0.5691780000000  0.5601420000000 1.0
C      1  0.5542050000000  0.5395460000000  0.5556800000000 1.0
C      1  0.5565920000000  0.4558540000000  0.5615340000000 1.0
C      1  0.5163870000000  0.4330910000000  0.4408720000000 1.0
C      1  0.4381680000000  0.4605110000000  0.4515840000000 1.0
C      1  0.4462030000000  0.5386020000000  0.4407570000000 1.0
C      1  0.5306920000000  0.5674410000000  0.4457320000000 1.0
C      1  0.5743620000000  0.5020890000000  0.4477410000000 1.0
C      1  0.5664240000000  0.5266790000000  0.4328620000000 1.0
C      1  0.5470150000000  0.4623410000000  0.4263840000000 1.0
C      1  0.4673620000000  0.4436850000000  0.4278450000000 1.0
C      1  0.4370650000000  0.4904240000000  0.4203670000000 1.0
C      1  0.4841290000000  0.5605060000000  0.4165940000000 1.0
C      1  0.4610280000000  0.5805660000000  0.4602670000000 1.0
C      1  0.5711030000000  0.5614890000000  0.4673400000000 1.0
C      1  0.5809420000000  0.4544020000000  0.4606070000000 1.0
C      1  0.4789810000000  0.4103760000000  0.4626900000000 1.0
C      1  0.4055070000000  0.4933030000000  0.4649550000000 1.0
C      1  0.4568210000000  0.4757630000000  0.4988690000000 1.0
C      1  0.4671930000000  0.5272690000000  0.5033550000000 1.0
C      1  0.5199230000000  0.5379020000000  0.4995950000000 1.0
C      1  0.5448800000000  0.4951220000000  0.4947440000000 1.0
C      1  0.5058950000000  0.4604570000000  0.5053890000000 1.0
C      1  0.5788970000000  0.4693240000000  0.5696270000000 1.0
C      1  0.4901930000000  0.4140000000000  0.5708420000000 1.0
C      1  0.4155060000000  0.4792000000000  0.5685110000000 1.0
C      1  0.4561580000000  0.5778360000000  0.5677060000000 1.0
C      1  0.5556810000000  0.5681630000000  0.5751740000000 1.0
C      1  0.4249370000000  0.4486830000000  0.4746450000000 1.0
C      1  0.4334550000000  0.5441530000000  0.4667740000000 1.0
C      1  0.5282960000000  0.5817790000000  0.4726420000000 1.0
C      1  0.5883100000000  0.4998400000000  0.4723760000000 1.0
C      1  0.5252880000000  0.4227440000000  0.4669260000000 1.0
C      1  0.5746270000000  0.4972760000000  0.5326680000000 1.0
C      1  0.5227150000000  0.4216720000000  0.5392780000000 1.0
C      1  0.4327720000000  0.4570530000000  0.5377080000000 1.0
C      1  0.4257290000000  0.5460200000000  0.5469180000000 1.0
C      1  0.5284760000000  0.5772790000000  0.5343860000000 1.0
C      1  0.5512960000000  0.4338080000000  0.5423700000000 1.0
C      1  0.4496700000000  0.4340700000000  0.5436480000000 1.0
C      1  0.4184080000000  0.5209820000000  0.5408280000000 1.0
C      1  0.5028370000000  0.5843110000000  0.5439860000000 1.0
C      1  0.5746540000000  0.5168770000000  0.5549270000000 1.0
C      1  0.4428440000000  0.5507000000000  0.5707570000000 1.0
C      1  0.5324580000000  0.5636830000000  0.5877550000000 1.0
C      1  0.5723050000000  0.4962450000000  0.5770920000000 1.0
C      1  0.5150280000000  0.4283670000000  0.5710760000000 1.0
C      1  0.4375020000000  0.4653080000000  0.5763520000000 1.0
C      1  0.4080690000000  0.5096490000000  0.4875440000000 1.0
C      1  0.4785630000000  0.5879300000000  0.4827320000000 1.0
C      1  0.5794230000000  0.5464660000000  0.4900020000000 1.0
C      1  0.5697370000000  0.4391350000000  0.4828420000000 1.0
C      1  0.4634620000000  0.4177220000000  0.4867810000000 1.0
C      1  0.5431510000000  0.4241570000000  0.5169260000000 1.0
C      1  0.4339100000000  0.4341890000000  0.5214180000000 1.0
C      1  0.4310300000000  0.5361010000000  0.5201530000000 1.0
C      1  0.5114120000000  0.5917740000000  0.5179460000000 1.0
C      1  0.5899590000000  0.5126970000000  0.5190980000000 1.0
C      1  0.5105460000000  0.5233770000000  0.4761460000000 1.0
C      1  0.5224600000000  0.4928940000000  0.4756000000000 1.0
C      1  0.5008050000000  0.4730800000000  0.4792380000000 1.0
C      1  0.4757930000000  0.4899230000000  0.4762050000000 1.0
C      1  0.4825580000000  0.5197010000000  0.4796460000000 1.0
C      1  0.4898390000000  0.4824740000000  0.4093180000000 1.0
C      1  0.4724850000000  0.5079290000000  0.4034190000000 1.0
C      1  0.4887210000000  0.5316870000000  0.4098650000000 1.0
C      1  0.5287880000000  0.5013320000000  0.4076900000000 1.0
C      1  0.5164080000000  0.4744720000000  0.4013640000000 1.0
C      1  0.5355690000000  0.5246360000000  0.5768290000000 1.0
C      1  0.5319860000000  0.4731030000000  0.5730170000000 1.0
C      1  0.4851630000000  0.4617770000000  0.5692430000000 1.0
C      1  0.4576290000000  0.5041100000000  0.5731650000000 1.0
C      1  0.4881350000000  0.5441640000000  0.5771740000000 1.0
C      1  0.4873790000000  0.4270110000000  0.4389500000000 1.0
C      1  0.4267130000000  0.4862840000000  0.4472620000000 1.0
C      1  0.4621960000000  0.5618480000000  0.4376090000000 1.0
C      1  0.5564410000000  0.5520040000000  0.4446410000000 1.0
C      1  0.5663910000000  0.4734510000000  0.4425270000000 1.0
C      1  0.5238760000000  0.5103370000000  0.5362170000000 1.0
C      1  0.5198120000000  0.4827720000000  0.5435810000000 1.0
C      1  0.4906350000000  0.4809510000000  0.5469420000000 1.0
C      1  0.4804130000000  0.5080950000000  0.5485960000000 1.0
C      1  0.5030050000000  0.5283150000000  0.5437370000000 1.0
END
