TITL C-2441163-1170-50 0.135987774369634 125000 -16329.6254281784 0 0 137 (C1) n - 1
REM
REM in /home/bkarasulu/work/CARBON/AIRSS/Generating-Clusters/ReaxFF-fromJPCA2015/Units_Real/with-SteepDescent/Higher-Symm
REM
REM
REM
REM
REM
REM ./C.cell (1df0a924f5614ab8850e4351716899ee)
REM
REM compiler GCC version 9.2.1 20190827 (Red Hat 9.2.1-1)
REM options -cpp -mtune=generic -march=x86-64 -g -O0 -fpre-include=/usr/include/finclude/math-vector-fortran.h
REM seed 122915910 556162894 -1344336379 -577615080 -1905094082 1286730124 -1521942121 2122012744 -1450952377 1957261608 1942747986 -569352223 -1822379479 -1796474941 -630992709 -1150064818 1831810311 -445598258 663437342 1538812750 -741824617 -606617948 601746635 -744254591 1656746097 -1330039522 869948551 129218003 -1897206113 -1052692712 834209696 603285954 -1596753201
REM
CELL 1.54180   50.00000   50.00000   50.00000   90.00000   90.00000   90.00000
LATT -1
SFAC C  
C      1  0.4255210000000  0.5227720000000  0.4559970000000 1.0
C      1  0.4227970000000  0.5490390000000  0.4855990000000 1.0
C      1  0.4348730000000  0.5328030000000  0.5204550000000 1.0
C      1  0.4357300000000  0.4982950000000  0.5468930000000 1.0
C      1  0.4247750000000  0.4641360000000  0.5284180000000 1.0
C      1  0.4283200000000  0.4522450000000  0.4904610000000 1.0
C      1  0.4296600000000  0.4829110000000  0.4610120000000 1.0
C      1  0.4525420000000  0.5581960000000  0.5653850000000 1.0
C      1  0.4538140000000  0.4845110000000  0.5860800000000 1.0
C      1  0.4520780000000  0.4209020000000  0.5412170000000 1.0
C      1  0.4540280000000  0.4194550000000  0.4665150000000 1.0
C      1  0.4527140000000  0.4745720000000  0.4135630000000 1.0
C      1  0.4537020000000  0.5518920000000  0.4271950000000 1.0
C      1  0.4543170000000  0.5836400000000  0.4951380000000 1.0
C      1  0.4973120000000  0.5279580000000  0.4945850000000 1.0
C      1  0.5082600000000  0.5174250000000  0.5196440000000 1.0
C      1  0.4965150000000  0.4909570000000  0.5359710000000 1.0
C      1  0.4978700000000  0.4629110000000  0.5149370000000 1.0
C      1  0.4934820000000  0.4701460000000  0.4871260000000 1.0
C      1  0.5118380000000  0.4865270000000  0.4745940000000 1.0
C      1  0.5047530000000  0.5172750000000  0.4691430000000 1.0
C      1  0.4184270000000  0.5539660000000  0.5109670000000 1.0
C      1  0.4213770000000  0.5233150000000  0.5467260000000 1.0
C      1  0.4171300000000  0.4762770000000  0.5525620000000 1.0
C      1  0.4131940000000  0.4439340000000  0.5127450000000 1.0
C      1  0.4186730000000  0.4571810000000  0.4650000000000 1.0
C      1  0.4160390000000  0.4999270000000  0.4424170000000 1.0
C      1  0.4133180000000  0.5475180000000  0.4601010000000 1.0
C      1  0.4885470000000  0.4278190000000  0.4341940000000 1.0
C      1  0.4839260000000  0.5071730000000  0.4032420000000 1.0
C      1  0.4861430000000  0.5799680000000  0.4470290000000 1.0
C      1  0.4865140000000  0.5930760000000  0.5296700000000 1.0
C      1  0.4810530000000  0.5336050000000  0.5837960000000 1.0
C      1  0.4859570000000  0.4516880000000  0.5808030000000 1.0
C      1  0.4914980000000  0.4044090000000  0.5134260000000 1.0
C      1  0.5475140000000  0.5820340000000  0.5241590000000 1.0
C      1  0.5531840000000  0.5319880000000  0.5792940000000 1.0
C      1  0.5442540000000  0.4568980000000  0.5769970000000 1.0
C      1  0.5487290000000  0.4126330000000  0.5147210000000 1.0
C      1  0.5488900000000  0.4363690000000  0.4422720000000 1.0
C      1  0.5466950000000  0.5047620000000  0.4151950000000 1.0
C      1  0.5481870000000  0.5688860000000  0.4504660000000 1.0
C      1  0.5190280000000  0.5370450000000  0.4292000000000 1.0
C      1  0.5181840000000  0.5754990000000  0.4859370000000 1.0
C      1  0.5170780000000  0.5578680000000  0.5505150000000 1.0
C      1  0.5204350000000  0.5001360000000  0.5784460000000 1.0
C      1  0.5181320000000  0.4378060000000  0.5454730000000 1.0
C      1  0.5174850000000  0.4267190000000  0.4799170000000 1.0
C      1  0.5183090000000  0.4698830000000  0.4304450000000 1.0
C      1  0.5450920000000  0.4489930000000  0.5474450000000 1.0
C      1  0.5450110000000  0.4281200000000  0.4891240000000 1.0
C      1  0.5450000000000  0.4654350000000  0.4397830000000 1.0
C      1  0.5445010000000  0.5266030000000  0.4344160000000 1.0
C      1  0.5451860000000  0.5694880000000  0.4796960000000 1.0
C      1  0.5439800000000  0.5576350000000  0.5399790000000 1.0
C      1  0.5463050000000  0.5033110000000  0.5685160000000 1.0
C      1  0.5158580000000  0.4218970000000  0.4323000000000 1.0
C      1  0.5109340000000  0.5030930000000  0.3967940000000 1.0
C      1  0.5122740000000  0.5828000000000  0.4380470000000 1.0
C      1  0.5125660000000  0.6014450000000  0.5250530000000 1.0
C      1  0.5290290000000  0.5396590000000  0.5915620000000 1.0
C      1  0.5152790000000  0.4603430000000  0.5784310000000 1.0
C      1  0.5201400000000  0.4072830000000  0.5196290000000 1.0
C      1  0.5835460000000  0.4468740000000  0.5234320000000 1.0
C      1  0.5825740000000  0.4532410000000  0.4747060000000 1.0
C      1  0.5857370000000  0.4904930000000  0.4389030000000 1.0
C      1  0.5827900000000  0.5337980000000  0.4595340000000 1.0
C      1  0.5858250000000  0.5611790000000  0.5044970000000 1.0
C      1  0.5821390000000  0.5304710000000  0.5403270000000 1.0
C      1  0.5838280000000  0.4808960000000  0.5550980000000 1.0
C      1  0.4931440000000  0.5320420000000  0.4209760000000 1.0
C      1  0.4918150000000  0.5791170000000  0.4774920000000 1.0
C      1  0.4904050000000  0.5654550000000  0.5436700000000 1.0
C      1  0.4942760000000  0.5070070000000  0.5882230000000 1.0
C      1  0.4927720000000  0.4349090000000  0.5565630000000 1.0
C      1  0.4927010000000  0.4158610000000  0.4856490000000 1.0
C      1  0.4936690000000  0.4575520000000  0.4264510000000 1.0
C      1  0.4591780000000  0.4616440000000  0.5677690000000 1.0
C      1  0.4551500000000  0.4381930000000  0.5159070000000 1.0
C      1  0.4576530000000  0.4472510000000  0.4622740000000 1.0
C      1  0.4562590000000  0.4984690000000  0.4308960000000 1.0
C      1  0.4562950000000  0.5491430000000  0.4557930000000 1.0
C      1  0.4557740000000  0.5695680000000  0.5206750000000 1.0
C      1  0.4560990000000  0.5284050000000  0.5685910000000 1.0
C      1  0.4643780000000  0.5427350000000  0.5228750000000 1.0
C      1  0.4648780000000  0.4885910000000  0.5326540000000 1.0
C      1  0.4705070000000  0.4608190000000  0.5251110000000 1.0
C      1  0.4677280000000  0.4708380000000  0.4754170000000 1.0
C      1  0.4574640000000  0.4948930000000  0.4602500000000 1.0
C      1  0.4644560000000  0.5247310000000  0.4684180000000 1.0
C      1  0.4713980000000  0.5284130000000  0.4971260000000 1.0
C      1  0.5450890000000  0.4611500000000  0.4980890000000 1.0
C      1  0.5392120000000  0.4740900000000  0.4715450000000 1.0
C      1  0.5331100000000  0.5230720000000  0.4673650000000 1.0
C      1  0.5395510000000  0.5381010000000  0.4916290000000 1.0
C      1  0.5361150000000  0.5297440000000  0.5205540000000 1.0
C      1  0.5453260000000  0.4998070000000  0.5357440000000 1.0
C      1  0.5409580000000  0.4727110000000  0.5256410000000 1.0
C      1  0.5815580000000  0.5416000000000  0.4866570000000 1.0
C      1  0.5847670000000  0.5336490000000  0.5126520000000 1.0
C      1  0.5742460000000  0.5027290000000  0.5396520000000 1.0
C      1  0.5924930000000  0.4720400000000  0.5302140000000 1.0
C      1  0.5743310000000  0.4610300000000  0.5005860000000 1.0
C      1  0.5875540000000  0.4779220000000  0.4623040000000 1.0
C      1  0.5853330000000  0.5058100000000  0.4628600000000 1.0
C      1  0.4807670000000  0.4761830000000  0.4068770000000 1.0
C      1  0.4813080000000  0.5589990000000  0.4251710000000 1.0
C      1  0.4805410000000  0.5949050000000  0.4999850000000 1.0
C      1  0.4800700000000  0.5617610000000  0.5712650000000 1.0
C      1  0.4808000000000  0.4826230000000  0.5949560000000 1.0
C      1  0.4799240000000  0.4147170000000  0.5395800000000 1.0
C      1  0.4803860000000  0.4136380000000  0.4593650000000 1.0
C      1  0.5128790000000  0.5373780000000  0.5685350000000 1.0
C      1  0.5111790000000  0.4811960000000  0.5593090000000 1.0
C      1  0.5148850000000  0.4361500000000  0.5191900000000 1.0
C      1  0.5226520000000  0.4366210000000  0.4552790000000 1.0
C      1  0.5221010000000  0.4948550000000  0.4211320000000 1.0
C      1  0.5235150000000  0.5587050000000  0.4450200000000 1.0
C      1  0.5230800000000  0.5788600000000  0.5126170000000 1.0
C      1  0.5634440000000  0.4828680000000  0.4233930000000 1.0
C      1  0.5646420000000  0.5468740000000  0.4413450000000 1.0
C      1  0.5642870000000  0.5795370000000  0.5009140000000 1.0
C      1  0.5650830000000  0.5462440000000  0.5570380000000 1.0
C      1  0.5626770000000  0.4786790000000  0.5746120000000 1.0
C      1  0.5637510000000  0.4286460000000  0.5330990000000 1.0
C      1  0.5646180000000  0.4328580000000  0.4663470000000 1.0
C      1  0.4335220000000  0.4352600000000  0.4535050000000 1.0
C      1  0.4309990000000  0.4940330000000  0.4177130000000 1.0
C      1  0.4332360000000  0.5612280000000  0.4449890000000 1.0
C      1  0.4311270000000  0.5778500000000  0.5124590000000 1.0
C      1  0.4296410000000  0.5405750000000  0.5688260000000 1.0
C      1  0.4323250000000  0.4667770000000  0.5763920000000 1.0
C      1  0.4314340000000  0.4229520000000  0.5216100000000 1.0
C      1  0.5250060000000  0.4977350000000  0.4997490000000 1.0
C      1  0.4592680000000  0.4968850000000  0.5031180000000 1.0
C      1  0.4326830000000  0.5060100000000  0.5014420000000 1.0
C      1  0.5534140000000  0.5002980000000  0.4931820000000 1.0
END
