TITL C-2441164-471-68 0.0579873761356401 125000 -26653.719122071 0 0 183 (C1) n - 1
REM
REM in /home/bkarasulu/work/CARBON/AIRSS/Generating-Clusters/ReaxFF-fromJPCA2015/Units_Real/with-SteepDescent/Higher-Symm
REM
REM
REM
REM
REM
REM ./C.cell (1df0a924f5614ab8850e4351716899ee)
REM
REM compiler GCC version 9.2.1 20190827 (Red Hat 9.2.1-1)
REM options -cpp -mtune=generic -march=x86-64 -g -O0 -fpre-include=/usr/include/finclude/math-vector-fortran.h
REM seed 1457544127 -2113448308 -729593752 1400324571 -869618033 -462010663 -2094955526 -1828683114 -394484038 615113765 -1922005675 1763066244 -166253828 513904709 1315893425 -565149165 -1261283520 1432024863 -1105772532 -380248713 1642746917 500569452 -576238106 841979291 -1653803917 2013587499 -387827364 1760162530 1397432851 -1178814697 1617789481 949696011 -1178497087
REM
CELL 1.54180   50.00000   50.00000   50.00000   90.00000   90.00000   90.00000
LATT -1
SFAC C  
C      1  0.5515500000000  0.4989940000000  0.5540170000000 1.0
C      1  0.5487830000000  0.4972880000000  0.4440800000000 1.0
C      1  0.4517000000000  0.5042640000000  0.5530780000000 1.0
C      1  0.4520110000000  0.4955540000000  0.4461650000000 1.0
C      1  0.5842620000000  0.4351880000000  0.5343940000000 1.0
C      1  0.5841240000000  0.5643920000000  0.4651670000000 1.0
C      1  0.4173060000000  0.5640640000000  0.5353240000000 1.0
C      1  0.4157920000000  0.4376450000000  0.4632860000000 1.0
C      1  0.4249660000000  0.5124500000000  0.4484280000000 1.0
C      1  0.4254840000000  0.4870100000000  0.5480760000000 1.0
C      1  0.5767880000000  0.4853370000000  0.4470570000000 1.0
C      1  0.5767350000000  0.5150710000000  0.5504230000000 1.0
C      1  0.4940790000000  0.5513100000000  0.4529430000000 1.0
C      1  0.4983890000000  0.4472190000000  0.5506740000000 1.0
C      1  0.4999780000000  0.4481000000000  0.4589800000000 1.0
C      1  0.4988320000000  0.5543400000000  0.5434540000000 1.0
C      1  0.5331140000000  0.6011220000000  0.4840370000000 1.0
C      1  0.5307620000000  0.3981230000000  0.5157550000000 1.0
C      1  0.4703260000000  0.3930370000000  0.4827770000000 1.0
C      1  0.4714510000000  0.6018950000000  0.5117480000000 1.0
C      1  0.4422860000000  0.6071190000000  0.5211200000000 1.0
C      1  0.4403420000000  0.3959540000000  0.4755870000000 1.0
C      1  0.5602800000000  0.3929710000000  0.5216330000000 1.0
C      1  0.5616620000000  0.6081490000000  0.4792760000000 1.0
C      1  0.5693320000000  0.4121220000000  0.5421880000000 1.0
C      1  0.5708190000000  0.5890520000000  0.4586590000000 1.0
C      1  0.4360320000000  0.5850160000000  0.5418230000000 1.0
C      1  0.4362470000000  0.4195140000000  0.4573650000000 1.0
C      1  0.4214240000000  0.5484220000000  0.5092970000000 1.0
C      1  0.4094060000000  0.4423410000000  0.4903630000000 1.0
C      1  0.5780190000000  0.4491940000000  0.5077460000000 1.0
C      1  0.5780280000000  0.5504700000000  0.4912190000000 1.0
C      1  0.5969750000000  0.4507470000000  0.4633390000000 1.0
C      1  0.5973190000000  0.5483540000000  0.5350650000000 1.0
C      1  0.4031890000000  0.5482160000000  0.4633880000000 1.0
C      1  0.4038710000000  0.4525150000000  0.5349160000000 1.0
C      1  0.4722910000000  0.4525570000000  0.5738460000000 1.0
C      1  0.4713700000000  0.5471270000000  0.4258710000000 1.0
C      1  0.5381150000000  0.5530950000000  0.5860800000000 1.0
C      1  0.5336300000000  0.4515750000000  0.4165230000000 1.0
C      1  0.4724850000000  0.4208410000000  0.4860990000000 1.0
C      1  0.4674750000000  0.5746710000000  0.5194640000000 1.0
C      1  0.5359890000000  0.5736280000000  0.4747050000000 1.0
C      1  0.5331310000000  0.4253080000000  0.5253250000000 1.0
C      1  0.5122560000000  0.3932960000000  0.4930140000000 1.0
C      1  0.5144250000000  0.6076940000000  0.5059680000000 1.0
C      1  0.4909750000000  0.6058790000000  0.4885730000000 1.0
C      1  0.4870610000000  0.3887970000000  0.5081450000000 1.0
C      1  0.4506720000000  0.4467890000000  0.4210690000000 1.0
C      1  0.4505720000000  0.5527820000000  0.5791040000000 1.0
C      1  0.5504380000000  0.5566160000000  0.4248230000000 1.0
C      1  0.5504820000000  0.4464570000000  0.5783350000000 1.0
C      1  0.4903640000000  0.4749620000000  0.4049660000000 1.0
C      1  0.4785810000000  0.5172670000000  0.6022350000000 1.0
C      1  0.5248180000000  0.5275400000000  0.3940090000000 1.0
C      1  0.5215130000000  0.4795310000000  0.6025310000000 1.0
C      1  0.5264710000000  0.5495900000000  0.4858470000000 1.0
C      1  0.5262810000000  0.4480150000000  0.5099100000000 1.0
C      1  0.4829930000000  0.4435660000000  0.4972800000000 1.0
C      1  0.4818270000000  0.5554400000000  0.5048600000000 1.0
C      1  0.4565140000000  0.4360070000000  0.4464310000000 1.0
C      1  0.4560170000000  0.5722940000000  0.5582670000000 1.0
C      1  0.5463750000000  0.5771960000000  0.4468960000000 1.0
C      1  0.5452080000000  0.4257190000000  0.5551250000000 1.0
C      1  0.5741020000000  0.5624000000000  0.5196990000000 1.0
C      1  0.5747830000000  0.4378350000000  0.4785730000000 1.0
C      1  0.4204030000000  0.4362240000000  0.5171120000000 1.0
C      1  0.4244730000000  0.5616780000000  0.4796070000000 1.0
C      1  0.5176500000000  0.5940760000000  0.5325890000000 1.0
C      1  0.5142780000000  0.4096710000000  0.4677550000000 1.0
C      1  0.4812410000000  0.4061990000000  0.5315770000000 1.0
C      1  0.4904700000000  0.5980780000000  0.4594680000000 1.0
C      1  0.4493230000000  0.5485380000000  0.4691810000000 1.0
C      1  0.4503710000000  0.4490110000000  0.5268310000000 1.0
C      1  0.5500180000000  0.4463080000000  0.4653630000000 1.0
C      1  0.5488470000000  0.5548440000000  0.5341210000000 1.0
C      1  0.5502520000000  0.5319490000000  0.4882320000000 1.0
C      1  0.5494430000000  0.4675350000000  0.5113950000000 1.0
C      1  0.4472420000000  0.4850910000000  0.4899210000000 1.0
C      1  0.4433460000000  0.5274950000000  0.5105200000000 1.0
C      1  0.4790570000000  0.5127260000000  0.4802070000000 1.0
C      1  0.4858270000000  0.4827240000000  0.5219250000000 1.0
C      1  0.5178730000000  0.4856350000000  0.4780600000000 1.0
C      1  0.5161190000000  0.5145820000000  0.5210820000000 1.0
C      1  0.3913400000000  0.4735510000000  0.5200930000000 1.0
C      1  0.3911590000000  0.5272610000000  0.4789830000000 1.0
C      1  0.6099280000000  0.5280400000000  0.5187630000000 1.0
C      1  0.6081750000000  0.4729380000000  0.4781280000000 1.0
C      1  0.4101570000000  0.5422010000000  0.5519290000000 1.0
C      1  0.4117440000000  0.4606400000000  0.4472200000000 1.0
C      1  0.5902070000000  0.4583730000000  0.5509160000000 1.0
C      1  0.5886380000000  0.5411970000000  0.4483550000000 1.0
C      1  0.4279680000000  0.4077840000000  0.5280590000000 1.0
C      1  0.4277200000000  0.5924930000000  0.4704540000000 1.0
C      1  0.5714260000000  0.5928420000000  0.5288720000000 1.0
C      1  0.5722420000000  0.4065000000000  0.4700400000000 1.0
C      1  0.5393720000000  0.4794290000000  0.5368590000000 1.0
C      1  0.5392760000000  0.5203330000000  0.4597030000000 1.0
C      1  0.4597660000000  0.5251300000000  0.5338130000000 1.0
C      1  0.4549600000000  0.4712250000000  0.4657100000000 1.0
C      1  0.5703410000000  0.5357030000000  0.4262910000000 1.0
C      1  0.5729090000000  0.4638610000000  0.5747560000000 1.0
C      1  0.4289210000000  0.4654780000000  0.4234870000000 1.0
C      1  0.4275770000000  0.5362250000000  0.5748270000000 1.0
C      1  0.5133250000000  0.4657880000000  0.5324170000000 1.0
C      1  0.5142910000000  0.5340230000000  0.4654140000000 1.0
C      1  0.4858930000000  0.5353680000000  0.5263320000000 1.0
C      1  0.4821140000000  0.4642020000000  0.4753680000000 1.0
C      1  0.4437920000000  0.4133830000000  0.5528880000000 1.0
C      1  0.4429330000000  0.5863960000000  0.4465390000000 1.0
C      1  0.5579110000000  0.5899380000000  0.5544700000000 1.0
C      1  0.5577200000000  0.4113770000000  0.4450330000000 1.0
C      1  0.5074880000000  0.5786760000000  0.4457090000000 1.0
C      1  0.5158800000000  0.4263320000000  0.5624000000000 1.0
C      1  0.4841400000000  0.4268740000000  0.4456680000000 1.0
C      1  0.4837560000000  0.5727170000000  0.5589690000000 1.0
C      1  0.4332170000000  0.6035370000000  0.4951860000000 1.0
C      1  0.4337670000000  0.3990570000000  0.5025600000000 1.0
C      1  0.5665670000000  0.3962040000000  0.4947290000000 1.0
C      1  0.5726950000000  0.6124030000000  0.5068710000000 1.0
C      1  0.4836180000000  0.5047120000000  0.4536300000000 1.0
C      1  0.4828910000000  0.4946200000000  0.5496670000000 1.0
C      1  0.5101220000000  0.4943480000000  0.4518240000000 1.0
C      1  0.5094460000000  0.5070930000000  0.5506620000000 1.0
C      1  0.4454590000000  0.4882810000000  0.4207450000000 1.0
C      1  0.4381350000000  0.5102570000000  0.5781130000000 1.0
C      1  0.5592040000000  0.5089510000000  0.4183990000000 1.0
C      1  0.5623520000000  0.4908070000000  0.5806110000000 1.0
C      1  0.4709330000000  0.4063610000000  0.5593050000000 1.0
C      1  0.4695630000000  0.5930420000000  0.4388690000000 1.0
C      1  0.5296490000000  0.5946030000000  0.5596150000000 1.0
C      1  0.5293790000000  0.4074200000000  0.4424130000000 1.0
C      1  0.5372060000000  0.5277750000000  0.5955190000000 1.0
C      1  0.5203970000000  0.4759820000000  0.4075690000000 1.0
C      1  0.4720430000000  0.4763900000000  0.5932840000000 1.0
C      1  0.4738980000000  0.5233220000000  0.4056750000000 1.0
C      1  0.6030020000000  0.4778050000000  0.5329990000000 1.0
C      1  0.6015600000000  0.5223610000000  0.4662670000000 1.0
C      1  0.3966610000000  0.5241060000000  0.5330960000000 1.0
C      1  0.3983590000000  0.4780270000000  0.4654200000000 1.0
C      1  0.4764950000000  0.4498290000000  0.4073540000000 1.0
C      1  0.4751260000000  0.5447020000000  0.5927520000000 1.0
C      1  0.5277320000000  0.5545470000000  0.4078930000000 1.0
C      1  0.5272370000000  0.4515860000000  0.5944200000000 1.0
C      1  0.5433800000000  0.4879680000000  0.4920240000000 1.0
C      1  0.5425540000000  0.5115400000000  0.5084750000000 1.0
C      1  0.4522520000000  0.5138400000000  0.4882420000000 1.0
C      1  0.4582210000000  0.4735730000000  0.5141520000000 1.0
C      1  0.4799670000000  0.4252010000000  0.5819840000000 1.0
C      1  0.4784280000000  0.5741210000000  0.4171210000000 1.0
C      1  0.5202400000000  0.5756680000000  0.5815890000000 1.0
C      1  0.5211670000000  0.4259570000000  0.4192190000000 1.0
C      1  0.6011070000000  0.5067410000000  0.5368420000000 1.0
C      1  0.5991130000000  0.4953910000000  0.4622860000000 1.0
C      1  0.4012170000000  0.4959230000000  0.5359220000000 1.0
C      1  0.4016010000000  0.5052680000000  0.4629350000000 1.0
C      1  0.5571130000000  0.4431290000000  0.4375390000000 1.0
C      1  0.5588430000000  0.5589070000000  0.5612040000000 1.0
C      1  0.4440730000000  0.5555920000000  0.4400070000000 1.0
C      1  0.4449380000000  0.4434410000000  0.5589230000000 1.0
C      1  0.6004510000000  0.5326460000000  0.4919730000000 1.0
C      1  0.6009370000000  0.4680140000000  0.5058280000000 1.0
C      1  0.3951960000000  0.4666470000000  0.4917090000000 1.0
C      1  0.3964870000000  0.5338040000000  0.5063600000000 1.0
C      1  0.4197090000000  0.5390660000000  0.4416720000000 1.0
C      1  0.4206550000000  0.4602900000000  0.5565060000000 1.0
C      1  0.5821690000000  0.4579790000000  0.4400430000000 1.0
C      1  0.5820160000000  0.5419360000000  0.5582650000000 1.0
C      1  0.5234300000000  0.4389970000000  0.4760870000000 1.0
C      1  0.5221130000000  0.5651040000000  0.5295330000000 1.0
C      1  0.4760480000000  0.5543060000000  0.4763690000000 1.0
C      1  0.4799950000000  0.4361930000000  0.5268110000000 1.0
C      1  0.4922680000000  0.4272730000000  0.4173950000000 1.0
C      1  0.4926160000000  0.5680520000000  0.5861420000000 1.0
C      1  0.5074590000000  0.5742440000000  0.4164000000000 1.0
C      1  0.5080290000000  0.4286900000000  0.5898530000000 1.0
C      1  0.4555550000000  0.5004790000000  0.5970860000000 1.0
C      1  0.4676810000000  0.4941380000000  0.4049130000000 1.0
C      1  0.5424730000000  0.5005640000000  0.6008340000000 1.0
C      1  0.5365660000000  0.5009860000000  0.4015350000000 1.0
C      1  0.4989750000000  0.5192800000000  0.3962000000000 1.0
C      1  0.4954460000000  0.4912780000000  0.6007560000000 1.0
C      1  0.4984040000000  0.4999750000000  0.4983910000000 1.0
END
