TITL C-2441164-471-1386 0.00170724608311276 125000 -6786.7218172773 0 0 47 (C1) n - 1
REM
REM in /home/bkarasulu/work/CARBON/AIRSS/Generating-Clusters/ReaxFF-fromJPCA2015/Units_Real/with-SteepDescent/Higher-Symm
REM
REM
REM
REM
REM
REM ./C.cell (1df0a924f5614ab8850e4351716899ee)
REM
REM compiler GCC version 9.2.1 20190827 (Red Hat 9.2.1-1)
REM options -cpp -mtune=generic -march=x86-64 -g -O0 -fpre-include=/usr/include/finclude/math-vector-fortran.h
REM seed 1400711035 1425518860 -405699574 -1371855952 1315228304 -177186349 -2130654999 466370935 -1043814375 499224409 -967310778 -77734283 824845049 -1215660252 -1195918107 414999612 -3798702 -57095392 -380355585 -1580952617 1914630951 -58091654 475668714 321697091 1246931266 -1746720694 287114569 -2046430872 130097296 -1694291100 -421196067 2124003133 -710392378
REM
CELL 1.54180   50.00000   50.00000   50.00000   90.00000   90.00000   90.00000
LATT -1
SFAC C  
C      1  0.4778430000000  0.5472600000000  0.4595540000000 1.0
C      1  0.4792930000000  0.4873760000000  0.4408790000000 1.0
C      1  0.4827090000000  0.4428710000000  0.4973320000000 1.0
C      1  0.4790950000000  0.4868830000000  0.5598690000000 1.0
C      1  0.4804160000000  0.5525850000000  0.5306040000000 1.0
C      1  0.5267010000000  0.5436830000000  0.5408550000000 1.0
C      1  0.5262840000000  0.4723720000000  0.5526190000000 1.0
C      1  0.5295650000000  0.4380140000000  0.4891670000000 1.0
C      1  0.5213960000000  0.4844930000000  0.4410740000000 1.0
C      1  0.5190420000000  0.5523250000000  0.4681390000000 1.0
C      1  0.5398900000000  0.5424670000000  0.4856680000000 1.0
C      1  0.5461270000000  0.4939240000000  0.4525870000000 1.0
C      1  0.5536230000000  0.4509190000000  0.4843850000000 1.0
C      1  0.5477270000000  0.4658670000000  0.5337150000000 1.0
C      1  0.5468800000000  0.5228480000000  0.5367370000000 1.0
C      1  0.4544070000000  0.5430340000000  0.5193720000000 1.0
C      1  0.4517900000000  0.4940590000000  0.5502630000000 1.0
C      1  0.4397820000000  0.4673280000000  0.5110790000000 1.0
C      1  0.4535140000000  0.4747850000000  0.4709050000000 1.0
C      1  0.4560900000000  0.5286380000000  0.4658970000000 1.0
C      1  0.5446430000000  0.4936210000000  0.5427560000000 1.0
C      1  0.5423610000000  0.5427450000000  0.5153890000000 1.0
C      1  0.5528320000000  0.5184950000000  0.4722770000000 1.0
C      1  0.5594240000000  0.4771780000000  0.4730070000000 1.0
C      1  0.5466840000000  0.4477130000000  0.5106610000000 1.0
C      1  0.4567450000000  0.4979840000000  0.4557180000000 1.0
C      1  0.4524030000000  0.5374720000000  0.4918090000000 1.0
C      1  0.4442360000000  0.5159760000000  0.5278450000000 1.0
C      1  0.4487960000000  0.4692990000000  0.5384160000000 1.0
C      1  0.4564910000000  0.4535480000000  0.4886620000000 1.0
C      1  0.5023500000000  0.5293860000000  0.4531700000000 1.0
C      1  0.5018740000000  0.4673740000000  0.4589410000000 1.0
C      1  0.4949500000000  0.4552090000000  0.5213240000000 1.0
C      1  0.4972940000000  0.5087900000000  0.5509940000000 1.0
C      1  0.4966610000000  0.5535750000000  0.5066210000000 1.0
C      1  0.4986800000000  0.5383960000000  0.5486190000000 1.0
C      1  0.4973390000000  0.4660860000000  0.5489320000000 1.0
C      1  0.5037000000000  0.4436280000000  0.4774620000000 1.0
C      1  0.5013440000000  0.5043180000000  0.4343970000000 1.0
C      1  0.4942420000000  0.5627450000000  0.4788160000000 1.0
C      1  0.5015540000000  0.4800020000000  0.5086350000000 1.0
C      1  0.5025720000000  0.5126840000000  0.4785320000000 1.0
C      1  0.5021160000000  0.4857970000000  0.4814620000000 1.0
C      1  0.5022720000000  0.5248480000000  0.5034090000000 1.0
C      1  0.5021350000000  0.5043010000000  0.5227100000000 1.0
C      1  0.5638930000000  0.4999490000000  0.4887010000000 1.0
C      1  0.4390050000000  0.4961000000000  0.5102140000000 1.0
END
