TITL C-2441161-5029-1398 0.00438519994182411 125000 -2615.2913373928 0 0 21 (C1) n - 1
REM
REM in /home/bkarasulu/work/CARBON/AIRSS/Generating-Clusters/ReaxFF-fromJPCA2015/Units_Real/with-SteepDescent/Higher-Symm
REM
REM
REM
REM
REM
REM ./C.cell (1df0a924f5614ab8850e4351716899ee)
REM
REM compiler GCC version 9.2.1 20190827 (Red Hat 9.2.1-1)
REM options -cpp -mtune=generic -march=x86-64 -g -O0 -fpre-include=/usr/include/finclude/math-vector-fortran.h
REM seed -408934552 -747639994 -340079056 -1909170998 2047069324 -385399347 -273780880 1355928282 1877382121 252947480 -769921044 -1905454632 -1098345186 -2044821781 -459402836 -907356022 -584709922 871859920 309841608 -1811235219 -1634489733 1166359874 728350398 -362968637 -1133823611 -1009454614 -2007495365 -1131024555 -58370893 -1108860772 -2135497656 1096207287 -1764065615
REM
CELL 1.54180   50.00000   50.00000   50.00000   90.00000   90.00000   90.00000
LATT -1
SFAC C  
C      1  0.4588070000000  0.5178510000000  0.4832380000000 1.0
C      1  0.5380890000000  0.4789970000000  0.5254410000000 1.0
C      1  0.5019080000000  0.5456060000000  0.5278640000000 1.0
C      1  0.4932660000000  0.4572850000000  0.4693700000000 1.0
C      1  0.5096140000000  0.5215220000000  0.5429080000000 1.0
C      1  0.4943660000000  0.4845420000000  0.4608460000000 1.0
C      1  0.4785920000000  0.4432730000000  0.4889500000000 1.0
C      1  0.5275990000000  0.5676840000000  0.5035670000000 1.0
C      1  0.4491360000000  0.4819880000000  0.5167890000000 1.0
C      1  0.5597280000000  0.5220020000000  0.4714960000000 1.0
C      1  0.4531530000000  0.5124400000000  0.5162050000000 1.0
C      1  0.5454210000000  0.4984620000000  0.4746340000000 1.0
C      1  0.4630620000000  0.5407880000000  0.4732430000000 1.0
C      1  0.5434150000000  0.4555030000000  0.5235200000000 1.0
C      1  0.5269800000000  0.5461440000000  0.5151710000000 1.0
C      1  0.4613030000000  0.4708590000000  0.4925010000000 1.0
C      1  0.4881610000000  0.5182530000000  0.5220200000000 1.0
C      1  0.5151140000000  0.4916110000000  0.4799890000000 1.0
C      1  0.5289740000000  0.5061110000000  0.5256220000000 1.0
C      1  0.4679980000000  0.4906930000000  0.4726520000000 1.0
C      1  0.5067350000000  0.4997620000000  0.5067030000000 1.0
END
