TITL C-2441164-471-650 0.104378359616547 125000 -22815.3359829019 0 0 172 (C1) n - 1
REM
REM in /home/bkarasulu/work/CARBON/AIRSS/Generating-Clusters/ReaxFF-fromJPCA2015/Units_Real/with-SteepDescent/Higher-Symm
REM
REM
REM
REM
REM
REM ./C.cell (1df0a924f5614ab8850e4351716899ee)
REM
REM compiler GCC version 9.2.1 20190827 (Red Hat 9.2.1-1)
REM options -cpp -mtune=generic -march=x86-64 -g -O0 -fpre-include=/usr/include/finclude/math-vector-fortran.h
REM seed -1216280031 1721336915 -592316005 1176125621 1289545200 -164077162 -1433657721 -853169190 1110713408 1179947709 744016635 453982944 895684583 -1046842711 1290198770 741667555 -1877193011 31539514 -1530334211 -549440098 1395485278 -975389346 1288998967 -417007066 813295477 -1428976601 -1001596286 832844833 -1368712386 1213288170 159660004 -1818512921 1770568985
REM
CELL 1.54180   50.00000   50.00000   50.00000   90.00000   90.00000   90.00000
LATT -1
SFAC C  
C      1  0.4185350000000  0.5591680000000  0.4486840000000 1.0
C      1  0.4222680000000  0.4404040000000  0.4468650000000 1.0
C      1  0.4625890000000  0.5410820000000  0.4145250000000 1.0
C      1  0.4620840000000  0.4591450000000  0.4159050000000 1.0
C      1  0.5942710000000  0.5153360000000  0.4467550000000 1.0
C      1  0.5909770000000  0.4883690000000  0.4463790000000 1.0
C      1  0.5852700000000  0.4345870000000  0.4903960000000 1.0
C      1  0.5901380000000  0.5668060000000  0.4880860000000 1.0
C      1  0.5298520000000  0.5178560000000  0.5081710000000 1.0
C      1  0.5372800000000  0.4879870000000  0.5069500000000 1.0
C      1  0.5892650000000  0.5340320000000  0.5504190000000 1.0
C      1  0.5931100000000  0.4761500000000  0.5420340000000 1.0
C      1  0.4499270000000  0.4091520000000  0.4944600000000 1.0
C      1  0.4530340000000  0.5894800000000  0.5080460000000 1.0
C      1  0.5158810000000  0.5638010000000  0.5742360000000 1.0
C      1  0.5171250000000  0.4366810000000  0.5769540000000 1.0
C      1  0.5517340000000  0.4902210000000  0.4812980000000 1.0
C      1  0.5495930000000  0.5205060000000  0.4868580000000 1.0
C      1  0.4874500000000  0.5612170000000  0.4813290000000 1.0
C      1  0.4853380000000  0.4369280000000  0.4688730000000 1.0
C      1  0.4453690000000  0.5781440000000  0.5490260000000 1.0
C      1  0.4433190000000  0.4216350000000  0.5521360000000 1.0
C      1  0.4988280000000  0.5555630000000  0.4401840000000 1.0
C      1  0.5001690000000  0.4462040000000  0.4375190000000 1.0
C      1  0.5940420000000  0.4884300000000  0.5176090000000 1.0
C      1  0.5877680000000  0.5165970000000  0.5236520000000 1.0
C      1  0.4885740000000  0.5549720000000  0.4136740000000 1.0
C      1  0.4902270000000  0.4571620000000  0.4138560000000 1.0
C      1  0.5555860000000  0.4309820000000  0.4404640000000 1.0
C      1  0.5527610000000  0.5679670000000  0.4399120000000 1.0
C      1  0.5604260000000  0.4815340000000  0.5771390000000 1.0
C      1  0.5597230000000  0.5101940000000  0.5708900000000 1.0
C      1  0.5100550000000  0.4229270000000  0.4247290000000 1.0
C      1  0.4987100000000  0.5806000000000  0.4267700000000 1.0
C      1  0.5704160000000  0.4381550000000  0.5639050000000 1.0
C      1  0.5640240000000  0.5518260000000  0.5493750000000 1.0
C      1  0.5059540000000  0.4579000000000  0.5055920000000 1.0
C      1  0.5120110000000  0.5529060000000  0.4914270000000 1.0
C      1  0.4678990000000  0.5957610000000  0.5469240000000 1.0
C      1  0.4646290000000  0.4057120000000  0.5409130000000 1.0
C      1  0.5071650000000  0.4808490000000  0.4045250000000 1.0
C      1  0.5090710000000  0.5081860000000  0.4155330000000 1.0
C      1  0.4775270000000  0.5201030000000  0.4549540000000 1.0
C      1  0.4795980000000  0.4907370000000  0.4528640000000 1.0
C      1  0.5739250000000  0.5779350000000  0.5399720000000 1.0
C      1  0.5741020000000  0.4195590000000  0.5422480000000 1.0
C      1  0.4615510000000  0.5214250000000  0.4985790000000 1.0
C      1  0.4656920000000  0.4749890000000  0.4975570000000 1.0
C      1  0.4172280000000  0.4512670000000  0.4728230000000 1.0
C      1  0.4192190000000  0.5466420000000  0.4752530000000 1.0
C      1  0.4218040000000  0.5442310000000  0.5107340000000 1.0
C      1  0.4259180000000  0.4579890000000  0.5176330000000 1.0
C      1  0.5404990000000  0.5875590000000  0.4580660000000 1.0
C      1  0.5422080000000  0.4134960000000  0.4597010000000 1.0
C      1  0.5391010000000  0.4088390000000  0.4884730000000 1.0
C      1  0.5400890000000  0.5928920000000  0.4872080000000 1.0
C      1  0.5394990000000  0.4269460000000  0.5125200000000 1.0
C      1  0.5424980000000  0.5760210000000  0.5116860000000 1.0
C      1  0.4807870000000  0.5862740000000  0.4717040000000 1.0
C      1  0.4813320000000  0.4093770000000  0.4675690000000 1.0
C      1  0.4729760000000  0.6060940000000  0.5208430000000 1.0
C      1  0.4692640000000  0.3986670000000  0.5139860000000 1.0
C      1  0.5218770000000  0.4866490000000  0.6054540000000 1.0
C      1  0.5228800000000  0.5146780000000  0.6025680000000 1.0
C      1  0.5539570000000  0.4863720000000  0.4099720000000 1.0
C      1  0.5531570000000  0.5157210000000  0.4119460000000 1.0
C      1  0.4363290000000  0.4692220000000  0.5745470000000 1.0
C      1  0.4367090000000  0.5306620000000  0.5716850000000 1.0
C      1  0.5187190000000  0.4041560000000  0.4455660000000 1.0
C      1  0.5156800000000  0.5963970000000  0.4453890000000 1.0
C      1  0.4064350000000  0.4863060000000  0.4459850000000 1.0
C      1  0.4090450000000  0.5144940000000  0.4541090000000 1.0
C      1  0.5363040000000  0.5534680000000  0.4205990000000 1.0
C      1  0.5351180000000  0.4408900000000  0.4196920000000 1.0
C      1  0.4857730000000  0.5283830000000  0.5416620000000 1.0
C      1  0.4815450000000  0.4746370000000  0.5438570000000 1.0
C      1  0.5591930000000  0.5094810000000  0.5399370000000 1.0
C      1  0.5529830000000  0.4819940000000  0.5309530000000 1.0
C      1  0.4123890000000  0.5146340000000  0.5667490000000 1.0
C      1  0.4124640000000  0.4850800000000  0.5668720000000 1.0
C      1  0.4860570000000  0.4859230000000  0.5869860000000 1.0
C      1  0.4850390000000  0.5152720000000  0.5893700000000 1.0
C      1  0.3976430000000  0.4765640000000  0.5425850000000 1.0
C      1  0.3989150000000  0.5252830000000  0.5422400000000 1.0
C      1  0.5056860000000  0.4543980000000  0.4791900000000 1.0
C      1  0.5328980000000  0.5429070000000  0.4752320000000 1.0
C      1  0.4386490000000  0.4380840000000  0.4914810000000 1.0
C      1  0.4452010000000  0.5582660000000  0.4779680000000 1.0
C      1  0.5371760000000  0.5264290000000  0.5340160000000 1.0
C      1  0.5344780000000  0.4663260000000  0.5470270000000 1.0
C      1  0.4210170000000  0.5157750000000  0.5259450000000 1.0
C      1  0.4165000000000  0.4873240000000  0.5225380000000 1.0
C      1  0.5170520000000  0.6096990000000  0.4925320000000 1.0
C      1  0.5160240000000  0.3919200000000  0.4924100000000 1.0
C      1  0.5900510000000  0.5741390000000  0.5159050000000 1.0
C      1  0.5865460000000  0.4325970000000  0.5195130000000 1.0
C      1  0.5732740000000  0.4748250000000  0.4304760000000 1.0
C      1  0.5717970000000  0.5256670000000  0.4331880000000 1.0
C      1  0.5329120000000  0.4687900000000  0.4029880000000 1.0
C      1  0.5280280000000  0.5294480000000  0.4064040000000 1.0
C      1  0.4416230000000  0.5586980000000  0.4269910000000 1.0
C      1  0.4448730000000  0.4407620000000  0.4291910000000 1.0
C      1  0.5020740000000  0.3928400000000  0.4663050000000 1.0
C      1  0.5007500000000  0.6071190000000  0.4680040000000 1.0
C      1  0.5819820000000  0.4654060000000  0.5661010000000 1.0
C      1  0.5895610000000  0.5244070000000  0.5768240000000 1.0
C      1  0.4551030000000  0.5136960000000  0.4042910000000 1.0
C      1  0.4504790000000  0.4841180000000  0.4072450000000 1.0
C      1  0.5754910000000  0.5293840000000  0.4967610000000 1.0
C      1  0.5769350000000  0.4753990000000  0.4921420000000 1.0
C      1  0.4972480000000  0.4574200000000  0.5928830000000 1.0
C      1  0.5000720000000  0.5454350000000  0.5916110000000 1.0
C      1  0.5125480000000  0.4350620000000  0.5203440000000 1.0
C      1  0.5167000000000  0.5633660000000  0.5171720000000 1.0
C      1  0.4239430000000  0.4884930000000  0.4191200000000 1.0
C      1  0.4300390000000  0.5172960000000  0.4186220000000 1.0
C      1  0.5259730000000  0.4576650000000  0.4422110000000 1.0
C      1  0.5247540000000  0.5403620000000  0.4468070000000 1.0
C      1  0.5081900000000  0.4863960000000  0.5436230000000 1.0
C      1  0.5142560000000  0.5179080000000  0.5511430000000 1.0
C      1  0.4406590000000  0.4183520000000  0.4455980000000 1.0
C      1  0.4376250000000  0.5800330000000  0.4455270000000 1.0
C      1  0.5661950000000  0.4476360000000  0.5078880000000 1.0
C      1  0.5690150000000  0.5567930000000  0.5055150000000 1.0
C      1  0.4657300000000  0.4858360000000  0.5242820000000 1.0
C      1  0.4667870000000  0.5136540000000  0.5257940000000 1.0
C      1  0.4966600000000  0.5688340000000  0.5349950000000 1.0
C      1  0.4903620000000  0.4273240000000  0.5395050000000 1.0
C      1  0.5433420000000  0.4295940000000  0.5675900000000 1.0
C      1  0.5430350000000  0.5666940000000  0.5651130000000 1.0
C      1  0.5312710000000  0.4840730000000  0.4557640000000 1.0
C      1  0.5185500000000  0.5101620000000  0.4432570000000 1.0
C      1  0.5009280000000  0.5126630000000  0.4989310000000 1.0
C      1  0.5085510000000  0.4854930000000  0.5135150000000 1.0
C      1  0.4765630000000  0.5522810000000  0.5333420000000 1.0
C      1  0.4735380000000  0.4493860000000  0.5385390000000 1.0
C      1  0.5699350000000  0.5480310000000  0.4505470000000 1.0
C      1  0.5734270000000  0.4515560000000  0.4476980000000 1.0
C      1  0.3983450000000  0.5520700000000  0.5272220000000 1.0
C      1  0.3979040000000  0.4496580000000  0.5291790000000 1.0
C      1  0.4463750000000  0.4405750000000  0.5758470000000 1.0
C      1  0.4471590000000  0.5583350000000  0.5720470000000 1.0
C      1  0.4380660000000  0.5154540000000  0.4466540000000 1.0
C      1  0.4508700000000  0.4893460000000  0.4526260000000 1.0
C      1  0.4991740000000  0.5861050000000  0.5570640000000 1.0
C      1  0.5050420000000  0.4155040000000  0.5616090000000 1.0
C      1  0.5457960000000  0.5897160000000  0.5433120000000 1.0
C      1  0.5446060000000  0.4118700000000  0.5426060000000 1.0
C      1  0.4043610000000  0.4772050000000  0.4733540000000 1.0
C      1  0.4090120000000  0.5067400000000  0.4826890000000 1.0
C      1  0.4458460000000  0.4849060000000  0.4803170000000 1.0
C      1  0.4375230000000  0.5084680000000  0.4899010000000 1.0
C      1  0.4548670000000  0.4039390000000  0.4667020000000 1.0
C      1  0.4513090000000  0.5868180000000  0.4744780000000 1.0
C      1  0.5028470000000  0.4790510000000  0.4668290000000 1.0
C      1  0.5014550000000  0.5189890000000  0.4710880000000 1.0
C      1  0.5006660000000  0.3932560000000  0.5174870000000 1.0
C      1  0.5039640000000  0.6100140000000  0.5187340000000 1.0
C      1  0.5889530000000  0.5424010000000  0.4729370000000 1.0
C      1  0.5882990000000  0.4565990000000  0.4716580000000 1.0
C      1  0.5320760000000  0.5217900000000  0.5769040000000 1.0
C      1  0.5359570000000  0.4708100000000  0.5869290000000 1.0
C      1  0.5169680000000  0.3980560000000  0.5415920000000 1.0
C      1  0.5187520000000  0.6030600000000  0.5419560000000 1.0
C      1  0.4573730000000  0.5144420000000  0.5822400000000 1.0
C      1  0.4577620000000  0.4864440000000  0.5815750000000 1.0
C      1  0.4648160000000  0.4494520000000  0.4855980000000 1.0
C      1  0.4671280000000  0.5419940000000  0.4792960000000 1.0
C      1  0.4715580000000  0.4475540000000  0.5856590000000 1.0
C      1  0.4733440000000  0.5551090000000  0.5847290000000 1.0
C      1  0.4463390000000  0.4435420000000  0.5333170000000 1.0
C      1  0.4479590000000  0.5640860000000  0.5221860000000 1.0
END
