TITL C-2441165-58-977 0.0100365144212749 125000 -4934.11362775634 0 0 42 (C1) n - 1
REM
REM in /home/bkarasulu/work/CARBON/AIRSS/Generating-Clusters/ReaxFF-fromJPCA2015/Units_Real/with-SteepDescent/Higher-Symm
REM
REM
REM
REM
REM
REM ./C.cell (1df0a924f5614ab8850e4351716899ee)
REM
REM compiler GCC version 9.2.1 20190827 (Red Hat 9.2.1-1)
REM options -cpp -mtune=generic -march=x86-64 -g -O0 -fpre-include=/usr/include/finclude/math-vector-fortran.h
REM seed -846297042 365375847 1068242127 1250972331 1792001042 2068157322 -769816013 -1699341123 865347370 810534347 826034361 1630374732 30644321 -555559841 323730196 1501288317 -907983053 1836423072 1314043574 1410222611 -2026127961 1211203111 1248217288 442170856 827327247 1113364983 -498034959 -706140729 -488348975 -1746047835 299418385 -2053131856 1430787589
REM
CELL 1.54180   50.00000   50.00000   50.00000   90.00000   90.00000   90.00000
LATT -1
SFAC C  
C      1  0.5707200000000  0.5164020000000  0.5086180000000 1.0
C      1  0.5293360000000  0.5170530000000  0.4366550000000 1.0
C      1  0.4473970000000  0.5172680000000  0.4536240000000 1.0
C      1  0.4385010000000  0.5172400000000  0.5360540000000 1.0
C      1  0.5152770000000  0.5174180000000  0.5718200000000 1.0
C      1  0.4296190000000  0.5185230000000  0.5099560000000 1.0
C      1  0.4695850000000  0.5174460000000  0.4375010000000 1.0
C      1  0.5514550000000  0.5171260000000  0.4527390000000 1.0
C      1  0.5626000000000  0.5167100000000  0.5349150000000 1.0
C      1  0.4852240000000  0.5182560000000  0.5720810000000 1.0
C      1  0.4785010000000  0.4918460000000  0.4486440000000 1.0
C      1  0.4418890000000  0.4920940000000  0.5045850000000 1.0
C      1  0.4864570000000  0.4921160000000  0.5565280000000 1.0
C      1  0.5476400000000  0.4913060000000  0.5307800000000 1.0
C      1  0.5438820000000  0.4916790000000  0.4638250000000 1.0
C      1  0.5201170000000  0.4915040000000  0.4480340000000 1.0
C      1  0.5577320000000  0.4908980000000  0.5040530000000 1.0
C      1  0.5144660000000  0.4918100000000  0.5543870000000 1.0
C      1  0.4518870000000  0.4917950000000  0.5312990000000 1.0
C      1  0.4555130000000  0.4917510000000  0.4657280000000 1.0
C      1  0.5130450000000  0.4456060000000  0.5408180000000 1.0
C      1  0.5443840000000  0.4454340000000  0.5045390000000 1.0
C      1  0.5156150000000  0.4455070000000  0.4634120000000 1.0
C      1  0.4676550000000  0.4451010000000  0.4749590000000 1.0
C      1  0.4665400000000  0.4448350000000  0.5243110000000 1.0
C      1  0.4859490000000  0.4508460000000  0.5425270000000 1.0
C      1  0.4556560000000  0.4517060000000  0.4991370000000 1.0
C      1  0.4891450000000  0.4518410000000  0.4580850000000 1.0
C      1  0.5391750000000  0.4526730000000  0.4773420000000 1.0
C      1  0.5336500000000  0.4437270000000  0.5267800000000 1.0
C      1  0.4859070000000  0.5408800000000  0.5207020000000 1.0
C      1  0.5002450000000  0.5406020000000  0.4765820000000 1.0
C      1  0.4771010000000  0.5405790000000  0.4934440000000 1.0
C      1  0.5145040000000  0.5410530000000  0.5205990000000 1.0
C      1  0.5234380000000  0.5408840000000  0.4934350000000 1.0
C      1  0.5196120000000  0.4891180000000  0.5261590000000 1.0
C      1  0.5367720000000  0.4814550000000  0.4878580000000 1.0
C      1  0.4992480000000  0.4824220000000  0.4660660000000 1.0
C      1  0.4795240000000  0.4824570000000  0.5299160000000 1.0
C      1  0.4644120000000  0.4817640000000  0.4911400000000 1.0
C      1  0.5003020000000  0.5252980000000  0.5009950000000 1.0
C      1  0.5018640000000  0.4899100000000  0.5031560000000 1.0
END
