TITL C-2441164-471-40 0.000615928576985003 125000 -1469.43276014852 0 0 12 (C1) n - 1
REM
REM in /home/bkarasulu/work/CARBON/AIRSS/Generating-Clusters/ReaxFF-fromJPCA2015/Units_Real/with-SteepDescent/Higher-Symm
REM
REM
REM
REM
REM
REM ./C.cell (1df0a924f5614ab8850e4351716899ee)
REM
REM compiler GCC version 9.2.1 20190827 (Red Hat 9.2.1-1)
REM options -cpp -mtune=generic -march=x86-64 -g -O0 -fpre-include=/usr/include/finclude/math-vector-fortran.h
REM seed -37699755 -68691945 -1444207722 -735246051 495970895 1311447206 -616910901 436503979 -1313628986 -124540334 -1087257350 200818678 2046326734 533965869 -1610848710 1747431534 32085140 -1949428220 778453666 1095130007 -1782283954 1055453365 -637036121 784511754 1346902579 308399179 2032401796 -114825494 -2027837143 1334789164 -1367179095 -583191878 2075571585
REM
CELL 1.54180   50.00000   50.00000   50.00000   90.00000   90.00000   90.00000
LATT -1
SFAC C  
C      1  0.4883690000000  0.5349840000000  0.5029940000000 1.0
C      1  0.4925810000000  0.5219920000000  0.4736200000000 1.0
C      1  0.4885790000000  0.4899000000000  0.4702610000000 1.0
C      1  0.4825180000000  0.4691120000000  0.4875700000000 1.0
C      1  0.4756700000000  0.4659430000000  0.5191190000000 1.0
C      1  0.4820650000000  0.4907080000000  0.5388960000000 1.0
C      1  0.4853690000000  0.5163460000000  0.5251940000000 1.0
C      1  0.5629930000000  0.4952430000000  0.5059960000000 1.0
C      1  0.4509810000000  0.4852260000000  0.5115340000000 1.0
C      1  0.5202270000000  0.5131510000000  0.4873880000000 1.0
C      1  0.4322980000000  0.4982170000000  0.5042070000000 1.0
C      1  0.5420840000000  0.5039950000000  0.4968770000000 1.0
END
