TITL C-2441163-1170-1085 -1.81387136311216e-10 125000 -762.619587672925 0 0 6 (D(inf)h) n - 1
REM
REM in /home/bkarasulu/work/CARBON/AIRSS/Generating-Clusters/ReaxFF-fromJPCA2015/Units_Real/with-SteepDescent/Higher-Symm
REM
REM
REM
REM
REM
REM ./C.cell (1df0a924f5614ab8850e4351716899ee)
REM
REM compiler GCC version 9.2.1 20190827 (Red Hat 9.2.1-1)
REM options -cpp -mtune=generic -march=x86-64 -g -O0 -fpre-include=/usr/include/finclude/math-vector-fortran.h
REM seed 1716764468 -252101687 1447646107 502840421 160771590 -1622717337 -2003534038 1316372310 253344511 -457776881 -553549907 966520723 -1671820487 154477718 1768320209 -601432919 -2094264079 -2027416209 -1382222089 -109507279 174331332 -1934250251 1731401852 1348407349 -1814666763 -1355961405 -1371432979 -1465050273 -758696770 98559841 59702246 1699810034 1395956455
REM
CELL 1.54180   50.00000   50.00000   50.00000   90.00000   90.00000   90.00000
LATT -1
SFAC C  
C      1  0.5627780000000  0.5008660000000  0.4995170000000 1.0
C      1  0.4616360000000  0.5008660000000  0.4995170000000 1.0
C      1  0.4372220000000  0.5008660000000  0.4995170000000 1.0
C      1  0.5126100000000  0.5008660000000  0.4995170000000 1.0
C      1  0.4873900000000  0.5008660000000  0.4995170000000 1.0
C      1  0.5383640000000  0.5008660000000  0.4995170000000 1.0
END
