TITL C-2441169-1362-316 0.205183621050386 125000 -20650.0093764701 0 0 177 (C1) n - 1
REM
REM in /home/bkarasulu/work/CARBON/AIRSS/Generating-Clusters/ReaxFF-fromJPCA2015/Units_Real/with-SteepDescent/Higher-Symm
REM
REM
REM
REM
REM
REM ./C.cell (1df0a924f5614ab8850e4351716899ee)
REM
REM compiler GCC version 9.2.1 20190827 (Red Hat 9.2.1-1)
REM options -cpp -mtune=generic -march=x86-64 -g -O0 -fpre-include=/usr/include/finclude/math-vector-fortran.h
REM seed 1072169431 1871670774 4510830 1476348246 -644441718 -688544441 -1708576840 1328792037 -2136124093 -303714577 966158882 204020064 -750320993 1770465121 549154630 -1383363360 830339557 995751482 -565978827 108875846 714935770 -1912927041 592555742 1907152622 1905141230 512174244 954495800 -293110480 1275904514 308919960 -2060326559 1936731360 -1340523371
REM
CELL 1.54180   50.00000   50.00000   50.00000   90.00000   90.00000   90.00000
LATT -1
SFAC C  
C      1  0.5547020000000  0.5154650000000  0.4383680000000 1.0
C      1  0.4862850000000  0.4422630000000  0.4385160000000 1.0
C      1  0.4568610000000  0.5395070000000  0.4397310000000 1.0
C      1  0.5550330000000  0.5159590000000  0.5590370000000 1.0
C      1  0.4864960000000  0.4435790000000  0.5599830000000 1.0
C      1  0.4550260000000  0.5407930000000  0.5632350000000 1.0
C      1  0.4435860000000  0.5171480000000  0.4387030000000 1.0
C      1  0.5129450000000  0.4406840000000  0.4345980000000 1.0
C      1  0.5421980000000  0.5394830000000  0.4393210000000 1.0
C      1  0.4424040000000  0.5172800000000  0.5603540000000 1.0
C      1  0.5142410000000  0.4434370000000  0.5579550000000 1.0
C      1  0.5417330000000  0.5395200000000  0.5608600000000 1.0
C      1  0.4027070000000  0.4897240000000  0.4530840000000 1.0
C      1  0.5419770000000  0.5917320000000  0.4529330000000 1.0
C      1  0.5514660000000  0.4203100000000  0.4536410000000 1.0
C      1  0.3980750000000  0.4885260000000  0.5480220000000 1.0
C      1  0.5413000000000  0.5918310000000  0.5470990000000 1.0
C      1  0.5578700000000  0.4182840000000  0.5494760000000 1.0
C      1  0.5976410000000  0.4991980000000  0.4571190000000 1.0
C      1  0.4431470000000  0.5822590000000  0.4573010000000 1.0
C      1  0.4437440000000  0.4198110000000  0.4546130000000 1.0
C      1  0.6015050000000  0.4888200000000  0.5495240000000 1.0
C      1  0.4584530000000  0.5896180000000  0.5459360000000 1.0
C      1  0.4370880000000  0.4170840000000  0.5485340000000 1.0
C      1  0.4317030000000  0.5182420000000  0.4857870000000 1.0
C      1  0.5530040000000  0.5451740000000  0.4851550000000 1.0
C      1  0.5194260000000  0.4320060000000  0.4845120000000 1.0
C      1  0.4320520000000  0.5188210000000  0.5144630000000 1.0
C      1  0.5517890000000  0.5480980000000  0.5138280000000 1.0
C      1  0.5253080000000  0.4188020000000  0.5100670000000 1.0
C      1  0.5670070000000  0.5185920000000  0.4850220000000 1.0
C      1  0.4496370000000  0.5436110000000  0.4854440000000 1.0
C      1  0.4889010000000  0.4346360000000  0.4848480000000 1.0
C      1  0.5672080000000  0.5237970000000  0.5151880000000 1.0
C      1  0.4476770000000  0.5605580000000  0.5105190000000 1.0
C      1  0.4852990000000  0.4343950000000  0.5135640000000 1.0
C      1  0.4853740000000  0.4056240000000  0.4769800000000 1.0
C      1  0.4276780000000  0.5607290000000  0.4705440000000 1.0
C      1  0.5873600000000  0.5311730000000  0.4699920000000 1.0
C      1  0.4781000000000  0.4071010000000  0.5202340000000 1.0
C      1  0.4208010000000  0.5580040000000  0.5204240000000 1.0
C      1  0.5967320000000  0.5316420000000  0.5150240000000 1.0
C      1  0.5141780000000  0.4043200000000  0.4724760000000 1.0
C      1  0.5814330000000  0.5580670000000  0.4770470000000 1.0
C      1  0.4101120000000  0.5380760000000  0.4773370000000 1.0
C      1  0.5060700000000  0.3985310000000  0.5187330000000 1.0
C      1  0.5740560000000  0.5670610000000  0.5172030000000 1.0
C      1  0.4060250000000  0.5304090000000  0.5221800000000 1.0
C      1  0.4107800000000  0.4970010000000  0.5715820000000 1.0
C      1  0.5436130000000  0.5774210000000  0.5713120000000 1.0
C      1  0.5424260000000  0.4204060000000  0.5731090000000 1.0
C      1  0.4112800000000  0.4989100000000  0.4273800000000 1.0
C      1  0.5466710000000  0.5771480000000  0.4291940000000 1.0
C      1  0.5468390000000  0.4239740000000  0.4258260000000 1.0
C      1  0.5900410000000  0.5027560000000  0.5711430000000 1.0
C      1  0.4587590000000  0.5785310000000  0.5715530000000 1.0
C      1  0.4544490000000  0.4238260000000  0.5705460000000 1.0
C      1  0.5888060000000  0.4988200000000  0.4282710000000 1.0
C      1  0.4527250000000  0.5768930000000  0.4304530000000 1.0
C      1  0.4529140000000  0.4236700000000  0.4280780000000 1.0
C      1  0.5117760000000  0.5212460000000  0.4165320000000 1.0
C      1  0.5142410000000  0.4778170000000  0.4237400000000 1.0
C      1  0.4747410000000  0.4982390000000  0.4256900000000 1.0
C      1  0.5118570000000  0.5216780000000  0.5852580000000 1.0
C      1  0.5126120000000  0.4787740000000  0.5797300000000 1.0
C      1  0.4752420000000  0.4996910000000  0.5759150000000 1.0
C      1  0.4873100000000  0.5214390000000  0.4212550000000 1.0
C      1  0.4878920000000  0.4786010000000  0.4171820000000 1.0
C      1  0.5252570000000  0.4993790000000  0.4140990000000 1.0
C      1  0.4880920000000  0.5235960000000  0.5737840000000 1.0
C      1  0.4872280000000  0.4789020000000  0.5788210000000 1.0
C      1  0.5246410000000  0.4999880000000  0.5824040000000 1.0
C      1  0.5132870000000  0.4776050000000  0.5253160000000 1.0
C      1  0.4723230000000  0.5001600000000  0.5166840000000 1.0
C      1  0.5132810000000  0.5232220000000  0.5196410000000 1.0
C      1  0.5129550000000  0.4758820000000  0.4787850000000 1.0
C      1  0.4727040000000  0.5000000000000  0.4823680000000 1.0
C      1  0.5132060000000  0.5221140000000  0.4739160000000 1.0
C      1  0.4866530000000  0.4787530000000  0.5261190000000 1.0
C      1  0.5281570000000  0.5005870000000  0.5148550000000 1.0
C      1  0.4861370000000  0.5229380000000  0.5208120000000 1.0
C      1  0.4868780000000  0.4763650000000  0.4805130000000 1.0
C      1  0.5271830000000  0.4992130000000  0.4844220000000 1.0
C      1  0.4868430000000  0.5222950000000  0.4743520000000 1.0
C      1  0.4383410000000  0.4095350000000  0.4805510000000 1.0
C      1  0.4583720000000  0.5995150000000  0.4789000000000 1.0
C      1  0.6109570000000  0.4899740000000  0.4824990000000 1.0
C      1  0.4326190000000  0.4092000000000  0.5210000000000 1.0
C      1  0.4575630000000  0.6045620000000  0.5192570000000 1.0
C      1  0.6134160000000  0.4865930000000  0.5230220000000 1.0
C      1  0.5647480000000  0.4109930000000  0.4777990000000 1.0
C      1  0.5475050000000  0.6004320000000  0.4799250000000 1.0
C      1  0.3902180000000  0.4920180000000  0.4794380000000 1.0
C      1  0.5687880000000  0.4091870000000  0.5251930000000 1.0
C      1  0.5462490000000  0.6049750000000  0.5210630000000 1.0
C      1  0.3870410000000  0.4887930000000  0.5206000000000 1.0
C      1  0.4750010000000  0.4544110000000  0.4133150000000 1.0
C      1  0.4738870000000  0.5452070000000  0.4164200000000 1.0
C      1  0.5515580000000  0.5004090000000  0.4135700000000 1.0
C      1  0.4749210000000  0.4557980000000  0.5837920000000 1.0
C      1  0.4733340000000  0.5440030000000  0.5859420000000 1.0
C      1  0.5520400000000  0.5004850000000  0.5842980000000 1.0
C      1  0.5257010000000  0.4550230000000  0.4124610000000 1.0
C      1  0.5261020000000  0.5457520000000  0.4143370000000 1.0
C      1  0.4496480000000  0.5000260000000  0.4154220000000 1.0
C      1  0.5254370000000  0.4541470000000  0.5850700000000 1.0
C      1  0.5266560000000  0.5438970000000  0.5860070000000 1.0
C      1  0.4487160000000  0.5004780000000  0.5843310000000 1.0
C      1  0.4856330000000  0.5403060000000  0.5435480000000 1.0
C      1  0.5542150000000  0.5013750000000  0.5302800000000 1.0
C      1  0.4740290000000  0.4545920000000  0.5313800000000 1.0
C      1  0.4721610000000  0.5450580000000  0.4672580000000 1.0
C      1  0.5471730000000  0.4908980000000  0.4611160000000 1.0
C      1  0.4686400000000  0.4625850000000  0.4620810000000 1.0
C      1  0.5153960000000  0.5454870000000  0.5391780000000 1.0
C      1  0.4465130000000  0.5018610000000  0.5307690000000 1.0
C      1  0.5272420000000  0.4561330000000  0.5354240000000 1.0
C      1  0.5287230000000  0.5464010000000  0.4677400000000 1.0
C      1  0.4571770000000  0.4907660000000  0.4581530000000 1.0
C      1  0.5268790000000  0.4709660000000  0.4542390000000 1.0
C      1  0.5909930000000  0.4705310000000  0.5298740000000 1.0
C      1  0.4280350000000  0.4358110000000  0.5289380000000 1.0
C      1  0.4816500000000  0.5921890000000  0.5280980000000 1.0
C      1  0.5897840000000  0.4743530000000  0.4711830000000 1.0
C      1  0.4284730000000  0.4358680000000  0.4736080000000 1.0
C      1  0.4854490000000  0.5962080000000  0.4688680000000 1.0
C      1  0.4070150000000  0.4699570000000  0.5290620000000 1.0
C      1  0.5725810000000  0.4353160000000  0.5326920000000 1.0
C      1  0.5215120000000  0.5932610000000  0.5281500000000 1.0
C      1  0.4102870000000  0.4718000000000  0.4733840000000 1.0
C      1  0.5690280000000  0.4392910000000  0.4712570000000 1.0
C      1  0.5141460000000  0.5957280000000  0.4720770000000 1.0
C      1  0.4322830000000  0.4772180000000  0.5186470000000 1.0
C      1  0.5165920000000  0.5679600000000  0.5142550000000 1.0
C      1  0.5529220000000  0.4536710000000  0.5217170000000 1.0
C      1  0.4327420000000  0.4799950000000  0.4880280000000 1.0
C      1  0.5143900000000  0.5682490000000  0.4795810000000 1.0
C      1  0.5503640000000  0.4528580000000  0.4885610000000 1.0
C      1  0.5667420000000  0.4777990000000  0.5202750000000 1.0
C      1  0.4871520000000  0.5693810000000  0.5104920000000 1.0
C      1  0.4472700000000  0.4538660000000  0.5194750000000 1.0
C      1  0.5648880000000  0.4788770000000  0.4834350000000 1.0
C      1  0.4868480000000  0.5682690000000  0.4790890000000 1.0
C      1  0.4476240000000  0.4546480000000  0.4860000000000 1.0
C      1  0.5678530000000  0.4769650000000  0.5819760000000 1.0
C      1  0.4471050000000  0.4513000000000  0.5802980000000 1.0
C      1  0.4852550000000  0.5701200000000  0.5819650000000 1.0
C      1  0.5693230000000  0.4782190000000  0.4180520000000 1.0
C      1  0.4463230000000  0.4512110000000  0.4178300000000 1.0
C      1  0.4854170000000  0.5712820000000  0.4200380000000 1.0
C      1  0.4310990000000  0.4777010000000  0.5803590000000 1.0
C      1  0.5538070000000  0.4530120000000  0.5827710000000 1.0
C      1  0.5158840000000  0.5699290000000  0.5820600000000 1.0
C      1  0.4320740000000  0.4777950000000  0.4176390000000 1.0
C      1  0.5539940000000  0.4515260000000  0.4170950000000 1.0
C      1  0.5134930000000  0.5707830000000  0.4189130000000 1.0
C      1  0.4333620000000  0.5544490000000  0.4278010000000 1.0
C      1  0.5795230000000  0.5278620000000  0.4276750000000 1.0
C      1  0.4843540000000  0.4141960000000  0.4294090000000 1.0
C      1  0.4314550000000  0.5559950000000  0.5713730000000 1.0
C      1  0.5804650000000  0.5304130000000  0.5676000000000 1.0
C      1  0.4848110000000  0.4153870000000  0.5684950000000 1.0
C      1  0.5664720000000  0.5545120000000  0.4300820000000 1.0
C      1  0.4181920000000  0.5283400000000  0.4298630000000 1.0
C      1  0.5124020000000  0.4137100000000  0.4254020000000 1.0
C      1  0.5648340000000  0.5557100000000  0.5698430000000 1.0
C      1  0.4180670000000  0.5315900000000  0.5697800000000 1.0
C      1  0.5141490000000  0.4135820000000  0.5700270000000 1.0
C      1  0.3911130000000  0.5101970000000  0.5019680000000 1.0
C      1  0.6105940000000  0.5080360000000  0.5053400000000 1.0
C      1  0.5508330000000  0.4067630000000  0.5032660000000 1.0
C      1  0.4537670000000  0.4011740000000  0.5033750000000 1.0
C      1  0.5630640000000  0.5912330000000  0.5019430000000 1.0
C      1  0.4463500000000  0.5878020000000  0.5017820000000 1.0
C      1  0.5019300000000  0.3862960000000  0.4925020000000 1.0
C      1  0.5975070000000  0.5574690000000  0.5016730000000 1.0
C      1  0.4005430000000  0.5528690000000  0.5010200000000 1.0
END
