TITL C-2441158-471-1021 0.109099507558504 125000 -26335.2703677133 0 0 192 (C1) n - 1
REM
REM in /home/bkarasulu/work/CARBON/AIRSS/Generating-Clusters/ReaxFF-fromJPCA2015/Units_Real/with-SteepDescent/Higher-Symm
REM
REM
REM
REM
REM
REM ./C.cell (1df0a924f5614ab8850e4351716899ee)
REM
REM compiler GCC version 9.2.1 20190827 (Red Hat 9.2.1-1)
REM options -cpp -mtune=generic -march=x86-64 -g -O0 -fpre-include=/usr/include/finclude/math-vector-fortran.h
REM seed -728505502 2120142062 1396341466 -97375869 1989147283 -528751688 847030124 -685762374 -902805227 85160856 -465075884 652986246 2070228857 1994328827 -489938394 -289172102 -1542759827 1151892835 -2082707859 -1718387744 -600109641 -414670970 116734110 -1787861335 -1984522011 -1219490906 -256944134 -1918481519 254719266 -1832043042 -1961528344 1219842234 257450221
REM
CELL 1.54180   50.00000   50.00000   50.00000   90.00000   90.00000   90.00000
LATT -1
SFAC C  
C      1  0.5340540000000  0.4501980000000  0.5291600000000 1.0
C      1  0.5321460000000  0.4602380000000  0.4514240000000 1.0
C      1  0.5286910000000  0.5362950000000  0.4482860000000 1.0
C      1  0.5328530000000  0.5613630000000  0.5160030000000 1.0
C      1  0.5335760000000  0.5047390000000  0.5637600000000 1.0
C      1  0.5084910000000  0.5147940000000  0.4008800000000 1.0
C      1  0.5087850000000  0.6051230000000  0.4871280000000 1.0
C      1  0.5082670000000  0.5460850000000  0.5935120000000 1.0
C      1  0.5099000000000  0.4287500000000  0.5676260000000 1.0
C      1  0.5108780000000  0.4096590000000  0.4524190000000 1.0
C      1  0.5605750000000  0.4220020000000  0.4684110000000 1.0
C      1  0.5655410000000  0.5161490000000  0.4168200000000 1.0
C      1  0.5611510000000  0.5838520000000  0.4805680000000 1.0
C      1  0.5619930000000  0.5462830000000  0.5733800000000 1.0
C      1  0.5683460000000  0.4392730000000  0.5587000000000 1.0
C      1  0.4427700000000  0.4498860000000  0.5871960000000 1.0
C      1  0.4444850000000  0.4037200000000  0.4727380000000 1.0
C      1  0.4477090000000  0.4724590000000  0.4027630000000 1.0
C      1  0.4433060000000  0.5913250000000  0.4614190000000 1.0
C      1  0.4497890000000  0.5758800000000  0.5654410000000 1.0
C      1  0.4733120000000  0.3947990000000  0.4729970000000 1.0
C      1  0.4716670000000  0.4853650000000  0.3918030000000 1.0
C      1  0.4718960000000  0.6000990000000  0.4583000000000 1.0
C      1  0.4737550000000  0.5767350000000  0.5809180000000 1.0
C      1  0.4723150000000  0.4448580000000  0.5930900000000 1.0
C      1  0.4328450000000  0.5684460000000  0.5093230000000 1.0
C      1  0.4271030000000  0.5133160000000  0.5804040000000 1.0
C      1  0.4308740000000  0.4384910000000  0.5338100000000 1.0
C      1  0.4293640000000  0.4443050000000  0.4438020000000 1.0
C      1  0.4288750000000  0.5316060000000  0.4324420000000 1.0
C      1  0.5116970000000  0.4493780000000  0.5114270000000 1.0
C      1  0.5115220000000  0.4807770000000  0.4540360000000 1.0
C      1  0.5096610000000  0.5317300000000  0.4682250000000 1.0
C      1  0.5119650000000  0.5427940000000  0.5237060000000 1.0
C      1  0.5133910000000  0.4880540000000  0.5499550000000 1.0
C      1  0.5192590000000  0.5142160000000  0.4877870000000 1.0
C      1  0.5238480000000  0.5177900000000  0.5156580000000 1.0
C      1  0.5231070000000  0.4917990000000  0.5239710000000 1.0
C      1  0.5131370000000  0.4778800000000  0.5020420000000 1.0
C      1  0.5265510000000  0.4897960000000  0.4784430000000 1.0
C      1  0.4860780000000  0.4404990000000  0.4743010000000 1.0
C      1  0.4828440000000  0.5139290000000  0.4356140000000 1.0
C      1  0.4864550000000  0.5631920000000  0.4835950000000 1.0
C      1  0.4875180000000  0.5329850000000  0.5563680000000 1.0
C      1  0.4791670000000  0.4563530000000  0.5501990000000 1.0
C      1  0.4319540000000  0.5223670000000  0.3978210000000 1.0
C      1  0.4357800000000  0.5950000000000  0.4897920000000 1.0
C      1  0.4320410000000  0.5421380000000  0.5829650000000 1.0
C      1  0.4349620000000  0.4284560000000  0.5699700000000 1.0
C      1  0.4404480000000  0.4176220000000  0.4470310000000 1.0
C      1  0.5536450000000  0.5243580000000  0.5973660000000 1.0
C      1  0.5553870000000  0.4151110000000  0.5481440000000 1.0
C      1  0.5553410000000  0.4245070000000  0.4361660000000 1.0
C      1  0.5544960000000  0.5419870000000  0.4085290000000 1.0
C      1  0.5548150000000  0.5993890000000  0.5080120000000 1.0
C      1  0.4921680000000  0.5894060000000  0.5403950000000 1.0
C      1  0.4885430000000  0.4911950000000  0.5976010000000 1.0
C      1  0.4886590000000  0.3986880000000  0.5181400000000 1.0
C      1  0.4888170000000  0.4494900000000  0.4187600000000 1.0
C      1  0.4933780000000  0.5670700000000  0.4276700000000 1.0
C      1  0.4641700000000  0.5566540000000  0.4649970000000 1.0
C      1  0.4655590000000  0.5460690000000  0.5434580000000 1.0
C      1  0.4584550000000  0.4743680000000  0.5588080000000 1.0
C      1  0.4624600000000  0.4345000000000  0.4911270000000 1.0
C      1  0.4575760000000  0.4941840000000  0.4363730000000 1.0
C      1  0.4796820000000  0.6093460000000  0.4844310000000 1.0
C      1  0.4802650000000  0.5528370000000  0.5979990000000 1.0
C      1  0.4819030000000  0.4232560000000  0.5767480000000 1.0
C      1  0.4824620000000  0.4045310000000  0.4473880000000 1.0
C      1  0.4803640000000  0.5132380000000  0.3919420000000 1.0
C      1  0.4316610000000  0.4843970000000  0.4228470000000 1.0
C      1  0.4315740000000  0.5646400000000  0.4622180000000 1.0
C      1  0.4313090000000  0.5564400000000  0.5553980000000 1.0
C      1  0.4307430000000  0.4693260000000  0.5676010000000 1.0
C      1  0.4326540000000  0.4247660000000  0.4885380000000 1.0
C      1  0.4881370000000  0.5488050000000  0.5081470000000 1.0
C      1  0.4874380000000  0.5046400000000  0.5502920000000 1.0
C      1  0.4839690000000  0.4494230000000  0.5218700000000 1.0
C      1  0.4849740000000  0.4661330000000  0.4618440000000 1.0
C      1  0.4846100000000  0.5214590000000  0.4634500000000 1.0
C      1  0.4978620000000  0.5895130000000  0.5680230000000 1.0
C      1  0.4932410000000  0.4634250000000  0.6025810000000 1.0
C      1  0.4944570000000  0.3895720000000  0.4926790000000 1.0
C      1  0.4939210000000  0.4654670000000  0.3950850000000 1.0
C      1  0.4945040000000  0.5932990000000  0.4394780000000 1.0
C      1  0.5110940000000  0.5771780000000  0.4778960000000 1.0
C      1  0.5123070000000  0.5464840000000  0.5639630000000 1.0
C      1  0.5063120000000  0.4561450000000  0.5592360000000 1.0
C      1  0.5115600000000  0.4271410000000  0.4769230000000 1.0
C      1  0.5091210000000  0.5029280000000  0.4277030000000 1.0
C      1  0.5281580000000  0.4174930000000  0.4305450000000 1.0
C      1  0.5264260000000  0.5389430000000  0.4011340000000 1.0
C      1  0.5276950000000  0.6089160000000  0.5092730000000 1.0
C      1  0.5260940000000  0.5255170000000  0.6051850000000 1.0
C      1  0.5271530000000  0.4107370000000  0.5515110000000 1.0
C      1  0.5778950000000  0.4324110000000  0.5166830000000 1.0
C      1  0.5810210000000  0.4595570000000  0.4424850000000 1.0
C      1  0.5761040000000  0.5460940000000  0.4459030000000 1.0
C      1  0.5772360000000  0.5678980000000  0.5227610000000 1.0
C      1  0.5797610000000  0.5017760000000  0.5740930000000 1.0
C      1  0.5617610000000  0.4956170000000  0.5956920000000 1.0
C      1  0.5636920000000  0.4073910000000  0.5194430000000 1.0
C      1  0.5636400000000  0.4475110000000  0.4204410000000 1.0
C      1  0.5622840000000  0.5642250000000  0.4288870000000 1.0
C      1  0.5633410000000  0.5892730000000  0.5361410000000 1.0
C      1  0.5552660000000  0.4788730000000  0.4496530000000 1.0
C      1  0.5528700000000  0.5403640000000  0.4644780000000 1.0
C      1  0.5561830000000  0.5465870000000  0.5274290000000 1.0
C      1  0.5580050000000  0.4906910000000  0.5539370000000 1.0
C      1  0.5531900000000  0.4491920000000  0.5070490000000 1.0
C      1  0.5846240000000  0.5704450000000  0.4943010000000 1.0
C      1  0.5861300000000  0.5293640000000  0.5670750000000 1.0
C      1  0.5903980000000  0.4442010000000  0.5402980000000 1.0
C      1  0.5852310000000  0.4384770000000  0.4643010000000 1.0
C      1  0.5881770000000  0.5221010000000  0.4343980000000 1.0
C      1  0.4710020000000  0.4652310000000  0.4372000000000 1.0
C      1  0.4724220000000  0.5519630000000  0.4381580000000 1.0
C      1  0.4727140000000  0.5710530000000  0.5328670000000 1.0
C      1  0.4707250000000  0.4949620000000  0.5750640000000 1.0
C      1  0.4710040000000  0.4201660000000  0.5166710000000 1.0
C      1  0.4139160000000  0.5648990000000  0.5310830000000 1.0
C      1  0.4142280000000  0.4936770000000  0.5637170000000 1.0
C      1  0.4143040000000  0.4301170000000  0.5102040000000 1.0
C      1  0.4139460000000  0.4673270000000  0.4398330000000 1.0
C      1  0.4122960000000  0.5459410000000  0.4516280000000 1.0
C      1  0.4429830000000  0.5111870000000  0.4559580000000 1.0
C      1  0.4444190000000  0.5360260000000  0.5002100000000 1.0
C      1  0.4436680000000  0.4920410000000  0.5259700000000 1.0
C      1  0.4414690000000  0.4635550000000  0.5222750000000 1.0
C      1  0.4412370000000  0.4944680000000  0.4794110000000 1.0
C      1  0.5226650000000  0.4694810000000  0.6035350000000 1.0
C      1  0.5241640000000  0.3923550000000  0.5001180000000 1.0
C      1  0.5226660000000  0.4609100000000  0.3974910000000 1.0
C      1  0.5237550000000  0.5915460000000  0.4407490000000 1.0
C      1  0.5269750000000  0.5889910000000  0.5613910000000 1.0
C      1  0.5150700000000  0.3993860000000  0.5273720000000 1.0
C      1  0.5173680000000  0.4455110000000  0.4234440000000 1.0
C      1  0.5183880000000  0.5515970000000  0.4261300000000 1.0
C      1  0.5196230000000  0.5889330000000  0.5306890000000 1.0
C      1  0.5169890000000  0.4986040000000  0.5944380000000 1.0
C      1  0.5688460000000  0.5236530000000  0.5131110000000 1.0
C      1  0.5692900000000  0.4963190000000  0.5259750000000 1.0
C      1  0.5680500000000  0.4765160000000  0.5021550000000 1.0
C      1  0.5560690000000  0.4907440000000  0.4769780000000 1.0
C      1  0.5664430000000  0.5185980000000  0.4820760000000 1.0
C      1  0.5486050000000  0.4615540000000  0.5596150000000 1.0
C      1  0.5380280000000  0.4413130000000  0.4765510000000 1.0
C      1  0.5467980000000  0.4943550000000  0.4245320000000 1.0
C      1  0.5380700000000  0.5644870000000  0.4842110000000 1.0
C      1  0.5396790000000  0.5346070000000  0.5563260000000 1.0
C      1  0.5970970000000  0.4699160000000  0.5024600000000 1.0
C      1  0.6038890000000  0.4759530000000  0.4543080000000 1.0
C      1  0.5962020000000  0.5214800000000  0.4769260000000 1.0
C      1  0.5972920000000  0.5320330000000  0.5165190000000 1.0
C      1  0.5970900000000  0.4951850000000  0.5359400000000 1.0
C      1  0.3996650000000  0.4980190000000  0.5389190000000 1.0
C      1  0.3943790000000  0.4513300000000  0.5095420000000 1.0
C      1  0.3976000000000  0.4740920000000  0.4642180000000 1.0
C      1  0.3946770000000  0.5281350000000  0.4697880000000 1.0
C      1  0.3922200000000  0.5497890000000  0.5207480000000 1.0
C      1  0.5500870000000  0.5833090000000  0.4473730000000 1.0
C      1  0.5530150000000  0.5767300000000  0.5608230000000 1.0
C      1  0.5474300000000  0.4697480000000  0.5890940000000 1.0
C      1  0.5503350000000  0.4028380000000  0.4942170000000 1.0
C      1  0.5482710000000  0.4694610000000  0.4076350000000 1.0
C      1  0.4504420000000  0.5490830000000  0.4220880000000 1.0
C      1  0.4507710000000  0.5861380000000  0.5264880000000 1.0
C      1  0.4524920000000  0.5085700000000  0.5923830000000 1.0
C      1  0.4499950000000  0.4167210000000  0.5340270000000 1.0
C      1  0.4503020000000  0.4487650000000  0.4254590000000 1.0
C      1  0.6033900000000  0.5053100000000  0.4535600000000 1.0
C      1  0.6020060000000  0.5465500000000  0.4914150000000 1.0
C      1  0.6035280000000  0.5229020000000  0.5435050000000 1.0
C      1  0.6055640000000  0.4680820000000  0.5302470000000 1.0
C      1  0.6036540000000  0.4574170000000  0.4771130000000 1.0
C      1  0.4639130000000  0.4202960000000  0.4302810000000 1.0
C      1  0.4580770000000  0.5336800000000  0.3969590000000 1.0
C      1  0.4579780000000  0.6053370000000  0.5045590000000 1.0
C      1  0.4564630000000  0.5363070000000  0.5985990000000 1.0
C      1  0.4580010000000  0.4131000000000  0.5619670000000 1.0
C      1  0.4616670000000  0.4594710000000  0.5037920000000 1.0
C      1  0.4679980000000  0.4808960000000  0.4830980000000 1.0
C      1  0.4594180000000  0.5307510000000  0.4739230000000 1.0
C      1  0.4660680000000  0.5320570000000  0.5183980000000 1.0
C      1  0.4732120000000  0.5022170000000  0.5239980000000 1.0
C      1  0.3939730000000  0.4778640000000  0.5191620000000 1.0
C      1  0.4042410000000  0.4713280000000  0.4941140000000 1.0
C      1  0.3919400000000  0.5003870000000  0.4689780000000 1.0
C      1  0.3954860000000  0.5329660000000  0.4985160000000 1.0
C      1  0.3948790000000  0.5219750000000  0.5240360000000 1.0
C      1  0.4343080000000  0.5080770000000  0.5033430000000 1.0
C      1  0.4879840000000  0.4942050000000  0.4998340000000 1.0
END
