TITL C-2441164-471-1064 0.0191689050715857 125000 -21980.9664269325 0 0 148 (C1) n - 1
REM
REM in /home/bkarasulu/work/CARBON/AIRSS/Generating-Clusters/ReaxFF-fromJPCA2015/Units_Real/with-SteepDescent/Higher-Symm
REM
REM
REM
REM
REM
REM ./C.cell (1df0a924f5614ab8850e4351716899ee)
REM
REM compiler GCC version 9.2.1 20190827 (Red Hat 9.2.1-1)
REM options -cpp -mtune=generic -march=x86-64 -g -O0 -fpre-include=/usr/include/finclude/math-vector-fortran.h
REM seed -400193994 1950065581 1145018972 -1490437805 -1064962480 -587835268 174059797 412486657 117482544 -1340614784 -724844572 -208507013 -2134831920 -1644626120 -1755879359 -1618361048 1766571297 385251617 676951031 -469976407 -584387021 -319513460 1180219483 -5130964 795141865 919555106 -1232857210 51171273 1685243054 -1796044989 -2035182861 -2001049057 8313955
REM
CELL 1.54180   50.00000   50.00000   50.00000   90.00000   90.00000   90.00000
LATT -1
SFAC C  
C      1  0.4694020000000  0.5547300000000  0.4079830000000 1.0
C      1  0.4684640000000  0.5960690000000  0.4495420000000 1.0
C      1  0.4685110000000  0.6036740000000  0.5180150000000 1.0
C      1  0.4683030000000  0.5859450000000  0.5713040000000 1.0
C      1  0.4734260000000  0.5258740000000  0.6023300000000 1.0
C      1  0.4742650000000  0.4709220000000  0.5968610000000 1.0
C      1  0.4676310000000  0.4283340000000  0.5769600000000 1.0
C      1  0.4696020000000  0.3867070000000  0.5166270000000 1.0
C      1  0.4682050000000  0.3993980000000  0.4583190000000 1.0
C      1  0.4694200000000  0.4411780000000  0.4121650000000 1.0
C      1  0.4702010000000  0.5009390000000  0.3900080000000 1.0
C      1  0.4863680000000  0.5256740000000  0.5453280000000 1.0
C      1  0.4990450000000  0.4990150000000  0.5482950000000 1.0
C      1  0.4983290000000  0.4710810000000  0.5345100000000 1.0
C      1  0.4826840000000  0.4592290000000  0.5127400000000 1.0
C      1  0.4971330000000  0.4563490000000  0.4872810000000 1.0
C      1  0.4967610000000  0.4726160000000  0.4628340000000 1.0
C      1  0.4804220000000  0.4938630000000  0.4555520000000 1.0
C      1  0.4929750000000  0.5198870000000  0.4553180000000 1.0
C      1  0.4947790000000  0.5425610000000  0.4735870000000 1.0
C      1  0.4832660000000  0.5465430000000  0.4981050000000 1.0
C      1  0.4979570000000  0.5404170000000  0.5221480000000 1.0
C      1  0.4394740000000  0.5685210000000  0.5348160000000 1.0
C      1  0.4661100000000  0.5376730000000  0.5634610000000 1.0
C      1  0.4427700000000  0.4986100000000  0.5765300000000 1.0
C      1  0.4387540000000  0.4531140000000  0.5687690000000 1.0
C      1  0.4494570000000  0.4264460000000  0.5311230000000 1.0
C      1  0.4441790000000  0.4182190000000  0.4853870000000 1.0
C      1  0.4447630000000  0.4398810000000  0.4444550000000 1.0
C      1  0.4447410000000  0.4811500000000  0.4231280000000 1.0
C      1  0.4417210000000  0.5274100000000  0.4208130000000 1.0
C      1  0.4420600000000  0.5654250000000  0.4472820000000 1.0
C      1  0.4482920000000  0.5808380000000  0.4905550000000 1.0
C      1  0.5180320000000  0.4094130000000  0.4590310000000 1.0
C      1  0.5198860000000  0.4465860000000  0.4178260000000 1.0
C      1  0.5207130000000  0.4993620000000  0.4021710000000 1.0
C      1  0.5200330000000  0.5529120000000  0.4156120000000 1.0
C      1  0.5190130000000  0.5903490000000  0.4560700000000 1.0
C      1  0.5195490000000  0.6010120000000  0.5103410000000 1.0
C      1  0.5179050000000  0.5840200000000  0.5627410000000 1.0
C      1  0.5231880000000  0.5347750000000  0.5995250000000 1.0
C      1  0.5229330000000  0.4821390000000  0.6083610000000 1.0
C      1  0.5157730000000  0.4209880000000  0.5625280000000 1.0
C      1  0.5181340000000  0.4029470000000  0.5134910000000 1.0
C      1  0.4471620000000  0.4271230000000  0.5601040000000 1.0
C      1  0.4482660000000  0.4053300000000  0.5115320000000 1.0
C      1  0.4444570000000  0.4139280000000  0.4572900000000 1.0
C      1  0.4444820000000  0.4521790000000  0.4188920000000 1.0
C      1  0.4458830000000  0.5033390000000  0.4041960000000 1.0
C      1  0.4442880000000  0.5555950000000  0.4200420000000 1.0
C      1  0.4449260000000  0.5885840000000  0.4626670000000 1.0
C      1  0.4430890000000  0.5922750000000  0.5167910000000 1.0
C      1  0.4528330000000  0.5645450000000  0.5603360000000 1.0
C      1  0.4516200000000  0.5239490000000  0.5856730000000 1.0
C      1  0.4482530000000  0.4727840000000  0.5890810000000 1.0
C      1  0.5320480000000  0.4731360000000  0.4108210000000 1.0
C      1  0.5320270000000  0.5264640000000  0.4085070000000 1.0
C      1  0.5310990000000  0.5729000000000  0.4352870000000 1.0
C      1  0.5303470000000  0.5951410000000  0.4832700000000 1.0
C      1  0.5295570000000  0.5948930000000  0.5376260000000 1.0
C      1  0.5297960000000  0.5592080000000  0.5802410000000 1.0
C      1  0.5350110000000  0.5082610000000  0.6005490000000 1.0
C      1  0.5208070000000  0.4412680000000  0.5821780000000 1.0
C      1  0.5306150000000  0.4136340000000  0.5371810000000 1.0
C      1  0.5291740000000  0.4041960000000  0.4860690000000 1.0
C      1  0.5302010000000  0.4269580000000  0.4377860000000 1.0
C      1  0.5734710000000  0.4424350000000  0.5393040000000 1.0
C      1  0.5683760000000  0.4126890000000  0.5114640000000 1.0
C      1  0.5689940000000  0.4214400000000  0.4674340000000 1.0
C      1  0.5713650000000  0.4547330000000  0.4357600000000 1.0
C      1  0.5697000000000  0.5005140000000  0.4251500000000 1.0
C      1  0.5702680000000  0.5446990000000  0.4345520000000 1.0
C      1  0.5684130000000  0.5730340000000  0.4679840000000 1.0
C      1  0.5671990000000  0.5761510000000  0.5143770000000 1.0
C      1  0.5718850000000  0.5746650000000  0.5557030000000 1.0
C      1  0.5783220000000  0.5148980000000  0.5670110000000 1.0
C      1  0.5618600000000  0.4721150000000  0.5833100000000 1.0
C      1  0.5588060000000  0.5704050000000  0.4415740000000 1.0
C      1  0.5578550000000  0.5879530000000  0.4876730000000 1.0
C      1  0.5576090000000  0.5911210000000  0.5366880000000 1.0
C      1  0.5520130000000  0.5629620000000  0.5722000000000 1.0
C      1  0.5604950000000  0.5005580000000  0.5872010000000 1.0
C      1  0.5377940000000  0.4583660000000  0.5965830000000 1.0
C      1  0.5578210000000  0.4185290000000  0.5370770000000 1.0
C      1  0.5564160000000  0.4057950000000  0.4865460000000 1.0
C      1  0.5576180000000  0.4301480000000  0.4426400000000 1.0
C      1  0.5587070000000  0.4752910000000  0.4193680000000 1.0
C      1  0.5593570000000  0.5251400000000  0.4157570000000 1.0
C      1  0.5251650000000  0.4741840000000  0.4626600000000 1.0
C      1  0.5394180000000  0.4981810000000  0.4570610000000 1.0
C      1  0.5223490000000  0.5202540000000  0.4537560000000 1.0
C      1  0.5225690000000  0.5436000000000  0.4716400000000 1.0
C      1  0.5410330000000  0.5434900000000  0.4941270000000 1.0
C      1  0.5272070000000  0.5399350000000  0.5197460000000 1.0
C      1  0.5421540000000  0.5229980000000  0.5381690000000 1.0
C      1  0.5282930000000  0.4979750000000  0.5470640000000 1.0
C      1  0.5273870000000  0.4714900000000  0.5334370000000 1.0
C      1  0.5445840000000  0.4628120000000  0.5094140000000 1.0
C      1  0.5263860000000  0.4568080000000  0.4863720000000 1.0
C      1  0.5690880000000  0.5040870000000  0.4540230000000 1.0
C      1  0.5761470000000  0.5327740000000  0.4595010000000 1.0
C      1  0.5695530000000  0.5487540000000  0.4831180000000 1.0
C      1  0.5786230000000  0.5562030000000  0.5331710000000 1.0
C      1  0.5702290000000  0.5289350000000  0.5415000000000 1.0
C      1  0.5842770000000  0.4912580000000  0.5538440000000 1.0
C      1  0.5769440000000  0.4643680000000  0.5587350000000 1.0
C      1  0.5733270000000  0.4439280000000  0.5090800000000 1.0
C      1  0.5829530000000  0.4425330000000  0.4804210000000 1.0
C      1  0.5869080000000  0.4604380000000  0.4589830000000 1.0
C      1  0.5855820000000  0.4854050000000  0.4589210000000 1.0
C      1  0.4376490000000  0.4682980000000  0.5438470000000 1.0
C      1  0.4534640000000  0.4527080000000  0.5181910000000 1.0
C      1  0.4380360000000  0.4461760000000  0.4897420000000 1.0
C      1  0.4391460000000  0.4604040000000  0.4637570000000 1.0
C      1  0.4518080000000  0.4894760000000  0.4507860000000 1.0
C      1  0.4366370000000  0.5192930000000  0.4483420000000 1.0
C      1  0.4378820000000  0.5433810000000  0.4652880000000 1.0
C      1  0.4542980000000  0.5516780000000  0.4944790000000 1.0
C      1  0.4416560000000  0.5441710000000  0.5205280000000 1.0
C      1  0.4365600000000  0.5160490000000  0.5269810000000 1.0
C      1  0.4425760000000  0.4967130000000  0.5489250000000 1.0
C      1  0.4081370000000  0.5413440000000  0.4724330000000 1.0
C      1  0.4028240000000  0.5393740000000  0.4983680000000 1.0
C      1  0.3996880000000  0.5351580000000  0.5223600000000 1.0
C      1  0.3989680000000  0.5189710000000  0.5434510000000 1.0
C      1  0.3998300000000  0.4954240000000  0.5450640000000 1.0
C      1  0.4054890000000  0.4681620000000  0.5406520000000 1.0
C      1  0.4030120000000  0.4588060000000  0.5153830000000 1.0
C      1  0.4060850000000  0.4498570000000  0.4912180000000 1.0
C      1  0.4081670000000  0.4656610000000  0.4657130000000 1.0
C      1  0.4036530000000  0.4914390000000  0.4615700000000 1.0
C      1  0.4058410000000  0.5171200000000  0.4551450000000 1.0
C      1  0.4919240000000  0.3920680000000  0.5159120000000 1.0
C      1  0.4913950000000  0.4029720000000  0.4583080000000 1.0
C      1  0.4927320000000  0.4429540000000  0.4135660000000 1.0
C      1  0.4944080000000  0.4996690000000  0.3928470000000 1.0
C      1  0.4927300000000  0.5543490000000  0.4101800000000 1.0
C      1  0.4917890000000  0.5947080000000  0.4515700000000 1.0
C      1  0.4941470000000  0.6043630000000  0.5177760000000 1.0
C      1  0.4912630000000  0.5874310000000  0.5685610000000 1.0
C      1  0.4980340000000  0.5281350000000  0.6055730000000 1.0
C      1  0.4984320000000  0.4692900000000  0.6039290000000 1.0
C      1  0.4871870000000  0.4234390000000  0.5649360000000 1.0
C      1  0.4550400000000  0.5027540000000  0.5055300000000 1.0
C      1  0.5083450000000  0.5020030000000  0.5005110000000 1.0
C      1  0.4828360000000  0.5011980000000  0.5020880000000 1.0
C      1  0.5598140000000  0.4916280000000  0.5027260000000 1.0
C      1  0.5345670000000  0.5026450000000  0.4989280000000 1.0
END
