TITL C-2441162-9305-15 0.0153150312956031 125000 -15607.6483050847 0 0 111 (C1) n - 1
REM
REM in /home/bkarasulu/work/CARBON/AIRSS/Generating-Clusters/ReaxFF-fromJPCA2015/Units_Real/with-SteepDescent/Higher-Symm
REM
REM
REM
REM
REM
REM ./C.cell (1df0a924f5614ab8850e4351716899ee)
REM
REM compiler GCC version 9.2.1 20190827 (Red Hat 9.2.1-1)
REM options -cpp -mtune=generic -march=x86-64 -g -O0 -fpre-include=/usr/include/finclude/math-vector-fortran.h
REM seed -475774415 1852259233 -994948957 935577548 -2069654735 1395213188 1635696730 604223619 299742120 -1010512908 1388352408 1541264348 -337694910 -1741472112 1881581968 258874036 -1007695682 582797323 306283606 1907963775 1878018048 -415657574 -1668439358 -1872849609 1988065329 -2106990582 -441711997 890681838 -686716269 1064426763 703551488 -494188265 100413018
REM
CELL 1.54180   50.00000   50.00000   50.00000   90.00000   90.00000   90.00000
LATT -1
SFAC C  
C      1  0.4951350000000  0.4652530000000  0.5155610000000 1.0
C      1  0.5179060000000  0.4483570000000  0.5176420000000 1.0
C      1  0.5309590000000  0.4534370000000  0.4924440000000 1.0
C      1  0.5083400000000  0.4494210000000  0.4753420000000 1.0
C      1  0.4917180000000  0.4697950000000  0.4870650000000 1.0
C      1  0.4858920000000  0.5478360000000  0.4790680000000 1.0
C      1  0.5134370000000  0.5396990000000  0.4724240000000 1.0
C      1  0.5243150000000  0.5433210000000  0.5001970000000 1.0
C      1  0.5042510000000  0.5373730000000  0.5209480000000 1.0
C      1  0.4800180000000  0.5340830000000  0.5037480000000 1.0
C      1  0.4733170000000  0.4566860000000  0.5320440000000 1.0
C      1  0.5162050000000  0.4211570000000  0.5286430000000 1.0
C      1  0.5568030000000  0.4422950000000  0.4837650000000 1.0
C      1  0.5034020000000  0.4219610000000  0.4689300000000 1.0
C      1  0.4616060000000  0.4177950000000  0.4917820000000 1.0
C      1  0.4812920000000  0.5769540000000  0.4789500000000 1.0
C      1  0.5216240000000  0.5689050000000  0.4590990000000 1.0
C      1  0.5381770000000  0.5682520000000  0.5050890000000 1.0
C      1  0.4960940000000  0.5561620000000  0.5411030000000 1.0
C      1  0.4564580000000  0.5438000000000  0.5167260000000 1.0
C      1  0.4305760000000  0.4422450000000  0.5247670000000 1.0
C      1  0.4975650000000  0.4448090000000  0.5709740000000 1.0
C      1  0.5625140000000  0.4341060000000  0.5296060000000 1.0
C      1  0.5486570000000  0.4429410000000  0.4396090000000 1.0
C      1  0.4603400000000  0.4445790000000  0.4375000000000 1.0
C      1  0.4305390000000  0.5599140000000  0.4850890000000 1.0
C      1  0.4980240000000  0.5603950000000  0.4123740000000 1.0
C      1  0.5691120000000  0.5533080000000  0.4672110000000 1.0
C      1  0.5415900000000  0.5609820000000  0.5503110000000 1.0
C      1  0.4534600000000  0.5550050000000  0.5608650000000 1.0
C      1  0.5105330000000  0.5069810000000  0.4588160000000 1.0
C      1  0.4433780000000  0.5066810000000  0.4868680000000 1.0
C      1  0.4677000000000  0.5033390000000  0.5414800000000 1.0
C      1  0.5304370000000  0.5055630000000  0.5427770000000 1.0
C      1  0.5554210000000  0.5002410000000  0.4897120000000 1.0
C      1  0.5009530000000  0.4971590000000  0.5510710000000 1.0
C      1  0.4485520000000  0.4955690000000  0.5192060000000 1.0
C      1  0.4598030000000  0.4970760000000  0.4635170000000 1.0
C      1  0.5371140000000  0.4932140000000  0.4632180000000 1.0
C      1  0.5501490000000  0.4946210000000  0.5194920000000 1.0
C      1  0.4341660000000  0.5493930000000  0.4590460000000 1.0
C      1  0.4266990000000  0.5491550000000  0.5552250000000 1.0
C      1  0.5278110000000  0.5425120000000  0.5817120000000 1.0
C      1  0.5900080000000  0.5425760000000  0.4984390000000 1.0
C      1  0.5217250000000  0.5458440000000  0.4157590000000 1.0
C      1  0.4283770000000  0.4507060000000  0.5514800000000 1.0
C      1  0.4261080000000  0.4548720000000  0.4534230000000 1.0
C      1  0.5319390000000  0.4585880000000  0.4228990000000 1.0
C      1  0.5805020000000  0.4523990000000  0.5173000000000 1.0
C      1  0.5249190000000  0.4549890000000  0.5730710000000 1.0
C      1  0.3940990000000  0.4909240000000  0.4954840000000 1.0
C      1  0.4559240000000  0.4930570000000  0.5925170000000 1.0
C      1  0.5735210000000  0.4961400000000  0.5683080000000 1.0
C      1  0.5851000000000  0.4971540000000  0.4534850000000 1.0
C      1  0.4887980000000  0.4892290000000  0.4051730000000 1.0
C      1  0.3965670000000  0.5054230000000  0.5168820000000 1.0
C      1  0.4680470000000  0.5034200000000  0.4151340000000 1.0
C      1  0.5758100000000  0.5120620000000  0.4341420000000 1.0
C      1  0.5893730000000  0.5101810000000  0.5535290000000 1.0
C      1  0.4760170000000  0.5082160000000  0.5982100000000 1.0
C      1  0.5535260000000  0.5738060000000  0.4573930000000 1.0
C      1  0.4872570000000  0.5803950000000  0.4308960000000 1.0
C      1  0.4464180000000  0.5698380000000  0.5073230000000 1.0
C      1  0.4769840000000  0.5730830000000  0.5526120000000 1.0
C      1  0.5357680000000  0.5824050000000  0.5324320000000 1.0
C      1  0.5439650000000  0.4109400000000  0.5232150000000 1.0
C      1  0.4795040000000  0.4344080000000  0.5507560000000 1.0
C      1  0.4421720000000  0.4179700000000  0.5122360000000 1.0
C      1  0.4729940000000  0.4223490000000  0.4438440000000 1.0
C      1  0.5511090000000  0.4236730000000  0.4613890000000 1.0
C      1  0.5289520000000  0.4058780000000  0.4701260000000 1.0
C      1  0.4771850000000  0.4107470000000  0.4689040000000 1.0
C      1  0.4675240000000  0.4058030000000  0.5161660000000 1.0
C      1  0.4889730000000  0.4118160000000  0.5351250000000 1.0
C      1  0.5381830000000  0.4042720000000  0.4965440000000 1.0
C      1  0.5091040000000  0.5940050000000  0.5336030000000 1.0
C      1  0.4810280000000  0.5940540000000  0.5298800000000 1.0
C      1  0.4684640000000  0.5881320000000  0.5028970000000 1.0
C      1  0.4973160000000  0.5855330000000  0.4562190000000 1.0
C      1  0.5383790000000  0.5831840000000  0.4803510000000 1.0
C      1  0.5033140000000  0.4732260000000  0.5677590000000 1.0
C      1  0.5549170000000  0.4632520000000  0.5333090000000 1.0
C      1  0.5439230000000  0.4704930000000  0.4450310000000 1.0
C      1  0.4496060000000  0.4668210000000  0.4512950000000 1.0
C      1  0.4485880000000  0.4654520000000  0.5192800000000 1.0
C      1  0.4703300000000  0.5602860000000  0.4236110000000 1.0
C      1  0.5703720000000  0.5309750000000  0.4840930000000 1.0
C      1  0.5385210000000  0.5347170000000  0.5572080000000 1.0
C      1  0.4615270000000  0.5325970000000  0.5429630000000 1.0
C      1  0.4310050000000  0.5320950000000  0.4801950000000 1.0
C      1  0.4528680000000  0.5433170000000  0.4388150000000 1.0
C      1  0.4131760000000  0.5314320000000  0.5418810000000 1.0
C      1  0.5079580000000  0.5306760000000  0.5933460000000 1.0
C      1  0.5932730000000  0.5308880000000  0.5199900000000 1.0
C      1  0.5431630000000  0.5318050000000  0.4210370000000 1.0
C      1  0.4364210000000  0.4674660000000  0.5693670000000 1.0
C      1  0.4105590000000  0.4671760000000  0.4680490000000 1.0
C      1  0.5062840000000  0.4694020000000  0.4206000000000 1.0
C      1  0.5813070000000  0.4578760000000  0.4887870000000 1.0
C      1  0.5488550000000  0.4651220000000  0.5618520000000 1.0
C      1  0.5057140000000  0.4962310000000  0.4287240000000 1.0
C      1  0.4166350000000  0.4901430000000  0.4809710000000 1.0
C      1  0.4517290000000  0.4892860000000  0.5665810000000 1.0
C      1  0.5461030000000  0.4918380000000  0.5644610000000 1.0
C      1  0.5799800000000  0.4859490000000  0.4790490000000 1.0
C      1  0.4950680000000  0.5125490000000  0.5795980000000 1.0
C      1  0.4199690000000  0.5087760000000  0.5291130000000 1.0
C      1  0.4551320000000  0.5143930000000  0.4370360000000 1.0
C      1  0.5507990000000  0.5132130000000  0.4381670000000 1.0
C      1  0.5780230000000  0.5096940000000  0.5291100000000 1.0
C      1  0.4878590000000  0.4947960000000  0.4732680000000 1.0
END
