TITL C-2441165-58-1159 0.0493268926992435 125000 -9341.65333175085 0 0 70 (C1) n - 1
REM
REM in /home/bkarasulu/work/CARBON/AIRSS/Generating-Clusters/ReaxFF-fromJPCA2015/Units_Real/with-SteepDescent/Higher-Symm
REM
REM
REM
REM
REM
REM ./C.cell (1df0a924f5614ab8850e4351716899ee)
REM
REM compiler GCC version 9.2.1 20190827 (Red Hat 9.2.1-1)
REM options -cpp -mtune=generic -march=x86-64 -g -O0 -fpre-include=/usr/include/finclude/math-vector-fortran.h
REM seed -1472377882 -165278757 935911982 -330319508 -1294667059 331786589 -220138247 -1384947158 925021882 1912880318 249764924 1935045838 -1206627825 -738566359 465779112 942784190 -313692140 1568525544 96215800 1314811226 766114454 -1411594045 -122933208 215642439 2110824626 -1621165574 1319277848 -65180167 2093731481 1162959148 -1229485734 1010652959 1580532234
REM
CELL 1.54180   50.00000   50.00000   50.00000   90.00000   90.00000   90.00000
LATT -1
SFAC C  
C      1  0.4859150000000  0.4272250000000  0.5415350000000 1.0
C      1  0.4848700000000  0.4610630000000  0.5734570000000 1.0
C      1  0.4856240000000  0.5075190000000  0.5834630000000 1.0
C      1  0.4845620000000  0.5511250000000  0.5668250000000 1.0
C      1  0.4866900000000  0.5783490000000  0.5271030000000 1.0
C      1  0.4838510000000  0.5824280000000  0.4831080000000 1.0
C      1  0.4832540000000  0.5586450000000  0.4384020000000 1.0
C      1  0.4872230000000  0.5170740000000  0.4190720000000 1.0
C      1  0.4847170000000  0.4697360000000  0.4218090000000 1.0
C      1  0.4859890000000  0.4318060000000  0.4510080000000 1.0
C      1  0.4848350000000  0.4167800000000  0.4951360000000 1.0
C      1  0.5234280000000  0.5635560000000  0.4946700000000 1.0
C      1  0.5159380000000  0.5580030000000  0.4675850000000 1.0
C      1  0.5231260000000  0.5373050000000  0.4485170000000 1.0
C      1  0.5227170000000  0.4878840000000  0.4336460000000 1.0
C      1  0.5201120000000  0.4636620000000  0.4462560000000 1.0
C      1  0.5242230000000  0.4333040000000  0.4829800000000 1.0
C      1  0.5214220000000  0.4342090000000  0.5102160000000 1.0
C      1  0.5241900000000  0.4572400000000  0.5535680000000 1.0
C      1  0.5212610000000  0.4823670000000  0.5640690000000 1.0
C      1  0.5231700000000  0.5310680000000  0.5601840000000 1.0
C      1  0.5200350000000  0.5510920000000  0.5416740000000 1.0
C      1  0.5442030000000  0.4926620000000  0.5497610000000 1.0
C      1  0.5470300000000  0.5211710000000  0.5465060000000 1.0
C      1  0.5437760000000  0.5434360000000  0.5270580000000 1.0
C      1  0.5492140000000  0.5510670000000  0.4995880000000 1.0
C      1  0.5553460000000  0.5298440000000  0.4802620000000 1.0
C      1  0.5475580000000  0.5219500000000  0.4534430000000 1.0
C      1  0.5478420000000  0.4932320000000  0.4470170000000 1.0
C      1  0.5446530000000  0.4671130000000  0.4609900000000 1.0
C      1  0.5479420000000  0.4503010000000  0.4841150000000 1.0
C      1  0.5444170000000  0.4511630000000  0.5136470000000 1.0
C      1  0.5476790000000  0.4654010000000  0.5383220000000 1.0
C      1  0.4405190000000  0.4780860000000  0.5463700000000 1.0
C      1  0.4405710000000  0.5067010000000  0.5508370000000 1.0
C      1  0.4405560000000  0.5330080000000  0.5394140000000 1.0
C      1  0.4391100000000  0.5486810000000  0.5152680000000 1.0
C      1  0.4425310000000  0.5485870000000  0.4863440000000 1.0
C      1  0.4391260000000  0.5336080000000  0.4618130000000 1.0
C      1  0.4419330000000  0.5074850000000  0.4495910000000 1.0
C      1  0.4402550000000  0.4786830000000  0.4532400000000 1.0
C      1  0.4421900000000  0.4571440000000  0.4723650000000 1.0
C      1  0.4402290000000  0.4484950000000  0.4995750000000 1.0
C      1  0.4414070000000  0.4567830000000  0.5275240000000 1.0
C      1  0.5036870000000  0.5833650000000  0.5044980000000 1.0
C      1  0.4957190000000  0.5766630000000  0.4572820000000 1.0
C      1  0.5029810000000  0.5403130000000  0.4272200000000 1.0
C      1  0.5014680000000  0.4924550000000  0.4144850000000 1.0
C      1  0.5006630000000  0.4478170000000  0.4324070000000 1.0
C      1  0.5016940000000  0.4192300000000  0.4714350000000 1.0
C      1  0.5007430000000  0.4164760000000  0.5194340000000 1.0
C      1  0.5016930000000  0.4405730000000  0.5615760000000 1.0
C      1  0.5004660000000  0.4830500000000  0.5839930000000 1.0
C      1  0.5013600000000  0.5313010000000  0.5797630000000 1.0
C      1  0.5000210000000  0.5695990000000  0.5508120000000 1.0
C      1  0.4690020000000  0.5143820000000  0.4422660000000 1.0
C      1  0.4676710000000  0.4732010000000  0.4451430000000 1.0
C      1  0.4695960000000  0.4528810000000  0.4631360000000 1.0
C      1  0.4683190000000  0.4397760000000  0.5014040000000 1.0
C      1  0.4696910000000  0.4477520000000  0.5274300000000 1.0
C      1  0.4689200000000  0.4765030000000  0.5541390000000 1.0
C      1  0.4698870000000  0.5042630000000  0.5584250000000 1.0
C      1  0.4692030000000  0.5362850000000  0.5462480000000 1.0
C      1  0.4691310000000  0.5559960000000  0.5180300000000 1.0
C      1  0.4693430000000  0.5582210000000  0.4902300000000 1.0
C      1  0.4664360000000  0.5392860000000  0.4533550000000 1.0
C      1  0.4956170000000  0.4993750000000  0.5002640000000 1.0
C      1  0.4714660000000  0.4996790000000  0.5000950000000 1.0
C      1  0.5204590000000  0.5000100000000  0.4997780000000 1.0
C      1  0.5488990000000  0.5044740000000  0.4966970000000 1.0
END
