TITL C-2441165-58-467 0.0628192645620157 125000 -27299.4551595045 0 0 188 (C1) n - 1
REM
REM in /home/bkarasulu/work/CARBON/AIRSS/Generating-Clusters/ReaxFF-fromJPCA2015/Units_Real/with-SteepDescent/Higher-Symm
REM
REM
REM
REM
REM
REM ./C.cell (1df0a924f5614ab8850e4351716899ee)
REM
REM compiler GCC version 9.2.1 20190827 (Red Hat 9.2.1-1)
REM options -cpp -mtune=generic -march=x86-64 -g -O0 -fpre-include=/usr/include/finclude/math-vector-fortran.h
REM seed -1291756068 -738839127 1267984353 129333711 659229119 800272453 -1046182072 334042167 1621217153 2002698457 -512581459 1959840426 -538382967 -769270090 711019451 -134356015 926659129 -541806750 -1254090357 1813092292 -2006904016 -2062697390 312449198 1542015666 -419945713 -298214833 663645968 728824574 -1791317697 -36013816 36989645 1300384910 71216902
REM
CELL 1.54180   50.00000   50.00000   50.00000   90.00000   90.00000   90.00000
LATT -1
SFAC C  
C      1  0.4903270000000  0.5132790000000  0.5587950000000 1.0
C      1  0.5173220000000  0.5550650000000  0.4898520000000 1.0
C      1  0.5585580000000  0.4910820000000  0.5152180000000 1.0
C      1  0.4845660000000  0.4726830000000  0.4490100000000 1.0
C      1  0.5095630000000  0.5116460000000  0.4465900000000 1.0
C      1  0.5165170000000  0.4729240000000  0.5536340000000 1.0
C      1  0.5252940000000  0.4511500000000  0.5137540000000 1.0
C      1  0.4733970000000  0.5530770000000  0.5142130000000 1.0
C      1  0.4844690000000  0.4446750000000  0.4907340000000 1.0
C      1  0.5490950000000  0.5165540000000  0.4745140000000 1.0
C      1  0.4461230000000  0.4906150000000  0.4839970000000 1.0
C      1  0.4509460000000  0.5134440000000  0.5276340000000 1.0
C      1  0.5134380000000  0.5260430000000  0.5510670000000 1.0
C      1  0.4766860000000  0.5526340000000  0.4865130000000 1.0
C      1  0.4463470000000  0.4912780000000  0.5125680000000 1.0
C      1  0.5089590000000  0.4854630000000  0.4488200000000 1.0
C      1  0.4865390000000  0.5257270000000  0.4477330000000 1.0
C      1  0.4932540000000  0.4860960000000  0.5589450000000 1.0
C      1  0.4721860000000  0.4501190000000  0.5149570000000 1.0
C      1  0.5278860000000  0.5530790000000  0.5144420000000 1.0
C      1  0.5126300000000  0.4445540000000  0.4906160000000 1.0
C      1  0.4493230000000  0.5155880000000  0.4730710000000 1.0
C      1  0.5582820000000  0.4935080000000  0.4865510000000 1.0
C      1  0.5510960000000  0.5160010000000  0.5253800000000 1.0
C      1  0.4704170000000  0.4496230000000  0.4027420000000 1.0
C      1  0.4490110000000  0.4021840000000  0.4665810000000 1.0
C      1  0.4026890000000  0.4662080000000  0.4488720000000 1.0
C      1  0.4676460000000  0.5505590000000  0.5982020000000 1.0
C      1  0.5336940000000  0.4495850000000  0.5975920000000 1.0
C      1  0.5358620000000  0.5489320000000  0.4019130000000 1.0
C      1  0.4486850000000  0.5985120000000  0.5331680000000 1.0
C      1  0.5513550000000  0.4037240000000  0.5331980000000 1.0
C      1  0.5524520000000  0.5967940000000  0.4675120000000 1.0
C      1  0.4029990000000  0.5335670000000  0.5515040000000 1.0
C      1  0.5978120000000  0.4667640000000  0.5520940000000 1.0
C      1  0.5955940000000  0.5325090000000  0.4489680000000 1.0
C      1  0.5294460000000  0.4483990000000  0.4086140000000 1.0
C      1  0.5515250000000  0.4047820000000  0.4673590000000 1.0
C      1  0.5987590000000  0.4660930000000  0.4498130000000 1.0
C      1  0.5297470000000  0.5500590000000  0.5929590000000 1.0
C      1  0.4665330000000  0.4477490000000  0.5986180000000 1.0
C      1  0.4668080000000  0.5522100000000  0.4021470000000 1.0
C      1  0.5524050000000  0.5976880000000  0.5327660000000 1.0
C      1  0.4492780000000  0.4026870000000  0.5339620000000 1.0
C      1  0.4498560000000  0.5974310000000  0.4671390000000 1.0
C      1  0.5936720000000  0.5300440000000  0.5504810000000 1.0
C      1  0.4029920000000  0.4662650000000  0.5513800000000 1.0
C      1  0.4030690000000  0.5337810000000  0.4493910000000 1.0
C      1  0.4607010000000  0.5132410000000  0.4483040000000 1.0
C      1  0.5183190000000  0.4449720000000  0.4614130000000 1.0
C      1  0.4477660000000  0.4617940000000  0.5127120000000 1.0
C      1  0.4694130000000  0.4722890000000  0.5552170000000 1.0
C      1  0.5359780000000  0.5122670000000  0.5465850000000 1.0
C      1  0.5345560000000  0.4708810000000  0.4520450000000 1.0
C      1  0.5123880000000  0.5484330000000  0.5369950000000 1.0
C      1  0.4813070000000  0.4497090000000  0.5408650000000 1.0
C      1  0.4907210000000  0.5503750000000  0.4603680000000 1.0
C      1  0.4497140000000  0.5396990000000  0.4858880000000 1.0
C      1  0.5543290000000  0.4660370000000  0.4799680000000 1.0
C      1  0.5538660000000  0.5411270000000  0.5139760000000 1.0
C      1  0.5347150000000  0.5228030000000  0.4506860000000 1.0
C      1  0.4881750000000  0.4466280000000  0.4594000000000 1.0
C      1  0.5512750000000  0.4617550000000  0.5099660000000 1.0
C      1  0.5419220000000  0.4850290000000  0.5519410000000 1.0
C      1  0.4624650000000  0.5172990000000  0.5536010000000 1.0
C      1  0.4596640000000  0.4852720000000  0.4466270000000 1.0
C      1  0.4868630000000  0.5576840000000  0.5374180000000 1.0
C      1  0.5112340000000  0.4501950000000  0.5391870000000 1.0
C      1  0.5207480000000  0.5526960000000  0.4614080000000 1.0
C      1  0.5544220000000  0.5417390000000  0.4872390000000 1.0
C      1  0.4477090000000  0.4607680000000  0.4823080000000 1.0
C      1  0.4485910000000  0.5391170000000  0.5146730000000 1.0
C      1  0.3889630000000  0.5114170000000  0.5541310000000 1.0
C      1  0.5129260000000  0.5530620000000  0.3895180000000 1.0
C      1  0.5544740000000  0.3908170000000  0.5107140000000 1.0
C      1  0.3886710000000  0.4885420000000  0.4462360000000 1.0
C      1  0.6103170000000  0.5115230000000  0.4447270000000 1.0
C      1  0.6119370000000  0.4889390000000  0.5544910000000 1.0
C      1  0.5118810000000  0.4461270000000  0.6118920000000 1.0
C      1  0.4921670000000  0.5534470000000  0.6110550000000 1.0
C      1  0.4903170000000  0.4488740000000  0.3903320000000 1.0
C      1  0.5539700000000  0.6155410000000  0.4862640000000 1.0
C      1  0.4465930000000  0.3885840000000  0.4891430000000 1.0
C      1  0.4407790000000  0.6156070000000  0.5115020000000 1.0
C      1  0.6122230000000  0.5119890000000  0.5543720000000 1.0
C      1  0.4899260000000  0.5539750000000  0.3896150000000 1.0
C      1  0.4466800000000  0.3882790000000  0.5121620000000 1.0
C      1  0.6112340000000  0.4884560000000  0.4452110000000 1.0
C      1  0.3893050000000  0.5115520000000  0.4467140000000 1.0
C      1  0.3891000000000  0.4883930000000  0.5540710000000 1.0
C      1  0.4888570000000  0.4454830000000  0.6124180000000 1.0
C      1  0.5147350000000  0.5527380000000  0.6165830000000 1.0
C      1  0.5157280000000  0.4520200000000  0.3872760000000 1.0
C      1  0.4417850000000  0.6141710000000  0.4886810000000 1.0
C      1  0.5556980000000  0.3890020000000  0.4877290000000 1.0
C      1  0.5541570000000  0.6091380000000  0.5083810000000 1.0
C      1  0.4254280000000  0.5381060000000  0.5684080000000 1.0
C      1  0.5425000000000  0.5658820000000  0.4245860000000 1.0
C      1  0.5682480000000  0.4264550000000  0.5379840000000 1.0
C      1  0.4247180000000  0.4608950000000  0.4311240000000 1.0
C      1  0.5725300000000  0.5378510000000  0.4318050000000 1.0
C      1  0.5758740000000  0.4626270000000  0.5694320000000 1.0
C      1  0.5378250000000  0.4327650000000  0.5746070000000 1.0
C      1  0.4622400000000  0.5683460000000  0.5758310000000 1.0
C      1  0.4630550000000  0.4316950000000  0.4245800000000 1.0
C      1  0.5714150000000  0.5759760000000  0.4627020000000 1.0
C      1  0.4315640000000  0.4240450000000  0.4606580000000 1.0
C      1  0.4318030000000  0.5750950000000  0.5383510000000 1.0
C      1  0.5719870000000  0.5355660000000  0.5689230000000 1.0
C      1  0.4628930000000  0.5687070000000  0.4252120000000 1.0
C      1  0.4311330000000  0.4247160000000  0.5385200000000 1.0
C      1  0.5739510000000  0.4601480000000  0.4346960000000 1.0
C      1  0.4250550000000  0.5387320000000  0.4312590000000 1.0
C      1  0.4252680000000  0.4604990000000  0.5686150000000 1.0
C      1  0.4616840000000  0.4301420000000  0.5762710000000 1.0
C      1  0.5365740000000  0.5698050000000  0.5738570000000 1.0
C      1  0.5378400000000  0.4264720000000  0.4239860000000 1.0
C      1  0.4319830000000  0.5748370000000  0.4622860000000 1.0
C      1  0.5696350000000  0.4266670000000  0.4601910000000 1.0
C      1  0.5704730000000  0.5749900000000  0.5389760000000 1.0
C      1  0.5526800000000  0.5148310000000  0.4272210000000 1.0
C      1  0.5162810000000  0.4220610000000  0.5572220000000 1.0
C      1  0.4205800000000  0.5579660000000  0.5169900000000 1.0
C      1  0.5577200000000  0.4852070000000  0.5790850000000 1.0
C      1  0.4441650000000  0.5160680000000  0.5767490000000 1.0
C      1  0.4431050000000  0.4824770000000  0.4223370000000 1.0
C      1  0.5201420000000  0.5776240000000  0.4427540000000 1.0
C      1  0.4831650000000  0.4214890000000  0.4432120000000 1.0
C      1  0.4844430000000  0.5793440000000  0.5584290000000 1.0
C      1  0.4231950000000  0.4435360000000  0.4816690000000 1.0
C      1  0.5791630000000  0.5564280000000  0.4837390000000 1.0
C      1  0.5778740000000  0.4442600000000  0.5164590000000 1.0
C      1  0.4416760000000  0.5175070000000  0.4198910000000 1.0
C      1  0.4827950000000  0.4219020000000  0.5573870000000 1.0
C      1  0.5832980000000  0.5590260000000  0.5178430000000 1.0
C      1  0.4475990000000  0.4793000000000  0.5737460000000 1.0
C      1  0.5586610000000  0.5154880000000  0.5839740000000 1.0
C      1  0.5523640000000  0.4801380000000  0.4289040000000 1.0
C      1  0.4854590000000  0.5777020000000  0.4422070000000 1.0
C      1  0.5181470000000  0.4205390000000  0.4445790000000 1.0
C      1  0.5161440000000  0.5849710000000  0.5607520000000 1.0
C      1  0.5775260000000  0.4466020000000  0.4815190000000 1.0
C      1  0.4227610000000  0.5568490000000  0.4834560000000 1.0
C      1  0.4208620000000  0.4424250000000  0.5174050000000 1.0
C      1  0.5967350000000  0.4663630000000  0.5232460000000 1.0
C      1  0.4657520000000  0.5208330000000  0.5966300000000 1.0
C      1  0.5242330000000  0.5961230000000  0.4657120000000 1.0
C      1  0.5965420000000  0.5327410000000  0.4771860000000 1.0
C      1  0.4037060000000  0.4660720000000  0.4772270000000 1.0
C      1  0.4043600000000  0.5334510000000  0.5226990000000 1.0
C      1  0.4654770000000  0.4781660000000  0.4032460000000 1.0
C      1  0.5336220000000  0.5209980000000  0.4051350000000 1.0
C      1  0.5335190000000  0.4779730000000  0.5970480000000 1.0
C      1  0.5227220000000  0.4052450000000  0.5333460000000 1.0
C      1  0.4781220000000  0.5977510000000  0.5338280000000 1.0
C      1  0.4775390000000  0.4039820000000  0.4665250000000 1.0
C      1  0.4041800000000  0.4660560000000  0.5226760000000 1.0
C      1  0.5337860000000  0.5220370000000  0.5966700000000 1.0
C      1  0.4794690000000  0.5948430000000  0.4657250000000 1.0
C      1  0.4052880000000  0.5337400000000  0.4776630000000 1.0
C      1  0.5995670000000  0.4660120000000  0.4776130000000 1.0
C      1  0.5974380000000  0.5334980000000  0.5226570000000 1.0
C      1  0.5326770000000  0.4769330000000  0.4024100000000 1.0
C      1  0.4655050000000  0.5235070000000  0.4036240000000 1.0
C      1  0.4656580000000  0.4760970000000  0.5977490000000 1.0
C      1  0.4775720000000  0.4047250000000  0.5339530000000 1.0
C      1  0.5219730000000  0.5962860000000  0.5360170000000 1.0
C      1  0.5235700000000  0.4020410000000  0.4663810000000 1.0
C      1  0.4999870000000  0.6004480000000  0.5150470000000 1.0
C      1  0.6009130000000  0.5141930000000  0.4998460000000 1.0
C      1  0.5011260000000  0.5996660000000  0.4845290000000 1.0
C      1  0.5000970000000  0.4008980000000  0.5145940000000 1.0
C      1  0.6023390000000  0.4850170000000  0.5006630000000 1.0
C      1  0.4011110000000  0.5144350000000  0.5000550000000 1.0
C      1  0.4004710000000  0.4850440000000  0.4996600000000 1.0
C      1  0.5134390000000  0.5000290000000  0.3998490000000 1.0
C      1  0.4844030000000  0.4991250000000  0.6019360000000 1.0
C      1  0.5001420000000  0.3998580000000  0.4853480000000 1.0
C      1  0.5145220000000  0.4992240000000  0.6009670000000 1.0
C      1  0.4843070000000  0.5005570000000  0.3999330000000 1.0
C      1  0.4378130000000  0.5627890000000  0.5632940000000 1.0
C      1  0.5671500000000  0.5647190000000  0.4371540000000 1.0
C      1  0.5629310000000  0.4385550000000  0.5629810000000 1.0
C      1  0.4378380000000  0.5633340000000  0.4372740000000 1.0
C      1  0.5648810000000  0.4328660000000  0.4327430000000 1.0
C      1  0.4365300000000  0.4352220000000  0.5641810000000 1.0
C      1  0.4376320000000  0.4363050000000  0.4360280000000 1.0
C      1  0.5619410000000  0.5619820000000  0.5629870000000 1.0
END
