TITL C-2441166-8118-697 0.0144527785368008 125000 -20291.1552867003 0 0 138 (C1) n - 1
REM
REM in /home/bkarasulu/work/CARBON/AIRSS/Generating-Clusters/ReaxFF-fromJPCA2015/Units_Real/with-SteepDescent/Higher-Symm
REM
REM
REM
REM
REM
REM ./C.cell (1df0a924f5614ab8850e4351716899ee)
REM
REM compiler GCC version 9.2.1 20190827 (Red Hat 9.2.1-1)
REM options -cpp -mtune=generic -march=x86-64 -g -O0 -fpre-include=/usr/include/finclude/math-vector-fortran.h
REM seed -624947697 71069669 -1108166501 1235738885 788271812 -2113821955 1324698509 -1931177633 -1003636197 -526291580 1441626310 1333632652 658181802 -1188404730 293054766 -1763232437 -1438281881 -1156299900 1547140143 -715482690 1633547541 1215833150 2066867594 160167056 820601435 -1228473898 1246648435 2131309184 221637796 763986070 -1624210091 -962854654 1154287770
REM
CELL 1.54180   50.00000   50.00000   50.00000   90.00000   90.00000   90.00000
LATT -1
SFAC C  
C      1  0.4636230000000  0.5859660000000  0.5445740000000 1.0
C      1  0.4247070000000  0.5512160000000  0.5449510000000 1.0
C      1  0.4100350000000  0.5025670000000  0.5452510000000 1.0
C      1  0.4229230000000  0.4523850000000  0.5454430000000 1.0
C      1  0.4589140000000  0.4182120000000  0.5439480000000 1.0
C      1  0.5094060000000  0.4085710000000  0.5448220000000 1.0
C      1  0.5569210000000  0.4301340000000  0.5451850000000 1.0
C      1  0.5861180000000  0.4709320000000  0.5453330000000 1.0
C      1  0.5895590000000  0.5229120000000  0.5457560000000 1.0
C      1  0.5615980000000  0.5660300000000  0.5465480000000 1.0
C      1  0.5158680000000  0.5904780000000  0.5467740000000 1.0
C      1  0.5618540000000  0.4346750000000  0.4617750000000 1.0
C      1  0.5880880000000  0.4882560000000  0.4605740000000 1.0
C      1  0.5888590000000  0.5183370000000  0.4596700000000 1.0
C      1  0.5552480000000  0.5667000000000  0.4622150000000 1.0
C      1  0.5105410000000  0.5850450000000  0.4607230000000 1.0
C      1  0.4605070000000  0.5787370000000  0.4635070000000 1.0
C      1  0.4264840000000  0.5456750000000  0.4603180000000 1.0
C      1  0.4124580000000  0.4882160000000  0.4625700000000 1.0
C      1  0.4222710000000  0.4612720000000  0.4600280000000 1.0
C      1  0.4709710000000  0.4183470000000  0.4578980000000 1.0
C      1  0.5165370000000  0.4063080000000  0.4635260000000 1.0
C      1  0.4814710000000  0.5430950000000  0.5435530000000 1.0
C      1  0.4708890000000  0.5207030000000  0.5584510000000 1.0
C      1  0.4545850000000  0.5019010000000  0.5440230000000 1.0
C      1  0.4640690000000  0.4795070000000  0.5589540000000 1.0
C      1  0.4809540000000  0.4598400000000  0.5453150000000 1.0
C      1  0.5103100000000  0.4567760000000  0.5442630000000 1.0
C      1  0.5306840000000  0.4732340000000  0.5578780000000 1.0
C      1  0.5444060000000  0.4936850000000  0.5444960000000 1.0
C      1  0.5421200000000  0.5194140000000  0.5561940000000 1.0
C      1  0.5291330000000  0.5372950000000  0.5401830000000 1.0
C      1  0.5069970000000  0.5453280000000  0.5559450000000 1.0
C      1  0.4732440000000  0.5672180000000  0.4397130000000 1.0
C      1  0.4314740000000  0.5351740000000  0.4353580000000 1.0
C      1  0.4320990000000  0.5054090000000  0.4433240000000 1.0
C      1  0.4407220000000  0.4551100000000  0.4366190000000 1.0
C      1  0.4609220000000  0.4339670000000  0.4353360000000 1.0
C      1  0.4988980000000  0.4209800000000  0.4483370000000 1.0
C      1  0.5422020000000  0.4427000000000  0.4430600000000 1.0
C      1  0.5654700000000  0.4788610000000  0.4442610000000 1.0
C      1  0.5718820000000  0.5194320000000  0.4369070000000 1.0
C      1  0.5447340000000  0.5514730000000  0.4424240000000 1.0
C      1  0.5030500000000  0.5764540000000  0.4352810000000 1.0
C      1  0.4102960000000  0.4738450000000  0.5031430000000 1.0
C      1  0.4402210000000  0.4312400000000  0.4998110000000 1.0
C      1  0.4864200000000  0.4081000000000  0.5019850000000 1.0
C      1  0.5406300000000  0.4132900000000  0.5033820000000 1.0
C      1  0.5780290000000  0.4511140000000  0.5007450000000 1.0
C      1  0.5933660000000  0.5005660000000  0.5030850000000 1.0
C      1  0.5787520000000  0.5494210000000  0.5027320000000 1.0
C      1  0.5390590000000  0.5847130000000  0.5036650000000 1.0
C      1  0.4879350000000  0.5931170000000  0.5029360000000 1.0
C      1  0.4378750000000  0.5718050000000  0.5026380000000 1.0
C      1  0.4115570000000  0.5262160000000  0.5015740000000 1.0
C      1  0.4320790000000  0.4578670000000  0.5722060000000 1.0
C      1  0.4620320000000  0.4294730000000  0.5699760000000 1.0
C      1  0.5054780000000  0.4194140000000  0.5706490000000 1.0
C      1  0.5441200000000  0.4350580000000  0.5702430000000 1.0
C      1  0.5749400000000  0.4691710000000  0.5726930000000 1.0
C      1  0.5805940000000  0.5114290000000  0.5703170000000 1.0
C      1  0.5579030000000  0.5557260000000  0.5735200000000 1.0
C      1  0.5138740000000  0.5811660000000  0.5739820000000 1.0
C      1  0.4736750000000  0.5773660000000  0.5690900000000 1.0
C      1  0.4366590000000  0.5478000000000  0.5702630000000 1.0
C      1  0.4224440000000  0.5065450000000  0.5724750000000 1.0
C      1  0.4631520000000  0.5261810000000  0.4749190000000 1.0
C      1  0.4538390000000  0.5040380000000  0.4625740000000 1.0
C      1  0.4592090000000  0.4781220000000  0.4750960000000 1.0
C      1  0.4820870000000  0.4631270000000  0.4688780000000 1.0
C      1  0.5031050000000  0.4496080000000  0.4632870000000 1.0
C      1  0.5311970000000  0.4597800000000  0.4660760000000 1.0
C      1  0.5444840000000  0.4850570000000  0.4634540000000 1.0
C      1  0.5417330000000  0.5117900000000  0.4745860000000 1.0
C      1  0.5293310000000  0.5353430000000  0.4625370000000 1.0
C      1  0.5058790000000  0.5445340000000  0.4740020000000 1.0
C      1  0.4806910000000  0.5439290000000  0.4628980000000 1.0
C      1  0.5081260000000  0.4551540000000  0.4197220000000 1.0
C      1  0.5354480000000  0.4607010000000  0.4190290000000 1.0
C      1  0.5515010000000  0.4860870000000  0.4197900000000 1.0
C      1  0.5518070000000  0.5163140000000  0.4171780000000 1.0
C      1  0.5348270000000  0.5411970000000  0.4161730000000 1.0
C      1  0.5079500000000  0.5518180000000  0.4177880000000 1.0
C      1  0.4791660000000  0.5467250000000  0.4158970000000 1.0
C      1  0.4566120000000  0.5287910000000  0.4176720000000 1.0
C      1  0.4487060000000  0.5008810000000  0.4170630000000 1.0
C      1  0.4563530000000  0.4729600000000  0.4192340000000 1.0
C      1  0.4797080000000  0.4525990000000  0.4192490000000 1.0
C      1  0.5789000000000  0.5475570000000  0.5312350000000 1.0
C      1  0.5400740000000  0.5831410000000  0.5319400000000 1.0
C      1  0.4891250000000  0.5928600000000  0.5310480000000 1.0
C      1  0.4399460000000  0.5721140000000  0.5307540000000 1.0
C      1  0.4125760000000  0.5272420000000  0.5300400000000 1.0
C      1  0.4110630000000  0.4761200000000  0.5321930000000 1.0
C      1  0.4382130000000  0.4318920000000  0.5285990000000 1.0
C      1  0.4840500000000  0.4080790000000  0.5301130000000 1.0
C      1  0.5367140000000  0.4141090000000  0.5312940000000 1.0
C      1  0.5754340000000  0.4488710000000  0.5295470000000 1.0
C      1  0.5935340000000  0.4977300000000  0.5320670000000 1.0
C      1  0.5063370000000  0.5458490000000  0.5011670000000 1.0
C      1  0.4807670000000  0.5430640000000  0.5150360000000 1.0
C      1  0.4620690000000  0.5256540000000  0.5022950000000 1.0
C      1  0.4540710000000  0.5019390000000  0.5157580000000 1.0
C      1  0.4602200000000  0.4766420000000  0.5040790000000 1.0
C      1  0.4779140000000  0.4576710000000  0.5168460000000 1.0
C      1  0.5080080000000  0.4518810000000  0.5145110000000 1.0
C      1  0.5287000000000  0.4695510000000  0.5078970000000 1.0
C      1  0.5458660000000  0.4905550000000  0.5159560000000 1.0
C      1  0.5438460000000  0.5152260000000  0.5017010000000 1.0
C      1  0.5294760000000  0.5356380000000  0.5131610000000 1.0
C      1  0.5456480000000  0.4748390000000  0.5830610000000 1.0
C      1  0.5606220000000  0.5044960000000  0.5889830000000 1.0
C      1  0.5453400000000  0.5300080000000  0.5836720000000 1.0
C      1  0.5098920000000  0.5545400000000  0.5844460000000 1.0
C      1  0.4808040000000  0.5601850000000  0.5896150000000 1.0
C      1  0.4547470000000  0.5405300000000  0.5904420000000 1.0
C      1  0.4457270000000  0.5122700000000  0.5886590000000 1.0
C      1  0.4525610000000  0.4731050000000  0.5861090000000 1.0
C      1  0.4689140000000  0.4471040000000  0.5902620000000 1.0
C      1  0.4996550000000  0.4393870000000  0.5891730000000 1.0
C      1  0.5289640000000  0.4471780000000  0.5905010000000 1.0
C      1  0.5154860000000  0.4038830000000  0.4908740000000 1.0
C      1  0.5638720000000  0.4277400000000  0.4891470000000 1.0
C      1  0.5887540000000  0.4763410000000  0.4877240000000 1.0
C      1  0.5886110000000  0.5262780000000  0.4887140000000 1.0
C      1  0.5614070000000  0.5716030000000  0.4893380000000 1.0
C      1  0.5134930000000  0.5916640000000  0.4881270000000 1.0
C      1  0.4600000000000  0.5876650000000  0.4899720000000 1.0
C      1  0.4217470000000  0.5505240000000  0.4874280000000 1.0
C      1  0.4072860000000  0.4993200000000  0.4885740000000 1.0
C      1  0.4225290000000  0.4511370000000  0.4875290000000 1.0
C      1  0.4640400000000  0.4178460000000  0.4864110000000 1.0
C      1  0.5007630000000  0.4993080000000  0.5212750000000 1.0
C      1  0.5008080000000  0.5002920000000  0.4185970000000 1.0
C      1  0.5017190000000  0.4983570000000  0.4953850000000 1.0
C      1  0.4960020000000  0.5038880000000  0.5485500000000 1.0
C      1  0.5013060000000  0.5008920000000  0.4688720000000 1.0
C      1  0.5011090000000  0.5008720000000  0.4430480000000 1.0
END
