TITL C-2441169-1362-572 0.0568687139098286 125000 -22721.4316541469 0 0 154 (C1) n - 1
REM
REM in /home/bkarasulu/work/CARBON/AIRSS/Generating-Clusters/ReaxFF-fromJPCA2015/Units_Real/with-SteepDescent/Higher-Symm
REM
REM
REM
REM
REM
REM ./C.cell (1df0a924f5614ab8850e4351716899ee)
REM
REM compiler GCC version 9.2.1 20190827 (Red Hat 9.2.1-1)
REM options -cpp -mtune=generic -march=x86-64 -g -O0 -fpre-include=/usr/include/finclude/math-vector-fortran.h
REM seed -174581224 1022128959 468397650 869863215 1367569794 -1084424662 509920671 1326644887 -1541082769 2136562947 441018629 -285248006 -1839646285 451576080 210416332 2110845634 1729355807 2032988058 -1739550163 -765710161 2131134936 -1946934197 1269637301 596605154 1027167371 1773667442 -183819738 -380983102 1656182187 303666343 -1769303369 -478082419 -928313946
REM
CELL 1.54180   50.00000   50.00000   50.00000   90.00000   90.00000   90.00000
LATT -1
SFAC C  
C      1  0.5157190000000  0.5299320000000  0.5023600000000 1.0
C      1  0.5445920000000  0.5058210000000  0.5397650000000 1.0
C      1  0.5279130000000  0.4835990000000  0.5259430000000 1.0
C      1  0.5331430000000  0.4714520000000  0.4752980000000 1.0
C      1  0.5278870000000  0.5002080000000  0.4700660000000 1.0
C      1  0.4744490000000  0.4604070000000  0.5057080000000 1.0
C      1  0.4773840000000  0.4894470000000  0.5482360000000 1.0
C      1  0.4713850000000  0.5376480000000  0.5242730000000 1.0
C      1  0.4731920000000  0.5315450000000  0.4940930000000 1.0
C      1  0.4734680000000  0.4871730000000  0.4722150000000 1.0
C      1  0.4849940000000  0.4785350000000  0.4031270000000 1.0
C      1  0.4844980000000  0.5812080000000  0.4521330000000 1.0
C      1  0.4839940000000  0.5698350000000  0.5629410000000 1.0
C      1  0.4822180000000  0.4608050000000  0.5878950000000 1.0
C      1  0.4855430000000  0.4032260000000  0.4917880000000 1.0
C      1  0.5188330000000  0.5210700000000  0.4047860000000 1.0
C      1  0.5203640000000  0.4124150000000  0.4506000000000 1.0
C      1  0.5163170000000  0.4256750000000  0.5658420000000 1.0
C      1  0.5170590000000  0.5372120000000  0.5877210000000 1.0
C      1  0.5172790000000  0.5968350000000  0.4907120000000 1.0
C      1  0.4787740000000  0.4334790000000  0.4280710000000 1.0
C      1  0.4812180000000  0.5465090000000  0.4216180000000 1.0
C      1  0.4746690000000  0.5967100000000  0.5195770000000 1.0
C      1  0.4725700000000  0.5111230000000  0.5985780000000 1.0
C      1  0.4727110000000  0.4065260000000  0.5438100000000 1.0
C      1  0.5276010000000  0.5635070000000  0.4289080000000 1.0
C      1  0.5256870000000  0.4500160000000  0.4152770000000 1.0
C      1  0.5244010000000  0.4107590000000  0.5200630000000 1.0
C      1  0.5211720000000  0.4894280000000  0.5909640000000 1.0
C      1  0.5220710000000  0.5837130000000  0.5373250000000 1.0
C      1  0.4521650000000  0.4777510000000  0.5092440000000 1.0
C      1  0.4459960000000  0.4884170000000  0.4837610000000 1.0
C      1  0.4489560000000  0.5334120000000  0.4776410000000 1.0
C      1  0.4525360000000  0.5214110000000  0.5396790000000 1.0
C      1  0.4528110000000  0.4939170000000  0.5331270000000 1.0
C      1  0.5442620000000  0.5373220000000  0.5007630000000 1.0
C      1  0.5498490000000  0.5190200000000  0.4777900000000 1.0
C      1  0.5560740000000  0.4733000000000  0.4928030000000 1.0
C      1  0.5478730000000  0.4630370000000  0.5179810000000 1.0
C      1  0.5588330000000  0.5178600000000  0.5180300000000 1.0
C      1  0.4537910000000  0.5421270000000  0.4273070000000 1.0
C      1  0.4466070000000  0.5924520000000  0.5138000000000 1.0
C      1  0.4453520000000  0.5156750000000  0.5914980000000 1.0
C      1  0.4455860000000  0.4161200000000  0.5454120000000 1.0
C      1  0.4509210000000  0.4340760000000  0.4371030000000 1.0
C      1  0.5518410000000  0.4585160000000  0.4193300000000 1.0
C      1  0.5519190000000  0.4170070000000  0.5165350000000 1.0
C      1  0.5489290000000  0.4879830000000  0.5852110000000 1.0
C      1  0.5501060000000  0.5760950000000  0.5351940000000 1.0
C      1  0.5561150000000  0.5645910000000  0.4341780000000 1.0
C      1  0.5843020000000  0.5638390000000  0.5043430000000 1.0
C      1  0.5838910000000  0.5158320000000  0.5621850000000 1.0
C      1  0.5834700000000  0.4455610000000  0.5347960000000 1.0
C      1  0.5779860000000  0.4508790000000  0.4598170000000 1.0
C      1  0.5808790000000  0.5239770000000  0.4427580000000 1.0
C      1  0.4257730000000  0.4371380000000  0.5050090000000 1.0
C      1  0.4214020000000  0.4840190000000  0.5626840000000 1.0
C      1  0.4219810000000  0.5530520000000  0.5342910000000 1.0
C      1  0.4154580000000  0.5502020000000  0.4584470000000 1.0
C      1  0.4265610000000  0.4778180000000  0.4424720000000 1.0
C      1  0.4737200000000  0.4110450000000  0.4676220000000 1.0
C      1  0.4719520000000  0.5044960000000  0.4032860000000 1.0
C      1  0.4684240000000  0.5923360000000  0.4738810000000 1.0
C      1  0.4704650000000  0.5508850000000  0.5778320000000 1.0
C      1  0.4689380000000  0.4397300000000  0.5747030000000 1.0
C      1  0.5330960000000  0.5890830000000  0.4668600000000 1.0
C      1  0.5312460000000  0.4950490000000  0.4042600000000 1.0
C      1  0.5335120000000  0.4063780000000  0.4753560000000 1.0
C      1  0.5311070000000  0.4471970000000  0.5791380000000 1.0
C      1  0.5326680000000  0.5576220000000  0.5739120000000 1.0
C      1  0.4240870000000  0.4584240000000  0.5498820000000 1.0
C      1  0.4299070000000  0.4425310000000  0.4776420000000 1.0
C      1  0.4255540000000  0.5057620000000  0.4374980000000 1.0
C      1  0.4203850000000  0.5639300000000  0.4843540000000 1.0
C      1  0.4179690000000  0.5345100000000  0.5564890000000 1.0
C      1  0.5811390000000  0.5422610000000  0.5499560000000 1.0
C      1  0.5810490000000  0.5609050000000  0.4751320000000 1.0
C      1  0.5737610000000  0.4972660000000  0.4387850000000 1.0
C      1  0.5788090000000  0.4361820000000  0.4848150000000 1.0
C      1  0.5794550000000  0.4654330000000  0.5557120000000 1.0
C      1  0.4085770000000  0.5073320000000  0.5502770000000 1.0
C      1  0.4127720000000  0.4554720000000  0.5232170000000 1.0
C      1  0.4151730000000  0.4645950000000  0.4663370000000 1.0
C      1  0.4081290000000  0.5228910000000  0.4520760000000 1.0
C      1  0.4098800000000  0.5493250000000  0.5080390000000 1.0
C      1  0.5935720000000  0.4906780000000  0.5500920000000 1.0
C      1  0.5948570000000  0.5441590000000  0.5239000000000 1.0
C      1  0.5931130000000  0.5356980000000  0.4654900000000 1.0
C      1  0.5882650000000  0.4778240000000  0.4564380000000 1.0
C      1  0.5932320000000  0.4488050000000  0.5072560000000 1.0
C      1  0.4432370000000  0.4178920000000  0.5175940000000 1.0
C      1  0.4480620000000  0.4622750000000  0.4299500000000 1.0
C      1  0.4440820000000  0.5497480000000  0.4533340000000 1.0
C      1  0.4432150000000  0.5732030000000  0.5354430000000 1.0
C      1  0.4407030000000  0.4886050000000  0.5840080000000 1.0
C      1  0.5561340000000  0.5666470000000  0.5083360000000 1.0
C      1  0.5582260000000  0.5349800000000  0.4299860000000 1.0
C      1  0.5569480000000  0.4430060000000  0.4414730000000 1.0
C      1  0.5579070000000  0.4396310000000  0.5295420000000 1.0
C      1  0.5557350000000  0.5090490000000  0.5660220000000 1.0
C      1  0.4732010000000  0.5712600000000  0.5368330000000 1.0
C      1  0.4700360000000  0.4852050000000  0.5814930000000 1.0
C      1  0.4710730000000  0.4104830000000  0.5144780000000 1.0
C      1  0.4776590000000  0.4632630000000  0.4268390000000 1.0
C      1  0.4873960000000  0.5516200000000  0.4505970000000 1.0
C      1  0.5158370000000  0.4324880000000  0.5375670000000 1.0
C      1  0.5148480000000  0.5117120000000  0.5734440000000 1.0
C      1  0.5144690000000  0.5751780000000  0.5102970000000 1.0
C      1  0.5279800000000  0.5335880000000  0.4300880000000 1.0
C      1  0.5270610000000  0.4392840000000  0.4446850000000 1.0
C      1  0.3953540000000  0.5244660000000  0.5044440000000 1.0
C      1  0.3961330000000  0.5033780000000  0.5244680000000 1.0
C      1  0.3978600000000  0.4771500000000  0.5111830000000 1.0
C      1  0.3981570000000  0.4806130000000  0.4827430000000 1.0
C      1  0.3992790000000  0.5102710000000  0.4776190000000 1.0
C      1  0.6066310000000  0.4740560000000  0.5032380000000 1.0
C      1  0.6071800000000  0.4943510000000  0.5244700000000 1.0
C      1  0.6076510000000  0.5208750000000  0.5118490000000 1.0
C      1  0.6065610000000  0.5169650000000  0.4828280000000 1.0
C      1  0.6050640000000  0.4881760000000  0.4774020000000 1.0
C      1  0.4876130000000  0.6030760000000  0.4938600000000 1.0
C      1  0.4878700000000  0.5357680000000  0.5941720000000 1.0
C      1  0.4874020000000  0.4196680000000  0.5656730000000 1.0
C      1  0.4918790000000  0.4137480000000  0.4456190000000 1.0
C      1  0.4905410000000  0.5268060000000  0.4020750000000 1.0
C      1  0.5135840000000  0.4013400000000  0.4952720000000 1.0
C      1  0.5102480000000  0.4632990000000  0.5908990000000 1.0
C      1  0.5120130000000  0.5749530000000  0.5628820000000 1.0
C      1  0.5135600000000  0.5838790000000  0.4456120000000 1.0
C      1  0.5134370000000  0.4722530000000  0.4015240000000 1.0
C      1  0.5575000000000  0.4168990000000  0.4885560000000 1.0
C      1  0.5532100000000  0.4864880000000  0.4210210000000 1.0
C      1  0.5587660000000  0.5749310000000  0.4614430000000 1.0
C      1  0.5573820000000  0.5584200000000  0.5572600000000 1.0
C      1  0.5562580000000  0.4624750000000  0.5740440000000 1.0
C      1  0.4429190000000  0.5831190000000  0.4863790000000 1.0
C      1  0.4536330000000  0.5131350000000  0.4261920000000 1.0
C      1  0.4556220000000  0.4338580000000  0.4658410000000 1.0
C      1  0.4432880000000  0.4393270000000  0.5603790000000 1.0
C      1  0.4462340000000  0.5336830000000  0.5686150000000 1.0
C      1  0.5050310000000  0.5464410000000  0.4731490000000 1.0
C      1  0.5003660000000  0.5317290000000  0.5283470000000 1.0
C      1  0.5120470000000  0.4611590000000  0.5376590000000 1.0
C      1  0.5116960000000  0.4531430000000  0.4709630000000 1.0
C      1  0.5072980000000  0.5020310000000  0.4433350000000 1.0
C      1  0.4836660000000  0.4551330000000  0.4777500000000 1.0
C      1  0.4852090000000  0.4664450000000  0.5310620000000 1.0
C      1  0.4990460000000  0.5121450000000  0.5490550000000 1.0
C      1  0.4937160000000  0.5621240000000  0.4942110000000 1.0
C      1  0.4790090000000  0.5020730000000  0.4449580000000 1.0
C      1  0.5134400000000  0.5010200000000  0.4979340000000 1.0
C      1  0.4860510000000  0.5055320000000  0.4914660000000 1.0
C      1  0.5635550000000  0.5011670000000  0.4949210000000 1.0
C      1  0.4313840000000  0.5125950000000  0.4860440000000 1.0
END
