TITL C-2441161-5029-1286 0.00547498332399843 125000 -15799.6733452993 0 0 106 (C1) n - 1
REM
REM in /home/bkarasulu/work/CARBON/AIRSS/Generating-Clusters/ReaxFF-fromJPCA2015/Units_Real/with-SteepDescent/Higher-Symm
REM
REM
REM
REM
REM
REM ./C.cell (1df0a924f5614ab8850e4351716899ee)
REM
REM compiler GCC version 9.2.1 20190827 (Red Hat 9.2.1-1)
REM options -cpp -mtune=generic -march=x86-64 -g -O0 -fpre-include=/usr/include/finclude/math-vector-fortran.h
REM seed 353951357 -51250737 -2086963556 1977385520 1394356555 -1842071521 -237366131 2112456555 2011671376 -1074028865 1885767450 1899001230 -1240147910 625241623 1103807419 -1987316687 -1179059656 -569496267 -1569925965 -736834825 -1054799912 142024074 -768462998 255342298 2031974066 -1352863086 1255465968 -930993117 454141475 -2049153997 403815938 -473387759 2058194744
REM
CELL 1.54180   50.00000   50.00000   50.00000   90.00000   90.00000   90.00000
LATT -1
SFAC C  
C      1  0.4269030000000  0.4698550000000  0.5146420000000 1.0
C      1  0.4405460000000  0.5696040000000  0.5179690000000 1.0
C      1  0.5424090000000  0.5710760000000  0.5136240000000 1.0
C      1  0.5808650000000  0.4808650000000  0.5139740000000 1.0
C      1  0.5087850000000  0.4096970000000  0.5190020000000 1.0
C      1  0.4169940000000  0.5359500000000  0.4835300000000 1.0
C      1  0.4479900000000  0.4385580000000  0.4906210000000 1.0
C      1  0.5464770000000  0.4222330000000  0.4841520000000 1.0
C      1  0.5803200000000  0.5177060000000  0.4867310000000 1.0
C      1  0.5079440000000  0.5839950000000  0.4873910000000 1.0
C      1  0.4694270000000  0.5749340000000  0.5131740000000 1.0
C      1  0.5636540000000  0.5526960000000  0.5137560000000 1.0
C      1  0.5685470000000  0.4555360000000  0.5149040000000 1.0
C      1  0.4815690000000  0.4200000000000  0.5151730000000 1.0
C      1  0.4204610000000  0.4972010000000  0.5143420000000 1.0
C      1  0.4721820000000  0.4242210000000  0.4887560000000 1.0
C      1  0.5629350000000  0.4464830000000  0.4879720000000 1.0
C      1  0.5700530000000  0.5436410000000  0.4869210000000 1.0
C      1  0.4800180000000  0.5803310000000  0.4865510000000 1.0
C      1  0.4191940000000  0.5070110000000  0.4874780000000 1.0
C      1  0.5834070000000  0.4821750000000  0.4526530000000 1.0
C      1  0.5087340000000  0.4185570000000  0.4510850000000 1.0
C      1  0.4214050000000  0.4642440000000  0.4574080000000 1.0
C      1  0.4539950000000  0.5497840000000  0.4560190000000 1.0
C      1  0.5435660000000  0.5755060000000  0.4541010000000 1.0
C      1  0.5845620000000  0.5176370000000  0.5463290000000 1.0
C      1  0.5089250000000  0.5814570000000  0.5470370000000 1.0
C      1  0.4240520000000  0.5348510000000  0.5501790000000 1.0
C      1  0.4434270000000  0.4379080000000  0.5475730000000 1.0
C      1  0.5400960000000  0.4303730000000  0.5523590000000 1.0
C      1  0.4910300000000  0.5214370000000  0.4127190000000 1.0
C      1  0.5173490000000  0.5088320000000  0.4110990000000 1.0
C      1  0.5162200000000  0.4809130000000  0.4222800000000 1.0
C      1  0.4873410000000  0.4766090000000  0.4252370000000 1.0
C      1  0.4714540000000  0.5005630000000  0.4190340000000 1.0
C      1  0.4934190000000  0.4723750000000  0.5810330000000 1.0
C      1  0.5188500000000  0.4861280000000  0.5842400000000 1.0
C      1  0.5152330000000  0.5145950000000  0.5888350000000 1.0
C      1  0.4872060000000  0.5201830000000  0.5824390000000 1.0
C      1  0.4731580000000  0.4940010000000  0.5832980000000 1.0
C      1  0.4290120000000  0.5610440000000  0.5430210000000 1.0
C      1  0.5348800000000  0.5845860000000  0.5362850000000 1.0
C      1  0.5937710000000  0.4935370000000  0.5346660000000 1.0
C      1  0.5237240000000  0.4086920000000  0.5437480000000 1.0
C      1  0.4226130000000  0.4530760000000  0.5365950000000 1.0
C      1  0.4294750000000  0.4404420000000  0.4698350000000 1.0
C      1  0.5345390000000  0.4138780000000  0.4589900000000 1.0
C      1  0.5928650000000  0.5076760000000  0.4636760000000 1.0
C      1  0.5235230000000  0.5929910000000  0.4659010000000 1.0
C      1  0.4241750000000  0.5493070000000  0.4593010000000 1.0
C      1  0.4945650000000  0.4778890000000  0.4774090000000 1.0
C      1  0.4769900000000  0.5264120000000  0.4582060000000 1.0
C      1  0.5091510000000  0.5368480000000  0.5003960000000 1.0
C      1  0.5362150000000  0.4924900000000  0.4992990000000 1.0
C      1  0.5208300000000  0.4863680000000  0.4755710000000 1.0
C      1  0.4796360000000  0.5087370000000  0.5075690000000 1.0
C      1  0.4804600000000  0.4781730000000  0.5033260000000 1.0
C      1  0.5002170000000  0.4728870000000  0.5262750000000 1.0
C      1  0.5216960000000  0.4921810000000  0.5257600000000 1.0
C      1  0.5023430000000  0.5186580000000  0.5240200000000 1.0
C      1  0.5455810000000  0.4570180000000  0.4415960000000 1.0
C      1  0.4699950000000  0.4464500000000  0.4461150000000 1.0
C      1  0.4358570000000  0.5057830000000  0.4394610000000 1.0
C      1  0.4933970000000  0.5662950000000  0.4415880000000 1.0
C      1  0.5541160000000  0.5286790000000  0.4423840000000 1.0
C      1  0.5453890000000  0.5439990000000  0.5577110000000 1.0
C      1  0.4731970000000  0.5502850000000  0.5575090000000 1.0
C      1  0.4405800000000  0.4909820000000  0.5591740000000 1.0
C      1  0.4885010000000  0.4382530000000  0.5597100000000 1.0
C      1  0.5586130000000  0.4745680000000  0.5590170000000 1.0
C      1  0.5137880000000  0.4261570000000  0.5631580000000 1.0
C      1  0.4338420000000  0.4624620000000  0.5602070000000 1.0
C      1  0.4444260000000  0.5504720000000  0.5627500000000 1.0
C      1  0.5321620000000  0.5690580000000  0.5593540000000 1.0
C      1  0.5815190000000  0.4921780000000  0.5597550000000 1.0
C      1  0.5175460000000  0.5804810000000  0.4408980000000 1.0
C      1  0.4342070000000  0.5345870000000  0.4373630000000 1.0
C      1  0.4413100000000  0.4464040000000  0.4450910000000 1.0
C      1  0.5309240000000  0.4314480000000  0.4380740000000 1.0
C      1  0.5758230000000  0.5079990000000  0.4404340000000 1.0
C      1  0.5348040000000  0.4926580000000  0.5587600000000 1.0
C      1  0.4900000000000  0.4651400000000  0.5524360000000 1.0
C      1  0.4668250000000  0.4968980000000  0.5568850000000 1.0
C      1  0.4821960000000  0.5222930000000  0.5521260000000 1.0
C      1  0.5359830000000  0.5209190000000  0.5695210000000 1.0
C      1  0.5287780000000  0.5276310000000  0.4293820000000 1.0
C      1  0.4968660000000  0.5384540000000  0.4373270000000 1.0
C      1  0.4633450000000  0.5029940000000  0.4464510000000 1.0
C      1  0.4801420000000  0.4718540000000  0.4531630000000 1.0
C      1  0.5305390000000  0.4810240000000  0.4475710000000 1.0
C      1  0.5564280000000  0.4515590000000  0.5412630000000 1.0
C      1  0.4697150000000  0.4283700000000  0.5400230000000 1.0
C      1  0.4258380000000  0.5080550000000  0.5401880000000 1.0
C      1  0.4837450000000  0.5700210000000  0.5379760000000 1.0
C      1  0.5660470000000  0.5385500000000  0.5388390000000 1.0
C      1  0.5569120000000  0.5509960000000  0.4618590000000 1.0
C      1  0.4727210000000  0.5722120000000  0.4596330000000 1.0
C      1  0.4224020000000  0.4926570000000  0.4626010000000 1.0
C      1  0.4836530000000  0.4270080000000  0.4624230000000 1.0
C      1  0.5673020000000  0.4594760000000  0.4621480000000 1.0
C      1  0.5205470000000  0.5628460000000  0.4991980000000 1.0
C      1  0.5296030000000  0.4153550000000  0.5041330000000 1.0
C      1  0.4286970000000  0.5535430000000  0.4998980000000 1.0
C      1  0.4522420000000  0.4638570000000  0.5028590000000 1.0
C      1  0.5648180000000  0.4981020000000  0.4991570000000 1.0
C      1  0.4877140000000  0.5249470000000  0.4855460000000 1.0
END
