TITL C-2441163-1170-19 0.00867925011339203 125000 -11317.1109749065 0 0 78 (C1) n - 1
REM
REM in /home/bkarasulu/work/CARBON/AIRSS/Generating-Clusters/ReaxFF-fromJPCA2015/Units_Real/with-SteepDescent/Higher-Symm
REM
REM
REM
REM
REM
REM ./C.cell (1df0a924f5614ab8850e4351716899ee)
REM
REM compiler GCC version 9.2.1 20190827 (Red Hat 9.2.1-1)
REM options -cpp -mtune=generic -march=x86-64 -g -O0 -fpre-include=/usr/include/finclude/math-vector-fortran.h
REM seed 1761100884 -1962043437 1250446849 -784932075 -1039887802 376655781 -1076687918 1490086569 -1122561396 133214800 776929474 2065820103 1522632749 -199242516 15499869 1116859903 -982610454 -901689782 674646145 -702755866 915893275 209321734 17119367 2055509216 1122035802 1156838119 -2014269237 938428913 2038273280 -151811990 -1551550515 1222852974 -102002067
REM
CELL 1.54180   50.00000   50.00000   50.00000   90.00000   90.00000   90.00000
LATT -1
SFAC C  
C      1  0.4840080000000  0.5243860000000  0.4243220000000 1.0
C      1  0.5278650000000  0.4989720000000  0.4235580000000 1.0
C      1  0.4834130000000  0.4745610000000  0.4286150000000 1.0
C      1  0.4848260000000  0.5241540000000  0.5763030000000 1.0
C      1  0.5288350000000  0.4990120000000  0.5754650000000 1.0
C      1  0.4843890000000  0.4744370000000  0.5713040000000 1.0
C      1  0.5135390000000  0.5244960000000  0.4227930000000 1.0
C      1  0.4691500000000  0.5002460000000  0.4318180000000 1.0
C      1  0.5127260000000  0.4737770000000  0.4261620000000 1.0
C      1  0.5145060000000  0.5244080000000  0.5772590000000 1.0
C      1  0.4699500000000  0.5000130000000  0.5688410000000 1.0
C      1  0.5133860000000  0.4740140000000  0.5740840000000 1.0
C      1  0.5530440000000  0.5477160000000  0.5181970000000 1.0
C      1  0.5122070000000  0.4211300000000  0.5199880000000 1.0
C      1  0.4266100000000  0.5321730000000  0.5199510000000 1.0
C      1  0.5583890000000  0.5521940000000  0.4784660000000 1.0
C      1  0.5221420000000  0.4246000000000  0.4810300000000 1.0
C      1  0.4237440000000  0.5356070000000  0.4721190000000 1.0
C      1  0.4463370000000  0.5534830000000  0.5203600000000 1.0
C      1  0.4841050000000  0.4156090000000  0.5222250000000 1.0
C      1  0.5695240000000  0.5233540000000  0.5179450000000 1.0
C      1  0.4402710000000  0.5525640000000  0.4788880000000 1.0
C      1  0.4973280000000  0.4218080000000  0.4808200000000 1.0
C      1  0.5710730000000  0.5307190000000  0.4775600000000 1.0
C      1  0.4720170000000  0.5001380000000  0.4813600000000 1.0
C      1  0.5150140000000  0.5248460000000  0.4691620000000 1.0
C      1  0.5148270000000  0.4744660000000  0.4715210000000 1.0
C      1  0.4718940000000  0.4995620000000  0.5196120000000 1.0
C      1  0.5145330000000  0.5251060000000  0.5312050000000 1.0
C      1  0.5151510000000  0.4741310000000  0.5297700000000 1.0
C      1  0.5296380000000  0.5000100000000  0.4695600000000 1.0
C      1  0.4857600000000  0.5246170000000  0.4714240000000 1.0
C      1  0.4861290000000  0.4738120000000  0.4744380000000 1.0
C      1  0.5292780000000  0.5001090000000  0.5299210000000 1.0
C      1  0.4852680000000  0.5244660000000  0.5294790000000 1.0
C      1  0.4868030000000  0.4740500000000  0.5264590000000 1.0
C      1  0.4341440000000  0.4800220000000  0.4656310000000 1.0
C      1  0.5147070000000  0.5683260000000  0.4513460000000 1.0
C      1  0.5529800000000  0.4551070000000  0.4558230000000 1.0
C      1  0.4329940000000  0.4790850000000  0.5407420000000 1.0
C      1  0.5154040000000  0.5690500000000  0.5507650000000 1.0
C      1  0.5504480000000  0.4518830000000  0.5496590000000 1.0
C      1  0.5685340000000  0.4800700000000  0.4504490000000 1.0
C      1  0.4848330000000  0.5679520000000  0.4519810000000 1.0
C      1  0.4486510000000  0.4541290000000  0.4646070000000 1.0
C      1  0.5660770000000  0.4771710000000  0.5460370000000 1.0
C      1  0.4849430000000  0.5680870000000  0.5498540000000 1.0
C      1  0.4468110000000  0.4528760000000  0.5414610000000 1.0
C      1  0.4499310000000  0.4379840000000  0.4893030000000 1.0
C      1  0.4851440000000  0.5751270000000  0.4807660000000 1.0
C      1  0.5783120000000  0.4804770000000  0.4794140000000 1.0
C      1  0.4363780000000  0.4466850000000  0.5139910000000 1.0
C      1  0.4869680000000  0.5741190000000  0.5214650000000 1.0
C      1  0.5706640000000  0.4687080000000  0.5182930000000 1.0
C      1  0.5623700000000  0.4568860000000  0.4834110000000 1.0
C      1  0.5153330000000  0.5731760000000  0.4805210000000 1.0
C      1  0.4204430000000  0.4887990000000  0.4899280000000 1.0
C      1  0.5581280000000  0.4433900000000  0.5216120000000 1.0
C      1  0.5146040000000  0.5745980000000  0.5219430000000 1.0
C      1  0.4213910000000  0.4719480000000  0.5137500000000 1.0
C      1  0.4533830000000  0.5005790000000  0.4574760000000 1.0
C      1  0.5231220000000  0.5408930000000  0.4452910000000 1.0
C      1  0.5243860000000  0.4585660000000  0.4485230000000 1.0
C      1  0.4534070000000  0.4998020000000  0.5435980000000 1.0
C      1  0.5234160000000  0.5410570000000  0.5547890000000 1.0
C      1  0.5239530000000  0.4594020000000  0.5525140000000 1.0
C      1  0.5474170000000  0.4996170000000  0.4458030000000 1.0
C      1  0.4755730000000  0.5400620000000  0.4476490000000 1.0
C      1  0.4747690000000  0.4586320000000  0.4518520000000 1.0
C      1  0.5477570000000  0.4994740000000  0.5527540000000 1.0
C      1  0.4758110000000  0.5399020000000  0.5533850000000 1.0
C      1  0.4748710000000  0.4585920000000  0.5482630000000 1.0
C      1  0.5346670000000  0.4277390000000  0.5052300000000 1.0
C      1  0.4589310000000  0.5667840000000  0.4944480000000 1.0
C      1  0.4725250000000  0.4203470000000  0.4929870000000 1.0
C      1  0.5416580000000  0.5670130000000  0.4957550000000 1.0
C      1  0.4185500000000  0.5183530000000  0.4935560000000 1.0
C      1  0.5779320000000  0.5087860000000  0.4913950000000 1.0
END
