TITL C-2441165-58-1172 0.00165655827369061 125000 -6306.88563423951 0 0 47 (C1) n - 1
REM
REM in /home/bkarasulu/work/CARBON/AIRSS/Generating-Clusters/ReaxFF-fromJPCA2015/Units_Real/with-SteepDescent/Higher-Symm
REM
REM
REM
REM
REM
REM ./C.cell (1df0a924f5614ab8850e4351716899ee)
REM
REM compiler GCC version 9.2.1 20190827 (Red Hat 9.2.1-1)
REM options -cpp -mtune=generic -march=x86-64 -g -O0 -fpre-include=/usr/include/finclude/math-vector-fortran.h
REM seed -860278021 -403394536 -122659523 563950284 1565649581 -1246842138 956050107 38951582 -68102052 -2018434054 384455164 656474273 1166614322 2097010878 1474134512 -2046895420 1125469324 584156103 1541787697 -1489223579 493063529 1405300322 1157288590 -2021960741 -1277554730 918201057 1598508935 469176304 1333018797 -1525142532 -761716946 -1928795631 -277219529
REM
CELL 1.54180   50.00000   50.00000   50.00000   90.00000   90.00000   90.00000
LATT -1
SFAC C  
C      1  0.5142450000000  0.5632940000000  0.4757910000000 1.0
C      1  0.5621800000000  0.4744150000000  0.5150200000000 1.0
C      1  0.4759360000000  0.5096920000000  0.5649280000000 1.0
C      1  0.4941320000000  0.4314540000000  0.4738810000000 1.0
C      1  0.5046830000000  0.4365030000000  0.5224510000000 1.0
C      1  0.4873510000000  0.5621890000000  0.5246200000000 1.0
C      1  0.4304370000000  0.5268010000000  0.5057420000000 1.0
C      1  0.5618140000000  0.5240920000000  0.4875870000000 1.0
C      1  0.4360550000000  0.4782480000000  0.4959480000000 1.0
C      1  0.5257570000000  0.4926320000000  0.5679870000000 1.0
C      1  0.4746550000000  0.4871700000000  0.4384030000000 1.0
C      1  0.5239800000000  0.5151530000000  0.4372700000000 1.0
C      1  0.4472530000000  0.5489150000000  0.4684320000000 1.0
C      1  0.5464390000000  0.4707590000000  0.4471140000000 1.0
C      1  0.4688330000000  0.4484890000000  0.5493150000000 1.0
C      1  0.5528070000000  0.4540750000000  0.4693520000000 1.0
C      1  0.4483330000000  0.4507780000000  0.5314430000000 1.0
C      1  0.5521110000000  0.5479170000000  0.5303510000000 1.0
C      1  0.4530700000000  0.5314180000000  0.4476680000000 1.0
C      1  0.5486410000000  0.5317500000000  0.5533440000000 1.0
C      1  0.4508070000000  0.4695950000000  0.5526480000000 1.0
C      1  0.5307510000000  0.5527480000000  0.5475230000000 1.0
C      1  0.4699770000000  0.5536130000000  0.4534170000000 1.0
C      1  0.5316660000000  0.4480940000000  0.4519470000000 1.0
C      1  0.4932890000000  0.4574700000000  0.5364150000000 1.0
C      1  0.4535980000000  0.5355730000000  0.4934630000000 1.0
C      1  0.5317240000000  0.4935490000000  0.4571860000000 1.0
C      1  0.5071110000000  0.5420220000000  0.5350050000000 1.0
C      1  0.4927340000000  0.5433880000000  0.4680760000000 1.0
C      1  0.5066550000000  0.4545210000000  0.4652540000000 1.0
C      1  0.5424350000000  0.4670700000000  0.4930530000000 1.0
C      1  0.4569770000000  0.4642010000000  0.5071240000000 1.0
C      1  0.5414070000000  0.5340920000000  0.5074830000000 1.0
C      1  0.4654280000000  0.5077810000000  0.4585290000000 1.0
C      1  0.5355120000000  0.5068450000000  0.5460710000000 1.0
C      1  0.4644460000000  0.4932330000000  0.5426370000000 1.0
C      1  0.5710180000000  0.4981000000000  0.4990790000000 1.0
C      1  0.5033240000000  0.4986250000000  0.5701540000000 1.0
C      1  0.4972480000000  0.5729990000000  0.4985660000000 1.0
C      1  0.4289460000000  0.5027030000000  0.5001010000000 1.0
C      1  0.5004360000000  0.4987800000000  0.4287530000000 1.0
C      1  0.5000370000000  0.4296660000000  0.4979070000000 1.0
C      1  0.4807560000000  0.5186740000000  0.4824150000000 1.0
C      1  0.4809290000000  0.4813310000000  0.5194540000000 1.0
C      1  0.5176910000000  0.4818170000000  0.4820250000000 1.0
C      1  0.5182460000000  0.5183050000000  0.5195450000000 1.0
C      1  0.4992670000000  0.4997860000000  0.5006000000000 1.0
END
