TITL C-2441154-10-1206 0.0346866418822784 125000 -9973.22582657099 0 0 76 (C1) n - 1
REM
REM in /home/bkarasulu/work/CARBON/AIRSS/Generating-Clusters/ReaxFF-fromJPCA2015/Units_Real/with-SteepDescent/Higher-Symm
REM
REM
REM
REM
REM
REM ./C.cell (1df0a924f5614ab8850e4351716899ee)
REM
REM compiler GCC version 9.2.1 20190827 (Red Hat 9.2.1-1)
REM options -cpp -mtune=generic -march=x86-64 -g -O0 -fpre-include=/usr/include/finclude/math-vector-fortran.h
REM seed -401705111 643914267 676426554 733414374 -1611422316 -58477618 -1794435737 -1421327526 -2134046973 -852191636 -1593426599 2043711718 965587192 1089853070 -1894961654 1001771953 1427329183 -525186568 2017887853 -1690135059 807192867 2133736685 862834018 966123447 947657743 2009712306 131479023 -683539658 -130701313 984459269 671427399 -1067160067 -2025527412
REM
CELL 1.54180   50.00000   50.00000   50.00000   90.00000   90.00000   90.00000
LATT -1
SFAC C  
C      1  0.4562890000000  0.4353440000000  0.4823130000000 1.0
C      1  0.5096620000000  0.4375190000000  0.5420160000000 1.0
C      1  0.5263960000000  0.4478440000000  0.4772760000000 1.0
C      1  0.4960010000000  0.4274750000000  0.5179740000000 1.0
C      1  0.5205240000000  0.4310100000000  0.5011660000000 1.0
C      1  0.4842130000000  0.4284970000000  0.4826710000000 1.0
C      1  0.4860000000000  0.4499570000000  0.5514860000000 1.0
C      1  0.5530590000000  0.4507310000000  0.4864530000000 1.0
C      1  0.4591180000000  0.4486540000000  0.4562240000000 1.0
C      1  0.4881060000000  0.4398780000000  0.4564020000000 1.0
C      1  0.4711010000000  0.4412960000000  0.5280360000000 1.0
C      1  0.5450950000000  0.4403330000000  0.5123620000000 1.0
C      1  0.5150980000000  0.5016210000000  0.4339010000000 1.0
C      1  0.4340930000000  0.5009810000000  0.5213420000000 1.0
C      1  0.5529270000000  0.5019570000000  0.5464130000000 1.0
C      1  0.4613200000000  0.5442520000000  0.5263430000000 1.0
C      1  0.5429960000000  0.5433180000000  0.5192920000000 1.0
C      1  0.4987820000000  0.5456800000000  0.4528810000000 1.0
C      1  0.4839220000000  0.5175730000000  0.5687630000000 1.0
C      1  0.5751600000000  0.5182660000000  0.4769830000000 1.0
C      1  0.4483970000000  0.5174080000000  0.4511000000000 1.0
C      1  0.5413060000000  0.5149740000000  0.5036140000000 1.0
C      1  0.4770240000000  0.5137530000000  0.4624310000000 1.0
C      1  0.4779370000000  0.5132600000000  0.5365310000000 1.0
C      1  0.5436900000000  0.5059530000000  0.4387930000000 1.0
C      1  0.4255390000000  0.5056460000000  0.4932280000000 1.0
C      1  0.5318650000000  0.5056780000000  0.5677550000000 1.0
C      1  0.4813030000000  0.5678160000000  0.4612690000000 1.0
C      1  0.4752530000000  0.5674540000000  0.5377060000000 1.0
C      1  0.5429900000000  0.5673310000000  0.5000250000000 1.0
C      1  0.5111570000000  0.5323880000000  0.5221580000000 1.0
C      1  0.5119740000000  0.5293910000000  0.4756550000000 1.0
C      1  0.4751000000000  0.5319360000000  0.4992640000000 1.0
C      1  0.4474700000000  0.4493060000000  0.5099080000000 1.0
C      1  0.5368720000000  0.4516750000000  0.5407470000000 1.0
C      1  0.5156810000000  0.4505720000000  0.4462690000000 1.0
C      1  0.4713940000000  0.5054270000000  0.4889240000000 1.0
C      1  0.5037420000000  0.5051780000000  0.5280970000000 1.0
C      1  0.5325740000000  0.5115440000000  0.4768610000000 1.0
C      1  0.5340770000000  0.5525440000000  0.5470490000000 1.0
C      1  0.5274560000000  0.5545460000000  0.4483080000000 1.0
C      1  0.4418480000000  0.5533000000000  0.5048550000000 1.0
C      1  0.5712960000000  0.4840780000000  0.5055650000000 1.0
C      1  0.4716360000000  0.4828160000000  0.4368850000000 1.0
C      1  0.4595460000000  0.4838700000000  0.5583680000000 1.0
C      1  0.4312970000000  0.5166580000000  0.5475370000000 1.0
C      1  0.5751970000000  0.5169680000000  0.5340130000000 1.0
C      1  0.4948530000000  0.5164910000000  0.4166720000000 1.0
C      1  0.5041360000000  0.5579830000000  0.5453130000000 1.0
C      1  0.5452510000000  0.5639400000000  0.4713290000000 1.0
C      1  0.4581530000000  0.5587620000000  0.4793750000000 1.0
C      1  0.4224070000000  0.4544300000000  0.5161790000000 1.0
C      1  0.5530100000000  0.4550730000000  0.5616700000000 1.0
C      1  0.5274010000000  0.4516250000000  0.4238240000000 1.0
C      1  0.4340370000000  0.4959300000000  0.4669010000000 1.0
C      1  0.5047840000000  0.4957810000000  0.5726490000000 1.0
C      1  0.5639210000000  0.4964740000000  0.4606060000000 1.0
C      1  0.4857100000000  0.4746220000000  0.5674660000000 1.0
C      1  0.5677330000000  0.4738620000000  0.4792770000000 1.0
C      1  0.4487040000000  0.4753320000000  0.4528430000000 1.0
C      1  0.4823550000000  0.4793450000000  0.4976930000000 1.0
C      1  0.5083840000000  0.4806600000000  0.5125260000000 1.0
C      1  0.5075340000000  0.4744000000000  0.4827250000000 1.0
C      1  0.5824900000000  0.5107890000000  0.5052040000000 1.0
C      1  0.4673740000000  0.5083960000000  0.4239460000000 1.0
C      1  0.4517880000000  0.5100420000000  0.5674490000000 1.0
C      1  0.4955250000000  0.4906170000000  0.4542810000000 1.0
C      1  0.4604080000000  0.4902850000000  0.5293150000000 1.0
C      1  0.5456570000000  0.4908500000000  0.5192200000000 1.0
C      1  0.5645830000000  0.5414280000000  0.4632860000000 1.0
C      1  0.4377000000000  0.5421750000000  0.4652310000000 1.0
C      1  0.5014690000000  0.5420650000000  0.5705360000000 1.0
C      1  0.5477720000000  0.5354070000000  0.4397260000000 1.0
C      1  0.4246660000000  0.5349070000000  0.4902760000000 1.0
C      1  0.5297050000000  0.5348570000000  0.5697120000000 1.0
C      1  0.5007220000000  0.5354570000000  0.4986070000000 1.0
END
