TITL C-2441156-4686-1262 0.0646637534921634 125000 -16137.8067604839 0 0 118 (C1) n - 1
REM
REM in /home/bkarasulu/work/CARBON/AIRSS/Generating-Clusters/ReaxFF-fromJPCA2015/Units_Real/with-SteepDescent/Higher-Symm
REM
REM
REM
REM
REM
REM ./C.cell (1df0a924f5614ab8850e4351716899ee)
REM
REM compiler GCC version 9.2.1 20190827 (Red Hat 9.2.1-1)
REM options -cpp -mtune=generic -march=x86-64 -g -O0 -fpre-include=/usr/include/finclude/math-vector-fortran.h
REM seed 354582258 1774374462 1169956219 813167363 362615414 785949615 -276297487 -1422361322 1485365872 -1515509159 -532653791 2026701150 469434240 -865370947 1157525777 -134143871 -1872504737 -1298497793 266734951 -401396590 -1573139502 -229247184 850179231 303829436 321374048 -579480347 -1403451233 54414301 1651945488 1659445863 -1748203838 -396563081 -165977469
REM
CELL 1.54180   50.00000   50.00000   50.00000   90.00000   90.00000   90.00000
LATT -1
SFAC C  
C      1  0.5062790000000  0.5188780000000  0.4721950000000 1.0
C      1  0.5085180000000  0.4648980000000  0.4962550000000 1.0
C      1  0.5231370000000  0.5200860000000  0.5298100000000 1.0
C      1  0.4855650000000  0.5186780000000  0.5843920000000 1.0
C      1  0.4839310000000  0.5620310000000  0.4421590000000 1.0
C      1  0.4827140000000  0.4200050000000  0.4744520000000 1.0
C      1  0.4898750000000  0.4048100000000  0.5302210000000 1.0
C      1  0.4905790000000  0.5710040000000  0.5657880000000 1.0
C      1  0.4903480000000  0.5208570000000  0.4022800000000 1.0
C      1  0.4425210000000  0.4395040000000  0.5048510000000 1.0
C      1  0.4414300000000  0.5378310000000  0.5570100000000 1.0
C      1  0.4424600000000  0.5276940000000  0.4393060000000 1.0
C      1  0.4835070000000  0.4726460000000  0.4117050000000 1.0
C      1  0.4850220000000  0.4372090000000  0.5669040000000 1.0
C      1  0.4839890000000  0.5762020000000  0.5183350000000 1.0
C      1  0.5333380000000  0.4280330000000  0.4785470000000 1.0
C      1  0.5349420000000  0.5176010000000  0.5698650000000 1.0
C      1  0.5323560000000  0.5511230000000  0.4519800000000 1.0
C      1  0.4632480000000  0.5078070000000  0.4785280000000 1.0
C      1  0.4602340000000  0.4825090000000  0.4935050000000 1.0
C      1  0.4526870000000  0.4932170000000  0.5200470000000 1.0
C      1  0.5202930000000  0.5695940000000  0.5677370000000 1.0
C      1  0.5189790000000  0.5222730000000  0.4018870000000 1.0
C      1  0.5190430000000  0.4024480000000  0.5297350000000 1.0
C      1  0.4740910000000  0.5120080000000  0.5316570000000 1.0
C      1  0.4822930000000  0.5309900000000  0.4848650000000 1.0
C      1  0.4818910000000  0.4640950000000  0.4861280000000 1.0
C      1  0.5548340000000  0.5032620000000  0.4937530000000 1.0
C      1  0.5630950000000  0.4839970000000  0.5129810000000 1.0
C      1  0.5595360000000  0.5245060000000  0.5124940000000 1.0
C      1  0.4228350000000  0.4971620000000  0.5591710000000 1.0
C      1  0.4234030000000  0.5477420000000  0.4741870000000 1.0
C      1  0.4219270000000  0.4508920000000  0.4701740000000 1.0
C      1  0.5313000000000  0.4430800000000  0.5442870000000 1.0
C      1  0.5307660000000  0.5641990000000  0.5241710000000 1.0
C      1  0.5271090000000  0.4896550000000  0.4308640000000 1.0
C      1  0.5198570000000  0.4403880000000  0.4564590000000 1.0
C      1  0.5192630000000  0.4926140000000  0.5656070000000 1.0
C      1  0.5197530000000  0.5613580000000  0.4762670000000 1.0
C      1  0.5767260000000  0.5233360000000  0.4559050000000 1.0
C      1  0.5772380000000  0.4454730000000  0.5021970000000 1.0
C      1  0.5876530000000  0.5351120000000  0.5435430000000 1.0
C      1  0.5405820000000  0.4217670000000  0.5275790000000 1.0
C      1  0.5416290000000  0.5609830000000  0.5478710000000 1.0
C      1  0.5402210000000  0.5141360000000  0.4201080000000 1.0
C      1  0.5954980000000  0.5039520000000  0.4705250000000 1.0
C      1  0.5905620000000  0.4724830000000  0.5115120000000 1.0
C      1  0.6037690000000  0.5224510000000  0.5195220000000 1.0
C      1  0.5849610000000  0.4513300000000  0.4741610000000 1.0
C      1  0.5799150000000  0.5069480000000  0.5503160000000 1.0
C      1  0.5838770000000  0.5437230000000  0.4758410000000 1.0
C      1  0.4836490000000  0.4658520000000  0.5286700000000 1.0
C      1  0.4851530000000  0.5405360000000  0.5133550000000 1.0
C      1  0.4740330000000  0.4939560000000  0.4563980000000 1.0
C      1  0.5976270000000  0.4768420000000  0.4817600000000 1.0
C      1  0.5994420000000  0.4966900000000  0.5317310000000 1.0
C      1  0.6025420000000  0.5254410000000  0.4893300000000 1.0
C      1  0.5029930000000  0.5308270000000  0.4228200000000 1.0
C      1  0.5032170000000  0.4169570000000  0.5113810000000 1.0
C      1  0.5026920000000  0.5488770000000  0.5615630000000 1.0
C      1  0.4734670000000  0.5764890000000  0.5455700000000 1.0
C      1  0.4741550000000  0.4992890000000  0.4077720000000 1.0
C      1  0.4742420000000  0.4216660000000  0.5454470000000 1.0
C      1  0.4639420000000  0.5782400000000  0.4765210000000 1.0
C      1  0.4644770000000  0.4401770000000  0.4443620000000 1.0
C      1  0.4665400000000  0.4826230000000  0.5766210000000 1.0
C      1  0.5040900000000  0.4937550000000  0.4571340000000 1.0
C      1  0.5129450000000  0.4649530000000  0.5258000000000 1.0
C      1  0.5143550000000  0.5415370000000  0.5122790000000 1.0
C      1  0.4550380000000  0.5021880000000  0.4302030000000 1.0
C      1  0.4586570000000  0.4420670000000  0.5312770000000 1.0
C      1  0.4483420000000  0.5623160000000  0.5433110000000 1.0
C      1  0.5123530000000  0.4681830000000  0.4157820000000 1.0
C      1  0.5138030000000  0.4428000000000  0.5695710000000 1.0
C      1  0.5073240000000  0.5931790000000  0.5078640000000 1.0
C      1  0.5260500000000  0.4918230000000  0.5363430000000 1.0
C      1  0.5273330000000  0.5081410000000  0.4872440000000 1.0
C      1  0.5227010000000  0.4820660000000  0.4784220000000 1.0
C      1  0.5283570000000  0.4478400000000  0.4297870000000 1.0
C      1  0.5285620000000  0.4662170000000  0.5771940000000 1.0
C      1  0.5298490000000  0.5857870000000  0.4911810000000 1.0
C      1  0.4213230000000  0.4750680000000  0.4540820000000 1.0
C      1  0.4326080000000  0.4798910000000  0.5369880000000 1.0
C      1  0.4234180000000  0.5421940000000  0.5026410000000 1.0
C      1  0.4380110000000  0.5639430000000  0.5160730000000 1.0
C      1  0.4392720000000  0.4776590000000  0.4322700000000 1.0
C      1  0.4426350000000  0.4556410000000  0.5501790000000 1.0
C      1  0.4622520000000  0.4552300000000  0.5709110000000 1.0
C      1  0.4582490000000  0.5802560000000  0.5038080000000 1.0
C      1  0.4602740000000  0.4601420000000  0.4247030000000 1.0
C      1  0.4427300000000  0.4320530000000  0.4615600000000 1.0
C      1  0.4437530000000  0.5006120000000  0.5794920000000 1.0
C      1  0.4426640000000  0.5661090000000  0.4613580000000 1.0
C      1  0.5125080000000  0.5317430000000  0.5815880000000 1.0
C      1  0.5095350000000  0.5544190000000  0.4339890000000 1.0
C      1  0.5083300000000  0.4135340000000  0.4848020000000 1.0
C      1  0.5507980000000  0.4674830000000  0.4353000000000 1.0
C      1  0.5495280000000  0.4610550000000  0.5583990000000 1.0
C      1  0.5513990000000  0.5724660000000  0.5098500000000 1.0
C      1  0.5450330000000  0.5309800000000  0.5449760000000 1.0
C      1  0.5506650000000  0.5288110000000  0.4432250000000 1.0
C      1  0.5512330000000  0.4330350000000  0.5028460000000 1.0
C      1  0.4223320000000  0.5232670000000  0.4591060000000 1.0
C      1  0.4231650000000  0.4597360000000  0.4977490000000 1.0
C      1  0.4204050000000  0.5212220000000  0.5437800000000 1.0
C      1  0.5648850000000  0.5484960000000  0.4988960000000 1.0
C      1  0.5685310000000  0.4626070000000  0.4546890000000 1.0
C      1  0.5553740000000  0.4854380000000  0.5412770000000 1.0
C      1  0.4152470000000  0.4971900000000  0.4715460000000 1.0
C      1  0.4161010000000  0.4899660000000  0.4998060000000 1.0
C      1  0.4174980000000  0.5160240000000  0.5148000000000 1.0
C      1  0.4560500000000  0.5530900000000  0.4392350000000 1.0
C      1  0.4552460000000  0.4218010000000  0.4851390000000 1.0
C      1  0.4574000000000  0.5262010000000  0.5789350000000 1.0
C      1  0.4895330000000  0.5636430000000  0.4703690000000 1.0
C      1  0.4869280000000  0.4454450000000  0.4628740000000 1.0
C      1  0.4865230000000  0.4994390000000  0.5625460000000 1.0
C      1  0.4930570000000  0.4991880000000  0.5137510000000 1.0
END
