TITL C-2441162-9305-961 0.0493851784157906 125000 -19724.8417872104 0 0 143 (C1) n - 1
REM
REM in /home/bkarasulu/work/CARBON/AIRSS/Generating-Clusters/ReaxFF-fromJPCA2015/Units_Real/with-SteepDescent/Higher-Symm
REM
REM
REM
REM
REM
REM ./C.cell (1df0a924f5614ab8850e4351716899ee)
REM
REM compiler GCC version 9.2.1 20190827 (Red Hat 9.2.1-1)
REM options -cpp -mtune=generic -march=x86-64 -g -O0 -fpre-include=/usr/include/finclude/math-vector-fortran.h
REM seed -156137396 -1932447155 -902904225 -1517559893 -704144435 1498354041 292453305 670216382 -806887934 400340431 959159890 145059332 1170526953 1523376286 -1430112880 -691184970 1337673225 -168934223 -1510305830 1315467128 -207314339 262780796 -314407308 -640087411 930064763 1974967093 -1084853436 -1434647234 1106214060 251154440 -35560362 166580897 -1058394725
REM
CELL 1.54180   50.00000   50.00000   50.00000   90.00000   90.00000   90.00000
LATT -1
SFAC C  
C      1  0.4329660000000  0.5436780000000  0.4983730000000 1.0
C      1  0.4855870000000  0.4331420000000  0.5415640000000 1.0
C      1  0.5447200000000  0.4911520000000  0.4276640000000 1.0
C      1  0.5562660000000  0.4678950000000  0.4919260000000 1.0
C      1  0.5698680000000  0.5412260000000  0.5029510000000 1.0
C      1  0.4357570000000  0.4615980000000  0.5103560000000 1.0
C      1  0.5037460000000  0.5711500000000  0.5398170000000 1.0
C      1  0.5091810000000  0.4435140000000  0.4695450000000 1.0
C      1  0.4890190000000  0.5603810000000  0.4569180000000 1.0
C      1  0.4580220000000  0.5162850000000  0.4320780000000 1.0
C      1  0.4634790000000  0.5004310000000  0.5668840000000 1.0
C      1  0.5405400000000  0.5042110000000  0.5672350000000 1.0
C      1  0.4614080000000  0.5002190000000  0.4088600000000 1.0
C      1  0.4094100000000  0.4575710000000  0.4997920000000 1.0
C      1  0.5144090000000  0.4111660000000  0.4401620000000 1.0
C      1  0.5454780000000  0.4700410000000  0.4068420000000 1.0
C      1  0.5379450000000  0.5304600000000  0.5839590000000 1.0
C      1  0.4499430000000  0.4883720000000  0.5882650000000 1.0
C      1  0.5847280000000  0.5354010000000  0.5267030000000 1.0
C      1  0.5937590000000  0.4496920000000  0.4905520000000 1.0
C      1  0.4093240000000  0.5438680000000  0.4839280000000 1.0
C      1  0.4982420000000  0.5877090000000  0.4548630000000 1.0
C      1  0.4759190000000  0.4091290000000  0.5288950000000 1.0
C      1  0.5173700000000  0.5938860000000  0.5512890000000 1.0
C      1  0.4796480000000  0.5777430000000  0.5502860000000 1.0
C      1  0.5450510000000  0.4759670000000  0.5788120000000 1.0
C      1  0.5846220000000  0.5444100000000  0.4772790000000 1.0
C      1  0.5224300000000  0.4122100000000  0.5373210000000 1.0
C      1  0.5267400000000  0.5826700000000  0.4508040000000 1.0
C      1  0.4872910000000  0.4141910000000  0.4505780000000 1.0
C      1  0.4501560000000  0.5171490000000  0.5818380000000 1.0
C      1  0.4543890000000  0.4724310000000  0.4132060000000 1.0
C      1  0.5487550000000  0.5185400000000  0.4187700000000 1.0
C      1  0.4211380000000  0.4513870000000  0.4737240000000 1.0
C      1  0.4211440000000  0.5475870000000  0.5225940000000 1.0
C      1  0.5853780000000  0.4515080000000  0.5193990000000 1.0
C      1  0.5477310000000  0.4121610000000  0.5214430000000 1.0
C      1  0.5263780000000  0.5432700000000  0.4101140000000 1.0
C      1  0.4110920000000  0.5232220000000  0.5408370000000 1.0
C      1  0.4588190000000  0.5816540000000  0.5285850000000 1.0
C      1  0.4632410000000  0.4131720000000  0.4815110000000 1.0
C      1  0.5469760000000  0.5834990000000  0.4729800000000 1.0
C      1  0.4751590000000  0.4524360000000  0.4152340000000 1.0
C      1  0.4845410000000  0.5372630000000  0.5863520000000 1.0
C      1  0.5257570000000  0.4520090000000  0.5793890000000 1.0
C      1  0.5805020000000  0.4758940000000  0.5376450000000 1.0
C      1  0.5867100000000  0.5229720000000  0.4548070000000 1.0
C      1  0.4206590000000  0.4741390000000  0.4549050000000 1.0
C      1  0.5786070000000  0.4473100000000  0.4649340000000 1.0
C      1  0.4531790000000  0.5652440000000  0.4423030000000 1.0
C      1  0.4350500000000  0.4646300000000  0.5805740000000 1.0
C      1  0.4210620000000  0.5642630000000  0.4666650000000 1.0
C      1  0.4317000000000  0.4416950000000  0.5462550000000 1.0
C      1  0.5684620000000  0.5554140000000  0.5406160000000 1.0
C      1  0.5375790000000  0.4313090000000  0.4370070000000 1.0
C      1  0.5387910000000  0.5772300000000  0.5578060000000 1.0
C      1  0.4482290000000  0.4404550000000  0.5701220000000 1.0
C      1  0.5593510000000  0.5424910000000  0.5663070000000 1.0
C      1  0.5583150000000  0.4510610000000  0.4273000000000 1.0
C      1  0.4289090000000  0.5500720000000  0.4420400000000 1.0
C      1  0.4478840000000  0.5662080000000  0.4803060000000 1.0
C      1  0.4776140000000  0.4380580000000  0.5685490000000 1.0
C      1  0.5720650000000  0.4702220000000  0.4456030000000 1.0
C      1  0.5538050000000  0.4416680000000  0.4804410000000 1.0
C      1  0.5533770000000  0.5622200000000  0.5157490000000 1.0
C      1  0.4387290000000  0.4350270000000  0.5195480000000 1.0
C      1  0.5214520000000  0.5538490000000  0.5552080000000 1.0
C      1  0.5185120000000  0.4517780000000  0.4446980000000 1.0
C      1  0.4740770000000  0.5468700000000  0.4311670000000 1.0
C      1  0.4314540000000  0.5208100000000  0.4415180000000 1.0
C      1  0.4212470000000  0.4693680000000  0.5542400000000 1.0
C      1  0.5667830000000  0.5153620000000  0.5582170000000 1.0
C      1  0.4816140000000  0.4634230000000  0.5013850000000 1.0
C      1  0.4860990000000  0.4757210000000  0.4516870000000 1.0
C      1  0.4575980000000  0.4996560000000  0.4791550000000 1.0
C      1  0.5203050000000  0.5433800000000  0.4998370000000 1.0
C      1  0.5250890000000  0.4553130000000  0.5219480000000 1.0
C      1  0.4766920000000  0.5415890000000  0.4978890000000 1.0
C      1  0.4998010000000  0.5166380000000  0.4619430000000 1.0
C      1  0.4976990000000  0.4813100000000  0.5415980000000 1.0
C      1  0.4974210000000  0.5218280000000  0.5378340000000 1.0
C      1  0.5468620000000  0.5174920000000  0.4719450000000 1.0
C      1  0.5344440000000  0.5011270000000  0.5169220000000 1.0
C      1  0.4580380000000  0.5006540000000  0.5198010000000 1.0
C      1  0.5181950000000  0.5020160000000  0.5402520000000 1.0
C      1  0.5416770000000  0.5238660000000  0.4995070000000 1.0
C      1  0.4980020000000  0.5401080000000  0.5169130000000 1.0
C      1  0.4761030000000  0.5006850000000  0.5414700000000 1.0
C      1  0.4750800000000  0.5021270000000  0.4563000000000 1.0
C      1  0.5246310000000  0.5016980000000  0.4617850000000 1.0
C      1  0.4580870000000  0.4792790000000  0.5007930000000 1.0
C      1  0.4566030000000  0.5200680000000  0.4990390000000 1.0
C      1  0.5334160000000  0.4758350000000  0.5053010000000 1.0
C      1  0.4968340000000  0.4571200000000  0.5255390000000 1.0
C      1  0.4989560000000  0.5408390000000  0.4769660000000 1.0
C      1  0.4953650000000  0.4661890000000  0.4774680000000 1.0
C      1  0.5427320000000  0.4175020000000  0.4932350000000 1.0
C      1  0.4982080000000  0.5474570000000  0.4136980000000 1.0
C      1  0.4153520000000  0.4949930000000  0.5426490000000 1.0
C      1  0.4591380000000  0.5856470000000  0.4998290000000 1.0
C      1  0.4554290000000  0.4142000000000  0.5091150000000 1.0
C      1  0.5394590000000  0.5839850000000  0.5011220000000 1.0
C      1  0.4977360000000  0.4671720000000  0.4259270000000 1.0
C      1  0.5126030000000  0.5447230000000  0.5821940000000 1.0
C      1  0.4973600000000  0.4538180000000  0.5844150000000 1.0
C      1  0.5874000000000  0.5058930000000  0.5391240000000 1.0
C      1  0.5837050000000  0.4944570000000  0.4588000000000 1.0
C      1  0.4171650000000  0.5026330000000  0.4587420000000 1.0
C      1  0.5012660000000  0.4019390000000  0.5186280000000 1.0
C      1  0.5141140000000  0.5144100000000  0.3956060000000 1.0
C      1  0.3960260000000  0.5075670000000  0.5095420000000 1.0
C      1  0.4834570000000  0.6017000000000  0.5009710000000 1.0
C      1  0.4917820000000  0.4052260000000  0.4902510000000 1.0
C      1  0.5025820000000  0.6041150000000  0.4786960000000 1.0
C      1  0.4860900000000  0.5050550000000  0.3938260000000 1.0
C      1  0.4930340000000  0.5110880000000  0.6007250000000 1.0
C      1  0.5158580000000  0.4945210000000  0.5997770000000 1.0
C      1  0.5944620000000  0.5016400000000  0.5059230000000 1.0
C      1  0.6093170000000  0.5242370000000  0.4978600000000 1.0
C      1  0.3953380000000  0.4811780000000  0.5045770000000 1.0
C      1  0.5245160000000  0.4289290000000  0.5618010000000 1.0
C      1  0.5708100000000  0.5306120000000  0.4322580000000 1.0
C      1  0.4371600000000  0.5649170000000  0.5366850000000 1.0
C      1  0.4708300000000  0.5564450000000  0.5685640000000 1.0
C      1  0.4707590000000  0.4296820000000  0.4324990000000 1.0
C      1  0.5304710000000  0.5571300000000  0.4370430000000 1.0
C      1  0.4361640000000  0.4634310000000  0.4336490000000 1.0
C      1  0.4293940000000  0.5280500000000  0.5644540000000 1.0
C      1  0.5623180000000  0.4670320000000  0.5575850000000 1.0
C      1  0.5678060000000  0.4309430000000  0.5303400000000 1.0
C      1  0.5668920000000  0.5641150000000  0.4663390000000 1.0
C      1  0.4431380000000  0.4325620000000  0.4701140000000 1.0
C      1  0.5153430000000  0.4197020000000  0.4836120000000 1.0
C      1  0.5052750000000  0.4930470000000  0.4113250000000 1.0
C      1  0.4053100000000  0.5147590000000  0.4828100000000 1.0
C      1  0.5121400000000  0.5930690000000  0.5045050000000 1.0
C      1  0.4939410000000  0.4835140000000  0.5873730000000 1.0
C      1  0.5726130000000  0.4917570000000  0.4857830000000 1.0
C      1  0.5437440000000  0.4457340000000  0.5431050000000 1.0
C      1  0.4440420000000  0.5524230000000  0.5600840000000 1.0
C      1  0.5511060000000  0.5430920000000  0.4532430000000 1.0
C      1  0.4466220000000  0.4390400000000  0.4436730000000 1.0
C      1  0.5162060000000  0.4850440000000  0.4846080000000 1.0
END
