TITL C-2441157-2117-1198 0.0124503422119379 125000 -18400.3765576085 0 0 122 (C1) n - 1
REM
REM in /home/bkarasulu/work/CARBON/AIRSS/Generating-Clusters/ReaxFF-fromJPCA2015/Units_Real/with-SteepDescent/Higher-Symm
REM
REM
REM
REM
REM
REM ./C.cell (1df0a924f5614ab8850e4351716899ee)
REM
REM compiler GCC version 9.2.1 20190827 (Red Hat 9.2.1-1)
REM options -cpp -mtune=generic -march=x86-64 -g -O0 -fpre-include=/usr/include/finclude/math-vector-fortran.h
REM seed 1571523736 641790690 1075804479 109467480 790769308 1734025396 -799491193 1384602544 -1405267335 1694597312 1184519455 -121413560 1988777090 -74213661 413075129 1476132851 1504694820 557882937 1349987924 -749165475 -879741412 -1922600382 239522820 1373190413 -50103911 -1570194470 -331436850 337650800 413056537 106329521 -1779332322 -2122394960 1882416579
REM
CELL 1.54180   50.00000   50.00000   50.00000   90.00000   90.00000   90.00000
LATT -1
SFAC C  
C      1  0.5038760000000  0.4254140000000  0.4315880000000 1.0
C      1  0.5309660000000  0.4328540000000  0.4325660000000 1.0
C      1  0.5700400000000  0.4707980000000  0.4347130000000 1.0
C      1  0.5700610000000  0.4974340000000  0.4326450000000 1.0
C      1  0.5489250000000  0.5499980000000  0.4354610000000 1.0
C      1  0.5279470000000  0.5706770000000  0.4363570000000 1.0
C      1  0.5005440000000  0.5635490000000  0.4292220000000 1.0
C      1  0.4404640000000  0.5450780000000  0.4323680000000 1.0
C      1  0.4286040000000  0.5196120000000  0.4336780000000 1.0
C      1  0.4322190000000  0.4672910000000  0.4364630000000 1.0
C      1  0.4519440000000  0.4495010000000  0.4335740000000 1.0
C      1  0.4640190000000  0.4799550000000  0.5147300000000 1.0
C      1  0.4778250000000  0.4593120000000  0.5263630000000 1.0
C      1  0.5023340000000  0.4577690000000  0.5148540000000 1.0
C      1  0.5262690000000  0.4628680000000  0.5267130000000 1.0
C      1  0.5390070000000  0.4847280000000  0.5128080000000 1.0
C      1  0.5469640000000  0.5092870000000  0.5266850000000 1.0
C      1  0.5336510000000  0.5324620000000  0.5270150000000 1.0
C      1  0.5089690000000  0.5398470000000  0.5124310000000 1.0
C      1  0.4832890000000  0.5445540000000  0.5252420000000 1.0
C      1  0.4619060000000  0.5279510000000  0.5285210000000 1.0
C      1  0.4534540000000  0.5024160000000  0.5272810000000 1.0
C      1  0.5797570000000  0.4648750000000  0.4572660000000 1.0
C      1  0.5731300000000  0.5168340000000  0.4607960000000 1.0
C      1  0.5660160000000  0.5453990000000  0.4573790000000 1.0
C      1  0.5214300000000  0.5832210000000  0.4590790000000 1.0
C      1  0.4725290000000  0.5695600000000  0.4588870000000 1.0
C      1  0.4446630000000  0.5598690000000  0.4562020000000 1.0
C      1  0.4284570000000  0.5071820000000  0.4601460000000 1.0
C      1  0.4210730000000  0.4632670000000  0.4586890000000 1.0
C      1  0.4663850000000  0.4350890000000  0.4605680000000 1.0
C      1  0.4908660000000  0.4190850000000  0.4555520000000 1.0
C      1  0.5406680000000  0.4413330000000  0.4587030000000 1.0
C      1  0.5238070000000  0.5191580000000  0.4725090000000 1.0
C      1  0.5120100000000  0.5443980000000  0.4831710000000 1.0
C      1  0.4871980000000  0.5455070000000  0.4680730000000 1.0
C      1  0.4777270000000  0.5177640000000  0.4722100000000 1.0
C      1  0.4541300000000  0.5010340000000  0.4729410000000 1.0
C      1  0.4601220000000  0.4778350000000  0.4876810000000 1.0
C      1  0.4764690000000  0.4598340000000  0.4745140000000 1.0
C      1  0.5025970000000  0.4585060000000  0.4864440000000 1.0
C      1  0.5272230000000  0.4639090000000  0.4718180000000 1.0
C      1  0.5436340000000  0.4821220000000  0.4853450000000 1.0
C      1  0.5489330000000  0.5059940000000  0.4734060000000 1.0
C      1  0.4714050000000  0.4264870000000  0.5627950000000 1.0
C      1  0.4986350000000  0.4200850000000  0.5640240000000 1.0
C      1  0.5410410000000  0.4480960000000  0.5672150000000 1.0
C      1  0.5749280000000  0.4719260000000  0.5588950000000 1.0
C      1  0.5722090000000  0.5163680000000  0.5680370000000 1.0
C      1  0.5467780000000  0.5491210000000  0.5694490000000 1.0
C      1  0.5204150000000  0.5803380000000  0.5610590000000 1.0
C      1  0.4761870000000  0.5712620000000  0.5669880000000 1.0
C      1  0.4403130000000  0.5409250000000  0.5687240000000 1.0
C      1  0.4201660000000  0.5056560000000  0.5655540000000 1.0
C      1  0.4400170000000  0.4638000000000  0.5654820000000 1.0
C      1  0.4354100000000  0.4359230000000  0.5255030000000 1.0
C      1  0.4800100000000  0.4091340000000  0.5233360000000 1.0
C      1  0.5284500000000  0.4158910000000  0.5232040000000 1.0
C      1  0.5712350000000  0.4450460000000  0.5243620000000 1.0
C      1  0.5929200000000  0.4894880000000  0.5257720000000 1.0
C      1  0.5783910000000  0.5406850000000  0.5268750000000 1.0
C      1  0.5455050000000  0.5791670000000  0.5232250000000 1.0
C      1  0.4949140000000  0.5941510000000  0.5238860000000 1.0
C      1  0.4467080000000  0.5721270000000  0.5258170000000 1.0
C      1  0.4168630000000  0.5320250000000  0.5228720000000 1.0
C      1  0.4121200000000  0.4790170000000  0.5253560000000 1.0
C      1  0.5770420000000  0.5142920000000  0.5377720000000 1.0
C      1  0.5547100000000  0.5542170000000  0.5386040000000 1.0
C      1  0.5221010000000  0.5932490000000  0.5361190000000 1.0
C      1  0.4743180000000  0.5745150000000  0.5356130000000 1.0
C      1  0.4358170000000  0.5480250000000  0.5375580000000 1.0
C      1  0.4223540000000  0.5053120000000  0.5352420000000 1.0
C      1  0.4256740000000  0.4580630000000  0.5405520000000 1.0
C      1  0.4646070000000  0.4313380000000  0.5346450000000 1.0
C      1  0.5050620000000  0.4083740000000  0.5375720000000 1.0
C      1  0.5433560000000  0.4406040000000  0.5367580000000 1.0
C      1  0.5863790000000  0.4648500000000  0.5371350000000 1.0
C      1  0.4102090000000  0.5078270000000  0.4828340000000 1.0
C      1  0.4146160000000  0.4553160000000  0.4841600000000 1.0
C      1  0.4532130000000  0.4209180000000  0.4835040000000 1.0
C      1  0.5014450000000  0.4095460000000  0.4802500000000 1.0
C      1  0.5510590000000  0.4268470000000  0.4819580000000 1.0
C      1  0.5883230000000  0.4632370000000  0.4834610000000 1.0
C      1  0.5903930000000  0.5153400000000  0.4853810000000 1.0
C      1  0.5666450000000  0.5588110000000  0.4825970000000 1.0
C      1  0.5231250000000  0.5927650000000  0.4833350000000 1.0
C      1  0.4702680000000  0.5860940000000  0.4831860000000 1.0
C      1  0.4313400000000  0.5565270000000  0.4815600000000 1.0
C      1  0.5538900000000  0.5274580000000  0.5843780000000 1.0
C      1  0.5215260000000  0.5605610000000  0.5804000000000 1.0
C      1  0.4929930000000  0.5507450000000  0.5772730000000 1.0
C      1  0.4625400000000  0.5519900000000  0.5835930000000 1.0
C      1  0.4434270000000  0.5150010000000  0.5802740000000 1.0
C      1  0.4331890000000  0.4870000000000  0.5786920000000 1.0
C      1  0.4642360000000  0.4502230000000  0.5754480000000 1.0
C      1  0.4907950000000  0.4566100000000  0.5810740000000 1.0
C      1  0.5141340000000  0.4420140000000  0.5764860000000 1.0
C      1  0.5560730000000  0.4705460000000  0.5780380000000 1.0
C      1  0.5498370000000  0.4997810000000  0.5774030000000 1.0
C      1  0.4318410000000  0.4339270000000  0.4973990000000 1.0
C      1  0.4765970000000  0.4082450000000  0.4952790000000 1.0
C      1  0.5277400000000  0.4138870000000  0.4946810000000 1.0
C      1  0.5724670000000  0.4414650000000  0.4963000000000 1.0
C      1  0.5942830000000  0.4896730000000  0.4971450000000 1.0
C      1  0.5826270000000  0.5401190000000  0.4987420000000 1.0
C      1  0.5483290000000  0.5787260000000  0.4952320000000 1.0
C      1  0.4944570000000  0.5959100000000  0.4959940000000 1.0
C      1  0.4464820000000  0.5753970000000  0.4975370000000 1.0
C      1  0.4161990000000  0.5340470000000  0.4945990000000 1.0
C      1  0.4080670000000  0.4812780000000  0.4971770000000 1.0
C      1  0.5378310000000  0.5323670000000  0.4164030000000 1.0
C      1  0.5129550000000  0.5437670000000  0.4085740000000 1.0
C      1  0.4853350000000  0.5497270000000  0.4094660000000 1.0
C      1  0.4594010000000  0.5378500000000  0.4128440000000 1.0
C      1  0.4479780000000  0.5101490000000  0.4125690000000 1.0
C      1  0.4580720000000  0.4838140000000  0.4090820000000 1.0
C      1  0.4696410000000  0.4578970000000  0.4112620000000 1.0
C      1  0.4968250000000  0.4450370000000  0.4121770000000 1.0
C      1  0.5251350000000  0.4537410000000  0.4113170000000 1.0
C      1  0.5390020000000  0.4785350000000  0.4093000000000 1.0
C      1  0.5502210000000  0.5043610000000  0.4118670000000 1.0
C      1  0.5010940000000  0.5015400000000  0.4819910000000 1.0
END
