TITL C-2441167-4473-770 0.11209851976883 125000 -13664.7959934422 0 0 116 (C1) n - 1
REM
REM in /home/bkarasulu/work/CARBON/AIRSS/Generating-Clusters/ReaxFF-fromJPCA2015/Units_Real/with-SteepDescent/Higher-Symm
REM
REM
REM
REM
REM
REM ./C.cell (1df0a924f5614ab8850e4351716899ee)
REM
REM compiler GCC version 9.2.1 20190827 (Red Hat 9.2.1-1)
REM options -cpp -mtune=generic -march=x86-64 -g -O0 -fpre-include=/usr/include/finclude/math-vector-fortran.h
REM seed -566227099 714243493 -1272533578 -517876976 1127758295 -2121515170 777486013 -1509366316 163255421 -1257207215 1671053980 317174657 681271444 1451440737 -1525564000 1009534627 -1569235344 1929530760 1318728551 -1724924570 -1933609642 -2047463461 -1839418522 469241531 251181348 1633601198 -1434212229 -130813442 1908481426 -868081121 121375100 -528953799 2054483191
REM
CELL 1.54180   50.00000   50.00000   50.00000   90.00000   90.00000   90.00000
LATT -1
SFAC C  
C      1  0.4770300000000  0.5548830000000  0.4478320000000 1.0
C      1  0.4767910000000  0.5751950000000  0.5146260000000 1.0
C      1  0.4775650000000  0.5280160000000  0.5657020000000 1.0
C      1  0.4775980000000  0.4715480000000  0.5700110000000 1.0
C      1  0.4763880000000  0.4294060000000  0.5147430000000 1.0
C      1  0.4776970000000  0.4376160000000  0.4579710000000 1.0
C      1  0.4767860000000  0.5014030000000  0.4270010000000 1.0
C      1  0.5053550000000  0.5843630000000  0.5172630000000 1.0
C      1  0.5039470000000  0.5372020000000  0.5748180000000 1.0
C      1  0.5055190000000  0.4664020000000  0.5774360000000 1.0
C      1  0.5033710000000  0.4193860000000  0.5201690000000 1.0
C      1  0.5056570000000  0.4340010000000  0.4503340000000 1.0
C      1  0.5044290000000  0.4996420000000  0.4163340000000 1.0
C      1  0.5039560000000  0.5633410000000  0.4461760000000 1.0
C      1  0.4512030000000  0.4386010000000  0.4427790000000 1.0
C      1  0.4483970000000  0.5055780000000  0.4138200000000 1.0
C      1  0.4513850000000  0.5707450000000  0.4530210000000 1.0
C      1  0.4481740000000  0.5826610000000  0.5262070000000 1.0
C      1  0.4495670000000  0.5328490000000  0.5783670000000 1.0
C      1  0.4500150000000  0.4570120000000  0.5741830000000 1.0
C      1  0.4485930000000  0.4149540000000  0.5138940000000 1.0
C      1  0.4579170000000  0.5101200000000  0.5968310000000 1.0
C      1  0.4601710000000  0.4291620000000  0.5680380000000 1.0
C      1  0.4582480000000  0.4038980000000  0.4878240000000 1.0
C      1  0.4601060000000  0.4499990000000  0.4160750000000 1.0
C      1  0.4580930000000  0.5331920000000  0.4084320000000 1.0
C      1  0.4601990000000  0.5910810000000  0.4703890000000 1.0
C      1  0.4599820000000  0.5818810000000  0.5542290000000 1.0
C      1  0.5390880000000  0.5427470000000  0.4115680000000 1.0
C      1  0.5366950000000  0.5987660000000  0.4771480000000 1.0
C      1  0.5372360000000  0.5777450000000  0.5601410000000 1.0
C      1  0.5392890000000  0.5014940000000  0.5985530000000 1.0
C      1  0.5370230000000  0.4247310000000  0.5641010000000 1.0
C      1  0.5384190000000  0.4038380000000  0.4787760000000 1.0
C      1  0.5375240000000  0.4546960000000  0.4116030000000 1.0
C      1  0.5717050000000  0.5341460000000  0.5103200000000 1.0
C      1  0.5743360000000  0.5136760000000  0.5321980000000 1.0
C      1  0.5743860000000  0.4835340000000  0.5326840000000 1.0
C      1  0.5739730000000  0.4605860000000  0.5124280000000 1.0
C      1  0.5746150000000  0.4648820000000  0.4830530000000 1.0
C      1  0.5733010000000  0.5101450000000  0.4629310000000 1.0
C      1  0.5726830000000  0.5350790000000  0.4789180000000 1.0
C      1  0.5435820000000  0.4450010000000  0.4370880000000 1.0
C      1  0.5425580000000  0.5124330000000  0.4220350000000 1.0
C      1  0.5407850000000  0.5757620000000  0.4602120000000 1.0
C      1  0.5423540000000  0.5745670000000  0.5316000000000 1.0
C      1  0.5423770000000  0.5234580000000  0.5780180000000 1.0
C      1  0.5431840000000  0.4515230000000  0.5686130000000 1.0
C      1  0.5416490000000  0.4193140000000  0.5063700000000 1.0
C      1  0.4362520000000  0.4854900000000  0.4526690000000 1.0
C      1  0.4369560000000  0.5286650000000  0.4584160000000 1.0
C      1  0.4339410000000  0.5510500000000  0.4965260000000 1.0
C      1  0.4354430000000  0.5357250000000  0.5392630000000 1.0
C      1  0.4367150000000  0.4923260000000  0.5526920000000 1.0
C      1  0.4336710000000  0.4567790000000  0.5256520000000 1.0
C      1  0.4357410000000  0.4527970000000  0.4821940000000 1.0
C      1  0.4979690000000  0.5336310000000  0.5048980000000 1.0
C      1  0.5062780000000  0.5266570000000  0.5318820000000 1.0
C      1  0.4914830000000  0.4923850000000  0.5294710000000 1.0
C      1  0.5017920000000  0.4681960000000  0.5156020000000 1.0
C      1  0.4995600000000  0.4680100000000  0.4855630000000 1.0
C      1  0.5014330000000  0.4928430000000  0.4658570000000 1.0
C      1  0.5010010000000  0.5216160000000  0.4684470000000 1.0
C      1  0.5137080000000  0.5449530000000  0.4261990000000 1.0
C      1  0.5079940000000  0.5889070000000  0.4888940000000 1.0
C      1  0.5077810000000  0.5620330000000  0.5592840000000 1.0
C      1  0.5126730000000  0.4916150000000  0.5888180000000 1.0
C      1  0.5063550000000  0.4279680000000  0.5478200000000 1.0
C      1  0.5131720000000  0.4174940000000  0.4726910000000 1.0
C      1  0.5067600000000  0.4704070000000  0.4182230000000 1.0
C      1  0.4789490000000  0.4676290000000  0.4309700000000 1.0
C      1  0.4730980000000  0.5305130000000  0.4351070000000 1.0
C      1  0.4779760000000  0.5754910000000  0.4842600000000 1.0
C      1  0.4788100000000  0.5610540000000  0.5443280000000 1.0
C      1  0.4739830000000  0.5001640000000  0.5729290000000 1.0
C      1  0.4797030000000  0.4418480000000  0.5494110000000 1.0
C      1  0.4741650000000  0.4299900000000  0.4852330000000 1.0
C      1  0.4304760000000  0.4564260000000  0.4539640000000 1.0
C      1  0.4301620000000  0.5094700000000  0.4371500000000 1.0
C      1  0.4301100000000  0.5551120000000  0.4678290000000 1.0
C      1  0.4294240000000  0.5606270000000  0.5237380000000 1.0
C      1  0.4292250000000  0.5183740000000  0.5622270000000 1.0
C      1  0.4296890000000  0.4646460000000  0.5542250000000 1.0
C      1  0.4294380000000  0.4361300000000  0.5054410000000 1.0
C      1  0.5300020000000  0.4622310000000  0.4805580000000 1.0
C      1  0.5289500000000  0.4836270000000  0.4596770000000 1.0
C      1  0.5296700000000  0.5302580000000  0.4684940000000 1.0
C      1  0.5271540000000  0.5433990000000  0.4936670000000 1.0
C      1  0.5336580000000  0.5204090000000  0.5350050000000 1.0
C      1  0.5342760000000  0.4925700000000  0.5434930000000 1.0
C      1  0.5282140000000  0.4647050000000  0.5261960000000 1.0
C      1  0.5177840000000  0.5170890000000  0.4315560000000 1.0
C      1  0.5157920000000  0.5663610000000  0.4727020000000 1.0
C      1  0.5156650000000  0.5629200000000  0.5314030000000 1.0
C      1  0.5155650000000  0.5126470000000  0.5695090000000 1.0
C      1  0.5161350000000  0.4555220000000  0.5525490000000 1.0
C      1  0.5173890000000  0.4301240000000  0.4988510000000 1.0
C      1  0.5167780000000  0.4600640000000  0.4438810000000 1.0
C      1  0.4593550000000  0.4695670000000  0.4872020000000 1.0
C      1  0.4585540000000  0.4919430000000  0.4689290000000 1.0
C      1  0.4614440000000  0.5201710000000  0.4733740000000 1.0
C      1  0.4536280000000  0.5307760000000  0.4989360000000 1.0
C      1  0.4530270000000  0.5203680000000  0.5233920000000 1.0
C      1  0.4590140000000  0.4939190000000  0.5318970000000 1.0
C      1  0.4526270000000  0.4729100000000  0.5143390000000 1.0
C      1  0.5537340000000  0.4528030000000  0.4666140000000 1.0
C      1  0.5523810000000  0.4999920000000  0.4458640000000 1.0
C      1  0.5524590000000  0.5483610000000  0.4618530000000 1.0
C      1  0.5508270000000  0.5539040000000  0.5105320000000 1.0
C      1  0.5571150000000  0.5281710000000  0.5510680000000 1.0
C      1  0.5562650000000  0.4768950000000  0.5540640000000 1.0
C      1  0.5501740000000  0.4446680000000  0.5169680000000 1.0
C      1  0.5729560000000  0.4944110000000  0.4881870000000 1.0
C      1  0.5214670000000  0.5003560000000  0.5002880000000 1.0
C      1  0.4926030000000  0.5043160000000  0.5026410000000 1.0
C      1  0.5456220000000  0.4978550000000  0.4966650000000 1.0
END
