TITL C-2441165-58-1200 0.00265078305426552 125000 -6176.56549445078 0 0 42 (C1) n - 1
REM
REM in /home/bkarasulu/work/CARBON/AIRSS/Generating-Clusters/ReaxFF-fromJPCA2015/Units_Real/with-SteepDescent/Higher-Symm
REM
REM
REM
REM
REM
REM ./C.cell (1df0a924f5614ab8850e4351716899ee)
REM
REM compiler GCC version 9.2.1 20190827 (Red Hat 9.2.1-1)
REM options -cpp -mtune=generic -march=x86-64 -g -O0 -fpre-include=/usr/include/finclude/math-vector-fortran.h
REM seed -211707716 -905365177 538345207 146164520 -829177753 1438210221 1992390437 -1244331877 -1086989458 1349352515 -772968971 1805082593 2022941344 851632417 -817630159 -1037038700 -2060099150 1209749621 941099334 -1764285125 405509111 1199231500 -645260604 -1894408220 -1307982072 -57564283 1294556802 1819142644 1434028971 -1501559851 2044252702 -1559708642 1104078419
REM
CELL 1.54180   50.00000   50.00000   50.00000   90.00000   90.00000   90.00000
LATT -1
SFAC C  
C      1  0.4618610000000  0.5529600000000  0.4867140000000 1.0
C      1  0.4910450000000  0.4709750000000  0.5546990000000 1.0
C      1  0.5414020000000  0.5018740000000  0.4603170000000 1.0
C      1  0.4773990000000  0.4568630000000  0.5139330000000 1.0
C      1  0.5383590000000  0.4482940000000  0.4910030000000 1.0
C      1  0.5215910000000  0.5385960000000  0.5143810000000 1.0
C      1  0.4964030000000  0.5381070000000  0.4515460000000 1.0
C      1  0.5100620000000  0.5314550000000  0.5609150000000 1.0
C      1  0.5091800000000  0.4622370000000  0.4518830000000 1.0
C      1  0.5392520000000  0.4988020000000  0.5371990000000 1.0
C      1  0.4458720000000  0.5075260000000  0.4737170000000 1.0
C      1  0.4604990000000  0.4999750000000  0.5361810000000 1.0
C      1  0.4783430000000  0.4921630000000  0.5576420000000 1.0
C      1  0.4895530000000  0.5522900000000  0.4761710000000 1.0
C      1  0.5505240000000  0.4733890000000  0.4892090000000 1.0
C      1  0.4642840000000  0.4989550000000  0.4535090000000 1.0
C      1  0.5148280000000  0.4912550000000  0.4519200000000 1.0
C      1  0.5261110000000  0.5092960000000  0.5611280000000 1.0
C      1  0.4936510000000  0.4532820000000  0.5372100000000 1.0
C      1  0.5039770000000  0.5444190000000  0.5368600000000 1.0
C      1  0.5118190000000  0.4477830000000  0.4770880000000 1.0
C      1  0.5388560000000  0.5151460000000  0.5134980000000 1.0
C      1  0.4576370000000  0.4788370000000  0.5156360000000 1.0
C      1  0.4449870000000  0.5317610000000  0.4808910000000 1.0
C      1  0.4751330000000  0.5495450000000  0.5361810000000 1.0
C      1  0.5429720000000  0.4695980000000  0.5382750000000 1.0
C      1  0.4824800000000  0.4540110000000  0.4422240000000 1.0
C      1  0.5221570000000  0.4486610000000  0.5411160000000 1.0
C      1  0.5241250000000  0.5466640000000  0.4459070000000 1.0
C      1  0.5467530000000  0.5297600000000  0.4536830000000 1.0
C      1  0.4549320000000  0.5288150000000  0.5343580000000 1.0
C      1  0.5435240000000  0.4466200000000  0.5205370000000 1.0
C      1  0.4542330000000  0.5518180000000  0.5155680000000 1.0
C      1  0.4594230000000  0.4707980000000  0.4480720000000 1.0
C      1  0.5377620000000  0.5520290000000  0.4712180000000 1.0
C      1  0.4661200000000  0.4479980000000  0.4656240000000 1.0
C      1  0.4982430000000  0.5075390000000  0.5703740000000 1.0
C      1  0.4848000000000  0.4457470000000  0.4882600000000 1.0
C      1  0.4917770000000  0.5090830000000  0.4503860000000 1.0
C      1  0.4477320000000  0.4951470000000  0.4962790000000 1.0
C      1  0.5155140000000  0.5539380000000  0.4901110000000 1.0
C      1  0.5505960000000  0.5010660000000  0.4893490000000 1.0
END
