TITL C-2441165-58-792 0.0722487185622262 125000 -28487.904280979 0 0 198 (C1) n - 1
REM
REM in /home/bkarasulu/work/CARBON/AIRSS/Generating-Clusters/ReaxFF-fromJPCA2015/Units_Real/with-SteepDescent/Higher-Symm
REM
REM
REM
REM
REM
REM ./C.cell (1df0a924f5614ab8850e4351716899ee)
REM
REM compiler GCC version 9.2.1 20190827 (Red Hat 9.2.1-1)
REM options -cpp -mtune=generic -march=x86-64 -g -O0 -fpre-include=/usr/include/finclude/math-vector-fortran.h
REM seed 1717080611 -542919261 220091416 -15561503 -299130570 -1778357611 -392822663 835762336 1785511473 75923410 1072140005 -414027293 -2087714029 -45224748 -1658381552 -1126738471 -217801572 403653198 418399215 -535231511 -550892940 482150580 -1819576596 1772502544 -1354042835 1006851131 1630538442 1761823682 3133081 -1078108722 229942830 2063052225 -1262815315
REM
CELL 1.54180   50.00000   50.00000   50.00000   90.00000   90.00000   90.00000
LATT -1
SFAC C  
C      1  0.5036380000000  0.6087290000000  0.5124650000000 1.0
C      1  0.5051760000000  0.6099870000000  0.4446760000000 1.0
C      1  0.5046430000000  0.5607800000000  0.4041850000000 1.0
C      1  0.5100770000000  0.4952670000000  0.3806260000000 1.0
C      1  0.5040740000000  0.4295230000000  0.4097160000000 1.0
C      1  0.5032860000000  0.3943320000000  0.4592300000000 1.0
C      1  0.5071180000000  0.3929060000000  0.5216760000000 1.0
C      1  0.5092280000000  0.4099910000000  0.5788120000000 1.0
C      1  0.5015240000000  0.4724290000000  0.6167200000000 1.0
C      1  0.5042310000000  0.5456500000000  0.6049030000000 1.0
C      1  0.5053180000000  0.5904930000000  0.5692000000000 1.0
C      1  0.5678760000000  0.5871290000000  0.5391760000000 1.0
C      1  0.5625700000000  0.5940580000000  0.4864590000000 1.0
C      1  0.5662840000000  0.5714820000000  0.4373600000000 1.0
C      1  0.5688690000000  0.5239620000000  0.4105270000000 1.0
C      1  0.5645190000000  0.4670970000000  0.4083750000000 1.0
C      1  0.5691800000000  0.4235510000000  0.4400870000000 1.0
C      1  0.5670740000000  0.4028450000000  0.4863350000000 1.0
C      1  0.5548710000000  0.4184380000000  0.5327560000000 1.0
C      1  0.5639410000000  0.4483180000000  0.5760620000000 1.0
C      1  0.5622730000000  0.5026030000000  0.5953070000000 1.0
C      1  0.5709130000000  0.5532390000000  0.5761750000000 1.0
C      1  0.5743030000000  0.5800430000000  0.4631310000000 1.0
C      1  0.5823290000000  0.5459860000000  0.4283400000000 1.0
C      1  0.5753110000000  0.4959320000000  0.4107280000000 1.0
C      1  0.5794040000000  0.4464800000000  0.4230160000000 1.0
C      1  0.5802520000000  0.4200210000000  0.4666990000000 1.0
C      1  0.5738320000000  0.4124060000000  0.5120080000000 1.0
C      1  0.5731250000000  0.4367300000000  0.5511470000000 1.0
C      1  0.5719370000000  0.4753420000000  0.5889450000000 1.0
C      1  0.5802870000000  0.5257920000000  0.5855610000000 1.0
C      1  0.5825690000000  0.5662750000000  0.5527390000000 1.0
C      1  0.5780260000000  0.5867260000000  0.5112780000000 1.0
C      1  0.4232690000000  0.4757310000000  0.5891300000000 1.0
C      1  0.4240450000000  0.5284190000000  0.5938170000000 1.0
C      1  0.4274860000000  0.5606600000000  0.5630100000000 1.0
C      1  0.4270690000000  0.5895660000000  0.5168940000000 1.0
C      1  0.4213030000000  0.5752640000000  0.4644380000000 1.0
C      1  0.4270830000000  0.5480360000000  0.4213250000000 1.0
C      1  0.4257250000000  0.4955920000000  0.4113360000000 1.0
C      1  0.4271090000000  0.4479190000000  0.4232350000000 1.0
C      1  0.4265100000000  0.4170070000000  0.4672520000000 1.0
C      1  0.4239350000000  0.4091120000000  0.5148090000000 1.0
C      1  0.4222000000000  0.4374340000000  0.5612960000000 1.0
C      1  0.5965400000000  0.4913990000000  0.4301490000000 1.0
C      1  0.5959360000000  0.4637910000000  0.4385260000000 1.0
C      1  0.5945080000000  0.4389800000000  0.4835950000000 1.0
C      1  0.5966010000000  0.4291270000000  0.5109460000000 1.0
C      1  0.5948100000000  0.4460780000000  0.5345980000000 1.0
C      1  0.5955570000000  0.4851450000000  0.5752420000000 1.0
C      1  0.6064730000000  0.5139850000000  0.5803640000000 1.0
C      1  0.5976900000000  0.5546360000000  0.5301720000000 1.0
C      1  0.5986950000000  0.5691060000000  0.5050730000000 1.0
C      1  0.5948510000000  0.5619970000000  0.4748700000000 1.0
C      1  0.6045270000000  0.5462640000000  0.4449680000000 1.0
C      1  0.5330150000000  0.4261700000000  0.4113590000000 1.0
C      1  0.5331400000000  0.3913790000000  0.4560770000000 1.0
C      1  0.5339010000000  0.3830360000000  0.5135540000000 1.0
C      1  0.5377260000000  0.4015530000000  0.5677570000000 1.0
C      1  0.5204520000000  0.4943640000000  0.6195620000000 1.0
C      1  0.5331070000000  0.5427070000000  0.6048570000000 1.0
C      1  0.5343110000000  0.5875120000000  0.5742120000000 1.0
C      1  0.5308270000000  0.6130680000000  0.5237000000000 1.0
C      1  0.5334620000000  0.5988030000000  0.4382780000000 1.0
C      1  0.5337710000000  0.5631500000000  0.4000140000000 1.0
C      1  0.5285860000000  0.5160550000000  0.3849980000000 1.0
C      1  0.5463520000000  0.3910600000000  0.5407570000000 1.0
C      1  0.5478670000000  0.4247120000000  0.5817480000000 1.0
C      1  0.5395950000000  0.5139920000000  0.6090840000000 1.0
C      1  0.5461610000000  0.5625970000000  0.5869800000000 1.0
C      1  0.5426570000000  0.5978640000000  0.5485040000000 1.0
C      1  0.5415590000000  0.6073760000000  0.4989220000000 1.0
C      1  0.5466200000000  0.5818810000000  0.4185030000000 1.0
C      1  0.5463760000000  0.5353420000000  0.3950510000000 1.0
C      1  0.5383210000000  0.4557660000000  0.4043000000000 1.0
C      1  0.5440880000000  0.4109620000000  0.4350070000000 1.0
C      1  0.5425720000000  0.3885360000000  0.4846210000000 1.0
C      1  0.5130150000000  0.4407940000000  0.4847990000000 1.0
C      1  0.5038480000000  0.4373450000000  0.5124190000000 1.0
C      1  0.5079760000000  0.4558130000000  0.5502450000000 1.0
C      1  0.5117970000000  0.4944470000000  0.5721930000000 1.0
C      1  0.4972300000000  0.5182230000000  0.5655100000000 1.0
C      1  0.5154830000000  0.5604410000000  0.5296040000000 1.0
C      1  0.4913830000000  0.5688760000000  0.4892920000000 1.0
C      1  0.5098310000000  0.5597150000000  0.4685460000000 1.0
C      1  0.4994050000000  0.5175700000000  0.4347680000000 1.0
C      1  0.5144530000000  0.4922510000000  0.4287490000000 1.0
C      1  0.4951180000000  0.4577040000000  0.4511730000000 1.0
C      1  0.5114330000000  0.4377630000000  0.5709500000000 1.0
C      1  0.5170910000000  0.4800790000000  0.5958070000000 1.0
C      1  0.5031950000000  0.5438610000000  0.5755480000000 1.0
C      1  0.5053960000000  0.5640170000000  0.5560950000000 1.0
C      1  0.5072490000000  0.5798510000000  0.5100970000000 1.0
C      1  0.5161400000000  0.5829940000000  0.4542840000000 1.0
C      1  0.5050880000000  0.5397860000000  0.4191680000000 1.0
C      1  0.5183400000000  0.4776320000000  0.4045510000000 1.0
C      1  0.5034290000000  0.4441870000000  0.4339450000000 1.0
C      1  0.5054950000000  0.4170640000000  0.4722340000000 1.0
C      1  0.5190890000000  0.4187350000000  0.5280240000000 1.0
C      1  0.3891050000000  0.5527240000000  0.5060840000000 1.0
C      1  0.3845400000000  0.5356400000000  0.4842230000000 1.0
C      1  0.3908060000000  0.5349650000000  0.4570430000000 1.0
C      1  0.3894390000000  0.5067860000000  0.4560740000000 1.0
C      1  0.3936080000000  0.4804540000000  0.4479560000000 1.0
C      1  0.3931440000000  0.4670580000000  0.4729570000000 1.0
C      1  0.3960700000000  0.4512250000000  0.4953180000000 1.0
C      1  0.3959700000000  0.4670170000000  0.5194440000000 1.0
C      1  0.3987690000000  0.4798230000000  0.5435630000000 1.0
C      1  0.4019080000000  0.5137790000000  0.5448610000000 1.0
C      1  0.3919050000000  0.5314450000000  0.5239330000000 1.0
C      1  0.4104110000000  0.4636330000000  0.5653600000000 1.0
C      1  0.4192390000000  0.5019960000000  0.5900070000000 1.0
C      1  0.4128230000000  0.5364040000000  0.5688360000000 1.0
C      1  0.4256550000000  0.5753090000000  0.5396660000000 1.0
C      1  0.4149480000000  0.5719450000000  0.4948410000000 1.0
C      1  0.4118200000000  0.5570250000000  0.4450140000000 1.0
C      1  0.4222940000000  0.5199520000000  0.4283240000000 1.0
C      1  0.4139760000000  0.4731040000000  0.4239740000000 1.0
C      1  0.4244640000000  0.4421090000000  0.4515860000000 1.0
C      1  0.4130560000000  0.4229760000000  0.4919260000000 1.0
C      1  0.4179470000000  0.4312990000000  0.5327430000000 1.0
C      1  0.4720540000000  0.4631700000000  0.4933680000000 1.0
C      1  0.4847670000000  0.4558710000000  0.5150470000000 1.0
C      1  0.4791630000000  0.4672490000000  0.5384980000000 1.0
C      1  0.4758680000000  0.4953380000000  0.5327220000000 1.0
C      1  0.4867820000000  0.5203490000000  0.5394210000000 1.0
C      1  0.4716250000000  0.5406630000000  0.5251830000000 1.0
C      1  0.4805350000000  0.5447010000000  0.4984010000000 1.0
C      1  0.4697970000000  0.5336370000000  0.4763250000000 1.0
C      1  0.4826040000000  0.5173600000000  0.4584960000000 1.0
C      1  0.4707820000000  0.4934060000000  0.4593140000000 1.0
C      1  0.4854250000000  0.4732900000000  0.4708770000000 1.0
C      1  0.5828280000000  0.4896270000000  0.5489260000000 1.0
C      1  0.5682980000000  0.5143630000000  0.5433970000000 1.0
C      1  0.5831120000000  0.5306020000000  0.5249060000000 1.0
C      1  0.5662090000000  0.5319680000000  0.5019140000000 1.0
C      1  0.5801770000000  0.5381890000000  0.4789670000000 1.0
C      1  0.5690110000000  0.5212710000000  0.4596910000000 1.0
C      1  0.5875220000000  0.4999850000000  0.4562980000000 1.0
C      1  0.5749820000000  0.4738050000000  0.4618320000000 1.0
C      1  0.5841770000000  0.4644000000000  0.4853290000000 1.0
C      1  0.5705680000000  0.4741450000000  0.5068450000000 1.0
C      1  0.5876920000000  0.4726540000000  0.5284360000000 1.0
C      1  0.4539010000000  0.6040480000000  0.5102730000000 1.0
C      1  0.4490350000000  0.5839820000000  0.4582370000000 1.0
C      1  0.4524520000000  0.5492240000000  0.4062110000000 1.0
C      1  0.4523000000000  0.4947590000000  0.3983110000000 1.0
C      1  0.4541930000000  0.4354240000000  0.4147250000000 1.0
C      1  0.4519620000000  0.4013240000000  0.4688920000000 1.0
C      1  0.4516540000000  0.3990080000000  0.5236320000000 1.0
C      1  0.4496770000000  0.4317780000000  0.5707680000000 1.0
C      1  0.4548400000000  0.4790600000000  0.5955200000000 1.0
C      1  0.4547730000000  0.5372190000000  0.5985690000000 1.0
C      1  0.4596470000000  0.5901100000000  0.5623230000000 1.0
C      1  0.5328450000000  0.4605610000000  0.4841160000000 1.0
C      1  0.5423210000000  0.4693820000000  0.5090090000000 1.0
C      1  0.5291500000000  0.4702170000000  0.5355250000000 1.0
C      1  0.5292580000000  0.4929210000000  0.5506240000000 1.0
C      1  0.5402540000000  0.5170820000000  0.5422480000000 1.0
C      1  0.5275840000000  0.5355440000000  0.5243090000000 1.0
C      1  0.5387420000000  0.5337710000000  0.5001600000000 1.0
C      1  0.5269310000000  0.5376680000000  0.4748520000000 1.0
C      1  0.5410050000000  0.5191390000000  0.4570840000000 1.0
C      1  0.5321630000000  0.4932270000000  0.4498190000000 1.0
C      1  0.5441150000000  0.4710450000000  0.4610270000000 1.0
C      1  0.4605150000000  0.4106710000000  0.5530030000000 1.0
C      1  0.4658780000000  0.4528710000000  0.5841910000000 1.0
C      1  0.4662620000000  0.5106880000000  0.5971390000000 1.0
C      1  0.4575840000000  0.5644880000000  0.5743330000000 1.0
C      1  0.4663730000000  0.5946440000000  0.5357040000000 1.0
C      1  0.4679610000000  0.5941710000000  0.4807800000000 1.0
C      1  0.4635250000000  0.5766490000000  0.4354490000000 1.0
C      1  0.4643190000000  0.5222370000000  0.3965410000000 1.0
C      1  0.4700400000000  0.4706800000000  0.3959980000000 1.0
C      1  0.4643810000000  0.4161630000000  0.4311060000000 1.0
C      1  0.4645170000000  0.4043310000000  0.4953230000000 1.0
C      1  0.4812890000000  0.5288860000000  0.6128670000000 1.0
C      1  0.4784730000000  0.5851890000000  0.5803430000000 1.0
C      1  0.4778190000000  0.6162080000000  0.5223180000000 1.0
C      1  0.4837690000000  0.6080660000000  0.4617440000000 1.0
C      1  0.4733610000000  0.5689560000000  0.4112920000000 1.0
C      1  0.4875220000000  0.5130050000000  0.3844280000000 1.0
C      1  0.4784560000000  0.4433310000000  0.3980830000000 1.0
C      1  0.4728580000000  0.3972920000000  0.4483640000000 1.0
C      1  0.4791480000000  0.3877370000000  0.5124630000000 1.0
C      1  0.4841780000000  0.4065940000000  0.5659300000000 1.0
C      1  0.4752250000000  0.4621690000000  0.6096140000000 1.0
C      1  0.4307880000000  0.5148140000000  0.5360740000000 1.0
C      1  0.4429290000000  0.5380690000000  0.5239390000000 1.0
C      1  0.4308880000000  0.5463860000000  0.4983440000000 1.0
C      1  0.4422730000000  0.5333660000000  0.4748120000000 1.0
C      1  0.4310190000000  0.5147760000000  0.4554620000000 1.0
C      1  0.4441980000000  0.4891650000000  0.4568460000000 1.0
C      1  0.4346040000000  0.4637620000000  0.4668660000000 1.0
C      1  0.4453490000000  0.4577030000000  0.4930820000000 1.0
C      1  0.4354430000000  0.4514840000000  0.5198610000000 1.0
C      1  0.4494690000000  0.4656750000000  0.5399310000000 1.0
C      1  0.4489870000000  0.4937440000000  0.5382970000000 1.0
END
