TITL C-2441161-5029-1428 0.139348074026774 125000 -20586.5664877322 0 0 164 (C1) n - 1
REM
REM in /home/bkarasulu/work/CARBON/AIRSS/Generating-Clusters/ReaxFF-fromJPCA2015/Units_Real/with-SteepDescent/Higher-Symm
REM
REM
REM
REM
REM
REM ./C.cell (1df0a924f5614ab8850e4351716899ee)
REM
REM compiler GCC version 9.2.1 20190827 (Red Hat 9.2.1-1)
REM options -cpp -mtune=generic -march=x86-64 -g -O0 -fpre-include=/usr/include/finclude/math-vector-fortran.h
REM seed 331044359 -955796729 844854854 1879073174 -361786989 -926627491 591351975 -1822715482 1262183334 1404550291 -1522232581 1177170727 1671008845 -2063650064 -61182079 -743520954 -319127803 -1798821938 -58543543 -2116415445 654432113 987193322 733217252 1146208699 -557714097 1818104385 1442277658 464804094 1798001394 -2057322169 1125858779 2103485147 581907355
REM
CELL 1.54180   50.00000   50.00000   50.00000   90.00000   90.00000   90.00000
LATT -1
SFAC C  
C      1  0.4615010000000  0.4529620000000  0.4288820000000 1.0
C      1  0.4837170000000  0.5372730000000  0.4605650000000 1.0
C      1  0.5124650000000  0.4521190000000  0.5901280000000 1.0
C      1  0.5522910000000  0.4951220000000  0.4343320000000 1.0
C      1  0.5117150000000  0.4277480000000  0.5745280000000 1.0
C      1  0.4313500000000  0.5588930000000  0.4943540000000 1.0
C      1  0.5733090000000  0.4438080000000  0.5399970000000 1.0
C      1  0.4696570000000  0.4953810000000  0.4537160000000 1.0
C      1  0.4645150000000  0.4537700000000  0.5742590000000 1.0
C      1  0.4884850000000  0.5655540000000  0.4645430000000 1.0
C      1  0.4220630000000  0.4242400000000  0.4829380000000 1.0
C      1  0.4675010000000  0.4249350000000  0.4378820000000 1.0
C      1  0.4509840000000  0.4337200000000  0.4946070000000 1.0
C      1  0.4285300000000  0.5063640000000  0.4681130000000 1.0
C      1  0.5780000000000  0.5088920000000  0.4386610000000 1.0
C      1  0.5232140000000  0.4772250000000  0.4004480000000 1.0
C      1  0.4331670000000  0.4623010000000  0.4622800000000 1.0
C      1  0.4494440000000  0.4694940000000  0.4079440000000 1.0
C      1  0.4862990000000  0.6024560000000  0.4937920000000 1.0
C      1  0.5323010000000  0.5441430000000  0.5766310000000 1.0
C      1  0.5458660000000  0.4163760000000  0.5109900000000 1.0
C      1  0.5520490000000  0.5570840000000  0.4322170000000 1.0
C      1  0.4665940000000  0.4821530000000  0.6078950000000 1.0
C      1  0.4128910000000  0.4833430000000  0.5265840000000 1.0
C      1  0.4512610000000  0.5054590000000  0.4305490000000 1.0
C      1  0.4274740000000  0.4727690000000  0.5479590000000 1.0
C      1  0.4151310000000  0.5516100000000  0.5433980000000 1.0
C      1  0.5179990000000  0.5608860000000  0.4616370000000 1.0
C      1  0.4291700000000  0.5351820000000  0.5630570000000 1.0
C      1  0.5694860000000  0.4377290000000  0.4440610000000 1.0
C      1  0.4969850000000  0.5382480000000  0.5819570000000 1.0
C      1  0.4273000000000  0.5327460000000  0.4533830000000 1.0
C      1  0.4938410000000  0.3975300000000  0.5047150000000 1.0
C      1  0.5611040000000  0.5986570000000  0.4740540000000 1.0
C      1  0.4600790000000  0.4643950000000  0.4550070000000 1.0
C      1  0.4565690000000  0.5502360000000  0.5073790000000 1.0
C      1  0.4564340000000  0.5235370000000  0.4960050000000 1.0
C      1  0.4904330000000  0.5177250000000  0.5359240000000 1.0
C      1  0.4754830000000  0.5600240000000  0.5689090000000 1.0
C      1  0.5536490000000  0.4448330000000  0.5622930000000 1.0
C      1  0.4304810000000  0.4872250000000  0.4239540000000 1.0
C      1  0.4159870000000  0.5110240000000  0.5341290000000 1.0
C      1  0.5212630000000  0.4338930000000  0.4225630000000 1.0
C      1  0.4939940000000  0.5205970000000  0.6055830000000 1.0
C      1  0.4124590000000  0.4776060000000  0.4462430000000 1.0
C      1  0.5142510000000  0.4152820000000  0.4434450000000 1.0
C      1  0.4589060000000  0.5956380000000  0.5003130000000 1.0
C      1  0.4576080000000  0.5470910000000  0.5368300000000 1.0
C      1  0.5229120000000  0.5619770000000  0.4323850000000 1.0
C      1  0.4425900000000  0.5745080000000  0.4565940000000 1.0
C      1  0.5901830000000  0.5201590000000  0.5399650000000 1.0
C      1  0.5067970000000  0.4845550000000  0.4948250000000 1.0
C      1  0.5446950000000  0.4942290000000  0.5281780000000 1.0
C      1  0.5218160000000  0.4793720000000  0.5598680000000 1.0
C      1  0.4686380000000  0.4969660000000  0.5304390000000 1.0
C      1  0.5492270000000  0.4117230000000  0.4825900000000 1.0
C      1  0.4337970000000  0.4449870000000  0.5431680000000 1.0
C      1  0.5909730000000  0.5232230000000  0.4831510000000 1.0
C      1  0.4235970000000  0.4257940000000  0.5242130000000 1.0
C      1  0.4569970000000  0.4356470000000  0.5545710000000 1.0
C      1  0.5039790000000  0.4570060000000  0.4099850000000 1.0
C      1  0.4934290000000  0.4756970000000  0.5937200000000 1.0
C      1  0.5706740000000  0.5613410000000  0.5305260000000 1.0
C      1  0.5573840000000  0.5262030000000  0.5768350000000 1.0
C      1  0.5116430000000  0.4654570000000  0.5372530000000 1.0
C      1  0.5734040000000  0.5747920000000  0.4810650000000 1.0
C      1  0.4830440000000  0.3990200000000  0.4778010000000 1.0
C      1  0.5260400000000  0.5834090000000  0.5527110000000 1.0
C      1  0.4777720000000  0.4764690000000  0.5642530000000 1.0
C      1  0.5225360000000  0.5056600000000  0.5452900000000 1.0
C      1  0.4484370000000  0.4125620000000  0.5144630000000 1.0
C      1  0.5463890000000  0.4725250000000  0.4158510000000 1.0
C      1  0.4605100000000  0.4827410000000  0.5048700000000 1.0
C      1  0.5740840000000  0.5375880000000  0.4343830000000 1.0
C      1  0.4564090000000  0.5890850000000  0.5281070000000 1.0
C      1  0.4359720000000  0.5857120000000  0.4847050000000 1.0
C      1  0.5174020000000  0.5250010000000  0.4122160000000 1.0
C      1  0.4994180000000  0.4958700000000  0.4474350000000 1.0
C      1  0.4331360000000  0.4326870000000  0.4577260000000 1.0
C      1  0.5350720000000  0.6057600000000  0.4807700000000 1.0
C      1  0.5801720000000  0.5370480000000  0.5637910000000 1.0
C      1  0.5419320000000  0.5424760000000  0.5014910000000 1.0
C      1  0.5434550000000  0.5783750000000  0.4813100000000 1.0
C      1  0.5171590000000  0.5060190000000  0.5031450000000 1.0
C      1  0.5932640000000  0.5435990000000  0.5204400000000 1.0
C      1  0.5009910000000  0.6068810000000  0.4433410000000 1.0
C      1  0.4607340000000  0.5939890000000  0.4583640000000 1.0
C      1  0.5801950000000  0.4641240000000  0.4486300000000 1.0
C      1  0.5470380000000  0.5428860000000  0.5304920000000 1.0
C      1  0.4660630000000  0.5197620000000  0.4100150000000 1.0
C      1  0.4820000000000  0.5199720000000  0.5637690000000 1.0
C      1  0.4998020000000  0.5694620000000  0.5518950000000 1.0
C      1  0.4323900000000  0.5089230000000  0.4955640000000 1.0
C      1  0.5141990000000  0.4579420000000  0.4608510000000 1.0
C      1  0.4095380000000  0.4691710000000  0.5001150000000 1.0
C      1  0.4941300000000  0.4436210000000  0.5018920000000 1.0
C      1  0.5387020000000  0.4885090000000  0.5965160000000 1.0
C      1  0.4481080000000  0.5496580000000  0.4419970000000 1.0
C      1  0.5103710000000  0.5021190000000  0.3974270000000 1.0
C      1  0.5120280000000  0.4983570000000  0.6018870000000 1.0
C      1  0.5677830000000  0.5091770000000  0.5234810000000 1.0
C      1  0.5108410000000  0.5302560000000  0.4650530000000 1.0
C      1  0.5247410000000  0.4161890000000  0.4701420000000 1.0
C      1  0.5024460000000  0.4688130000000  0.4370550000000 1.0
C      1  0.4073880000000  0.4384930000000  0.5032430000000 1.0
C      1  0.4051990000000  0.5220600000000  0.4962670000000 1.0
C      1  0.5919320000000  0.4592650000000  0.5215610000000 1.0
C      1  0.5882380000000  0.4562090000000  0.4911140000000 1.0
C      1  0.5261910000000  0.5851130000000  0.5230580000000 1.0
C      1  0.5476340000000  0.4444970000000  0.4247660000000 1.0
C      1  0.5007510000000  0.5487060000000  0.4188180000000 1.0
C      1  0.5440990000000  0.4708860000000  0.5102070000000 1.0
C      1  0.5234460000000  0.4136340000000  0.5293140000000 1.0
C      1  0.4730910000000  0.4005540000000  0.5253610000000 1.0
C      1  0.4402190000000  0.4636670000000  0.4966950000000 1.0
C      1  0.5336020000000  0.4251760000000  0.5557160000000 1.0
C      1  0.5175770000000  0.5609480000000  0.5083550000000 1.0
C      1  0.4946990000000  0.4117180000000  0.5584750000000 1.0
C      1  0.4636290000000  0.4372950000000  0.4649940000000 1.0
C      1  0.4785250000000  0.4212140000000  0.5428100000000 1.0
C      1  0.4827280000000  0.5004970000000  0.3943550000000 1.0
C      1  0.4871800000000  0.4070080000000  0.4501190000000 1.0
C      1  0.4463410000000  0.4693400000000  0.5918580000000 1.0
C      1  0.5518650000000  0.4441250000000  0.5190210000000 1.0
C      1  0.4847110000000  0.4743230000000  0.5380780000000 1.0
C      1  0.5806520000000  0.5030580000000  0.5004100000000 1.0
C      1  0.4011780000000  0.5333820000000  0.5237090000000 1.0
C      1  0.5056870000000  0.4387370000000  0.5269170000000 1.0
C      1  0.5387080000000  0.5187320000000  0.4295780000000 1.0
C      1  0.4809360000000  0.5841110000000  0.4431560000000 1.0
C      1  0.4844440000000  0.4692830000000  0.4968970000000 1.0
C      1  0.5944070000000  0.5025640000000  0.4626050000000 1.0
C      1  0.5576980000000  0.5417940000000  0.4556960000000 1.0
C      1  0.5592280000000  0.4975700000000  0.5782800000000 1.0
C      1  0.4757610000000  0.4729620000000  0.3969040000000 1.0
C      1  0.5665630000000  0.4795930000000  0.4910570000000 1.0
C      1  0.4950950000000  0.5429550000000  0.5142390000000 1.0
C      1  0.5380500000000  0.4624950000000  0.5842320000000 1.0
C      1  0.4684490000000  0.5183480000000  0.4723860000000 1.0
C      1  0.4715380000000  0.5448110000000  0.4229550000000 1.0
C      1  0.5019060000000  0.4198630000000  0.4877600000000 1.0
C      1  0.4660890000000  0.5106250000000  0.6048980000000 1.0
C      1  0.5040780000000  0.5257210000000  0.4928550000000 1.0
C      1  0.5561110000000  0.4754630000000  0.4631210000000 1.0
C      1  0.5022420000000  0.6011160000000  0.5179550000000 1.0
C      1  0.5701850000000  0.5462540000000  0.4807200000000 1.0
C      1  0.4374160000000  0.4878700000000  0.5715690000000 1.0
C      1  0.5449790000000  0.5712140000000  0.5704130000000 1.0
C      1  0.4056730000000  0.4890650000000  0.4723460000000 1.0
C      1  0.5249430000000  0.5385260000000  0.5484820000000 1.0
C      1  0.5397590000000  0.4533710000000  0.4734580000000 1.0
C      1  0.5732340000000  0.4798580000000  0.5601220000000 1.0
C      1  0.5670650000000  0.4329230000000  0.4733000000000 1.0
C      1  0.5711380000000  0.5648630000000  0.5596500000000 1.0
C      1  0.5068160000000  0.6078980000000  0.4726790000000 1.0
C      1  0.4390300000000  0.5691290000000  0.5409700000000 1.0
C      1  0.4842490000000  0.5881470000000  0.5358580000000 1.0
C      1  0.5909020000000  0.4808960000000  0.5400460000000 1.0
C      1  0.4135490000000  0.5434390000000  0.4771640000000 1.0
C      1  0.5145590000000  0.4857390000000  0.4702140000000 1.0
C      1  0.4535480000000  0.5125250000000  0.5777330000000 1.0
C      1  0.5415380000000  0.5145180000000  0.4882970000000 1.0
C      1  0.4425100000000  0.5222050000000  0.5402490000000 1.0
C      1  0.5987480000000  0.4733160000000  0.4687290000000 1.0
END
