TITL C-2441168-9922-535 0.0836519278716229 125000 -16955.2849389523 0 0 129 (C1) n - 1
REM
REM in /home/bkarasulu/work/CARBON/AIRSS/Generating-Clusters/ReaxFF-fromJPCA2015/Units_Real/with-SteepDescent/Higher-Symm
REM
REM
REM
REM
REM
REM ./C.cell (1df0a924f5614ab8850e4351716899ee)
REM
REM compiler GCC version 9.2.1 20190827 (Red Hat 9.2.1-1)
REM options -cpp -mtune=generic -march=x86-64 -g -O0 -fpre-include=/usr/include/finclude/math-vector-fortran.h
REM seed 1317298017 1599217728 1037917682 -421410663 1324058123 -1078212099 -690589824 -1381646856 -1857723609 2091276226 1347150680 -989167045 1227295503 1919057439 -125714017 143459851 1274367725 -1447480755 954628809 1753683909 126854069 -601004246 -1009791649 -1277050998 1287487690 1065030182 -2110296316 -550894543 -1272246275 -496257329 847084762 -827991135 1145899075
REM
CELL 1.54180   50.00000   50.00000   50.00000   90.00000   90.00000   90.00000
LATT -1
SFAC C  
C      1  0.5580740000000  0.5119750000000  0.4766990000000 1.0
C      1  0.4770830000000  0.4095480000000  0.5176230000000 1.0
C      1  0.4573500000000  0.4625650000000  0.5654850000000 1.0
C      1  0.4829820000000  0.4646130000000  0.5322600000000 1.0
C      1  0.5113400000000  0.5666910000000  0.5150970000000 1.0
C      1  0.5188240000000  0.5570930000000  0.4383000000000 1.0
C      1  0.5802860000000  0.5488620000000  0.4757360000000 1.0
C      1  0.5328060000000  0.4787610000000  0.4304150000000 1.0
C      1  0.5837170000000  0.4737210000000  0.4967420000000 1.0
C      1  0.4265690000000  0.5306090000000  0.4575620000000 1.0
C      1  0.4463770000000  0.5703110000000  0.5153160000000 1.0
C      1  0.4837170000000  0.5228050000000  0.4071710000000 1.0
C      1  0.5271290000000  0.5336680000000  0.5842510000000 1.0
C      1  0.4614760000000  0.4725900000000  0.5066100000000 1.0
C      1  0.5732610000000  0.5088000000000  0.4408250000000 1.0
C      1  0.5095170000000  0.5206280000000  0.5319040000000 1.0
C      1  0.4169700000000  0.4675620000000  0.5606680000000 1.0
C      1  0.4352780000000  0.4759770000000  0.5809390000000 1.0
C      1  0.4181350000000  0.5095730000000  0.5436760000000 1.0
C      1  0.5292800000000  0.4154030000000  0.4677400000000 1.0
C      1  0.5218340000000  0.4851480000000  0.4985850000000 1.0
C      1  0.4754630000000  0.5379420000000  0.4532660000000 1.0
C      1  0.5185630000000  0.5301340000000  0.4869820000000 1.0
C      1  0.4889220000000  0.5115000000000  0.5491690000000 1.0
C      1  0.4682480000000  0.5592110000000  0.4343110000000 1.0
C      1  0.4388310000000  0.4650730000000  0.5426500000000 1.0
C      1  0.5046660000000  0.4120660000000  0.4811420000000 1.0
C      1  0.5824080000000  0.4445340000000  0.5049410000000 1.0
C      1  0.4144140000000  0.5087580000000  0.4729660000000 1.0
C      1  0.5607090000000  0.4405520000000  0.4573360000000 1.0
C      1  0.4097640000000  0.4926120000000  0.5212250000000 1.0
C      1  0.5246900000000  0.4686590000000  0.5856870000000 1.0
C      1  0.5265060000000  0.4924770000000  0.4555280000000 1.0
C      1  0.5368110000000  0.5835870000000  0.5129710000000 1.0
C      1  0.4239300000000  0.5097100000000  0.5019070000000 1.0
C      1  0.4787940000000  0.4660640000000  0.4487870000000 1.0
C      1  0.5650260000000  0.4722180000000  0.5435010000000 1.0
C      1  0.5042150000000  0.5483280000000  0.5867920000000 1.0
C      1  0.5681460000000  0.4683790000000  0.4616170000000 1.0
C      1  0.4578480000000  0.4272460000000  0.4722300000000 1.0
C      1  0.5178470000000  0.5586940000000  0.5432840000000 1.0
C      1  0.4653730000000  0.5777400000000  0.4561520000000 1.0
C      1  0.5315800000000  0.5200400000000  0.4122940000000 1.0
C      1  0.5037370000000  0.5716230000000  0.5684380000000 1.0
C      1  0.5623070000000  0.4808100000000  0.5167890000000 1.0
C      1  0.5041530000000  0.4050250000000  0.5100900000000 1.0
C      1  0.4857280000000  0.4251930000000  0.4646720000000 1.0
C      1  0.5644550000000  0.4824210000000  0.4364850000000 1.0
C      1  0.5400930000000  0.4395880000000  0.5128220000000 1.0
C      1  0.5578070000000  0.4463440000000  0.5534030000000 1.0
C      1  0.5135360000000  0.4152890000000  0.5344530000000 1.0
C      1  0.4238010000000  0.4486410000000  0.5266190000000 1.0
C      1  0.5552720000000  0.5094570000000  0.5174770000000 1.0
C      1  0.5861070000000  0.5153930000000  0.5232140000000 1.0
C      1  0.4208610000000  0.5376710000000  0.5062640000000 1.0
C      1  0.5461290000000  0.4881570000000  0.4758720000000 1.0
C      1  0.4776780000000  0.5335870000000  0.5914240000000 1.0
C      1  0.4747400000000  0.5180390000000  0.5030410000000 1.0
C      1  0.4998130000000  0.4831780000000  0.5784160000000 1.0
C      1  0.4636570000000  0.4215520000000  0.5405950000000 1.0
C      1  0.5103440000000  0.4312290000000  0.5559930000000 1.0
C      1  0.5453020000000  0.4216030000000  0.4907280000000 1.0
C      1  0.4895140000000  0.5893420000000  0.5259470000000 1.0
C      1  0.5925940000000  0.5022990000000  0.4985130000000 1.0
C      1  0.5368830000000  0.5201280000000  0.5379600000000 1.0
C      1  0.4358720000000  0.5032050000000  0.5668160000000 1.0
C      1  0.4810150000000  0.5034030000000  0.5896460000000 1.0
C      1  0.4874300000000  0.5921090000000  0.4690270000000 1.0
C      1  0.5031600000000  0.4660740000000  0.4862430000000 1.0
C      1  0.4730840000000  0.5592720000000  0.5224550000000 1.0
C      1  0.5714200000000  0.4297790000000  0.4827670000000 1.0
C      1  0.4412610000000  0.4610250000000  0.4358780000000 1.0
C      1  0.5357740000000  0.5745670000000  0.4847450000000 1.0
C      1  0.5488460000000  0.5483960000000  0.5450720000000 1.0
C      1  0.5692160000000  0.5491650000000  0.5021760000000 1.0
C      1  0.5258700000000  0.4654700000000  0.5220620000000 1.0
C      1  0.5833920000000  0.5181860000000  0.4711250000000 1.0
C      1  0.4937070000000  0.4884590000000  0.4058360000000 1.0
C      1  0.4781700000000  0.4915550000000  0.4340380000000 1.0
C      1  0.4185270000000  0.5372500000000  0.5343700000000 1.0
C      1  0.5565400000000  0.4941050000000  0.5578610000000 1.0
C      1  0.4280270000000  0.5516220000000  0.4826520000000 1.0
C      1  0.4554430000000  0.4183290000000  0.5000640000000 1.0
C      1  0.4915790000000  0.4592710000000  0.4122990000000 1.0
C      1  0.5162260000000  0.4500410000000  0.4302670000000 1.0
C      1  0.5121270000000  0.5140630000000  0.4621410000000 1.0
C      1  0.5473000000000  0.5529540000000  0.4419080000000 1.0
C      1  0.5649930000000  0.4352160000000  0.5269560000000 1.0
C      1  0.4757100000000  0.4779420000000  0.4797190000000 1.0
C      1  0.4989610000000  0.4493650000000  0.4552120000000 1.0
C      1  0.4392290000000  0.5173740000000  0.4289380000000 1.0
C      1  0.4999850000000  0.4839430000000  0.5489560000000 1.0
C      1  0.5359710000000  0.4319110000000  0.4448810000000 1.0
C      1  0.5139510000000  0.5880330000000  0.5478180000000 1.0
C      1  0.5481300000000  0.5173130000000  0.5896260000000 1.0
C      1  0.4769060000000  0.5461790000000  0.4965330000000 1.0
C      1  0.4651360000000  0.5047590000000  0.5653940000000 1.0
C      1  0.5586940000000  0.5668460000000  0.5222690000000 1.0
C      1  0.4416620000000  0.4283190000000  0.5229760000000 1.0
C      1  0.4475360000000  0.4898070000000  0.4280040000000 1.0
C      1  0.5638520000000  0.5341560000000  0.5677680000000 1.0
C      1  0.4609830000000  0.5408370000000  0.5448330000000 1.0
C      1  0.4129510000000  0.4669240000000  0.5088260000000 1.0
C      1  0.4326550000000  0.4628960000000  0.4868860000000 1.0
C      1  0.4535250000000  0.5650740000000  0.4858630000000 1.0
C      1  0.5044210000000  0.5111910000000  0.5056960000000 1.0
C      1  0.5117290000000  0.5571740000000  0.4894410000000 1.0
C      1  0.5773770000000  0.5147830000000  0.5517890000000 1.0
C      1  0.4589120000000  0.5344950000000  0.4167740000000 1.0
C      1  0.5587920000000  0.5659540000000  0.4656460000000 1.0
C      1  0.5323380000000  0.4455320000000  0.5686640000000 1.0
C      1  0.4390570000000  0.4466300000000  0.4615070000000 1.0
C      1  0.5078750000000  0.5359690000000  0.4156390000000 1.0
C      1  0.5552820000000  0.5276880000000  0.4286240000000 1.0
C      1  0.4777860000000  0.4427350000000  0.5558070000000 1.0
C      1  0.5474480000000  0.5272610000000  0.4938720000000 1.0
C      1  0.4855780000000  0.5972710000000  0.4985930000000 1.0
C      1  0.4606880000000  0.5444660000000  0.5717350000000 1.0
C      1  0.4664270000000  0.4510370000000  0.4242020000000 1.0
C      1  0.5011290000000  0.4524250000000  0.5128080000000 1.0
C      1  0.4549850000000  0.5001390000000  0.5107910000000 1.0
C      1  0.4551200000000  0.5240810000000  0.4647840000000 1.0
C      1  0.5219150000000  0.4937390000000  0.4096310000000 1.0
C      1  0.4565880000000  0.4983930000000  0.4702370000000 1.0
C      1  0.4313830000000  0.4866560000000  0.4691210000000 1.0
C      1  0.5460890000000  0.4881550000000  0.5851390000000 1.0
C      1  0.4901880000000  0.5158680000000  0.4455170000000 1.0
C      1  0.4377500000000  0.5577960000000  0.5412390000000 1.0
C      1  0.5070570000000  0.5763720000000  0.4542790000000 1.0
END
