TITL C-2441159-1093-797 0.0474913836247199 125000 -8790.48340257818 0 0 72 (C1) n - 1
REM
REM in /home/bkarasulu/work/CARBON/AIRSS/Generating-Clusters/ReaxFF-fromJPCA2015/Units_Real/with-SteepDescent/Higher-Symm
REM
REM
REM
REM
REM
REM ./C.cell (1df0a924f5614ab8850e4351716899ee)
REM
REM compiler GCC version 9.2.1 20190827 (Red Hat 9.2.1-1)
REM options -cpp -mtune=generic -march=x86-64 -g -O0 -fpre-include=/usr/include/finclude/math-vector-fortran.h
REM seed -294719015 1212616218 -12303134 1060337724 -234188109 -288581328 -943869330 -1129965383 -1389635579 1066167683 -839136755 736102337 1501911138 1016388184 -85897160 -704851641 813273466 263564159 2117647514 -670892359 171824971 50260946 1972486037 -916807466 -1141639703 -802586013 1312585607 -615279349 1365195878 -623126825 -557672104 -2095402481 -1795982389
REM
CELL 1.54180   50.00000   50.00000   50.00000   90.00000   90.00000   90.00000
LATT -1
SFAC C  
C      1  0.4999810000000  0.4265640000000  0.4578460000000 1.0
C      1  0.5357170000000  0.4259200000000  0.4876350000000 1.0
C      1  0.5244050000000  0.4265280000000  0.5359300000000 1.0
C      1  0.4758230000000  0.4267130000000  0.5327370000000 1.0
C      1  0.4598470000000  0.4277290000000  0.4853630000000 1.0
C      1  0.4983190000000  0.5701030000000  0.4622490000000 1.0
C      1  0.4590340000000  0.5708740000000  0.4947020000000 1.0
C      1  0.4807930000000  0.5725290000000  0.5397050000000 1.0
C      1  0.5263960000000  0.5688330000000  0.5285790000000 1.0
C      1  0.5422810000000  0.5745360000000  0.4841990000000 1.0
C      1  0.4689270000000  0.5754680000000  0.5172770000000 1.0
C      1  0.4716470000000  0.5721430000000  0.4692330000000 1.0
C      1  0.5262660000000  0.5715100000000  0.4632640000000 1.0
C      1  0.5365990000000  0.5790150000000  0.5096940000000 1.0
C      1  0.5045790000000  0.5814040000000  0.5340660000000 1.0
C      1  0.5416180000000  0.4238240000000  0.5149420000000 1.0
C      1  0.5261840000000  0.4251380000000  0.4620570000000 1.0
C      1  0.4748940000000  0.4230270000000  0.4655910000000 1.0
C      1  0.4573410000000  0.4243280000000  0.5128760000000 1.0
C      1  0.5002620000000  0.4230490000000  0.5448270000000 1.0
C      1  0.4437310000000  0.4855000000000  0.5370620000000 1.0
C      1  0.4478980000000  0.4901230000000  0.4517180000000 1.0
C      1  0.5231920000000  0.4928630000000  0.4380030000000 1.0
C      1  0.5644000000000  0.4863040000000  0.5071000000000 1.0
C      1  0.5086920000000  0.4881950000000  0.5657480000000 1.0
C      1  0.5593610000000  0.5102890000000  0.5390750000000 1.0
C      1  0.5552090000000  0.5067020000000  0.4578210000000 1.0
C      1  0.4771840000000  0.5109700000000  0.4370550000000 1.0
C      1  0.4327660000000  0.5051530000000  0.5102010000000 1.0
C      1  0.4899850000000  0.5091720000000  0.5633800000000 1.0
C      1  0.4531250000000  0.5185950000000  0.4503430000000 1.0
C      1  0.5333300000000  0.5198480000000  0.4433610000000 1.0
C      1  0.5610440000000  0.5318330000000  0.5198410000000 1.0
C      1  0.5050960000000  0.5337940000000  0.5630710000000 1.0
C      1  0.4392780000000  0.5307320000000  0.5231540000000 1.0
C      1  0.5453530000000  0.4789450000000  0.4523290000000 1.0
C      1  0.4641510000000  0.4675280000000  0.4477920000000 1.0
C      1  0.4334700000000  0.4731870000000  0.5138850000000 1.0
C      1  0.4929640000000  0.4655620000000  0.5625530000000 1.0
C      1  0.5599680000000  0.4812720000000  0.5350770000000 1.0
C      1  0.5207880000000  0.5146510000000  0.5221790000000 1.0
C      1  0.4802660000000  0.5065630000000  0.5367280000000 1.0
C      1  0.4580860000000  0.5080080000000  0.4942390000000 1.0
C      1  0.4959760000000  0.5154340000000  0.4739600000000 1.0
C      1  0.5397690000000  0.5100920000000  0.4824960000000 1.0
C      1  0.4886000000000  0.4816730000000  0.5243680000000 1.0
C      1  0.5165870000000  0.4875110000000  0.5362600000000 1.0
C      1  0.5372050000000  0.4878260000000  0.4973960000000 1.0
C      1  0.5048540000000  0.4906880000000  0.4609890000000 1.0
C      1  0.4696730000000  0.4832070000000  0.4856280000000 1.0
C      1  0.5510450000000  0.4679270000000  0.4819540000000 1.0
C      1  0.5348240000000  0.4668820000000  0.5386570000000 1.0
C      1  0.4644010000000  0.4676350000000  0.5481000000000 1.0
C      1  0.4448290000000  0.4686010000000  0.4861880000000 1.0
C      1  0.4936550000000  0.4672400000000  0.4513260000000 1.0
C      1  0.4544830000000  0.5308880000000  0.4785140000000 1.0
C      1  0.4629210000000  0.5287110000000  0.5397690000000 1.0
C      1  0.5305520000000  0.5288700000000  0.5469020000000 1.0
C      1  0.5531360000000  0.5325940000000  0.4908070000000 1.0
C      1  0.4985220000000  0.5289260000000  0.4444690000000 1.0
C      1  0.5452920000000  0.5499640000000  0.4684250000000 1.0
C      1  0.5458920000000  0.5504200000000  0.5365990000000 1.0
C      1  0.4816510000000  0.5470850000000  0.5531960000000 1.0
C      1  0.4433240000000  0.5484140000000  0.4997280000000 1.0
C      1  0.4812100000000  0.5536960000000  0.4490410000000 1.0
C      1  0.4494330000000  0.4470620000000  0.4664900000000 1.0
C      1  0.4529330000000  0.4432740000000  0.5345000000000 1.0
C      1  0.5187150000000  0.4482610000000  0.5549850000000 1.0
C      1  0.5551800000000  0.4425120000000  0.4966800000000 1.0
C      1  0.5166790000000  0.4492520000000  0.4486770000000 1.0
C      1  0.4932110000000  0.4687270000000  0.4971180000000 1.0
C      1  0.5045450000000  0.5259130000000  0.5007740000000 1.0
END
