TITL C-2441160-1326-987 0.153636593348834 125000 -10646.4644335567 0 0 104 (C1) n - 1
REM
REM in /home/bkarasulu/work/CARBON/AIRSS/Generating-Clusters/ReaxFF-fromJPCA2015/Units_Real/with-SteepDescent/Higher-Symm
REM
REM
REM
REM
REM
REM ./C.cell (1df0a924f5614ab8850e4351716899ee)
REM
REM compiler GCC version 9.2.1 20190827 (Red Hat 9.2.1-1)
REM options -cpp -mtune=generic -march=x86-64 -g -O0 -fpre-include=/usr/include/finclude/math-vector-fortran.h
REM seed -342693089 1322631902 144001303 -1702251471 -98483779 461473731 -1447761030 -824480444 -1788672180 2086409433 89872514 28658240 -1720860490 1161437043 -324635494 1201536461 597008078 -105349408 -390664000 -1880093472 351703915 1033885710 1303416885 195065638 1972722029 1937929348 -1054403817 -1339440759 291778418 27179890 149258264 1917755056 -1669481493
REM
CELL 1.54180   50.00000   50.00000   50.00000   90.00000   90.00000   90.00000
LATT -1
SFAC C  
C      1  0.4236630000000  0.5420900000000  0.4874850000000 1.0
C      1  0.5739980000000  0.4589080000000  0.5139100000000 1.0
C      1  0.4839670000000  0.5325710000000  0.5659190000000 1.0
C      1  0.5155570000000  0.4677840000000  0.4342190000000 1.0
C      1  0.4940860000000  0.4806740000000  0.5917850000000 1.0
C      1  0.5063240000000  0.5216180000000  0.4101470000000 1.0
C      1  0.5591240000000  0.4895220000000  0.4563950000000 1.0
C      1  0.4411780000000  0.5117660000000  0.5438470000000 1.0
C      1  0.5018130000000  0.4214610000000  0.4680020000000 1.0
C      1  0.4968170000000  0.5802800000000  0.5307910000000 1.0
C      1  0.5008000000000  0.4795660000000  0.5258900000000 1.0
C      1  0.4971770000000  0.5195770000000  0.4755700000000 1.0
C      1  0.4986840000000  0.5229830000000  0.4992230000000 1.0
C      1  0.5037450000000  0.4778890000000  0.5022770000000 1.0
C      1  0.5416950000000  0.4489980000000  0.5569090000000 1.0
C      1  0.4589200000000  0.5518300000000  0.4411130000000 1.0
C      1  0.5091130000000  0.5451780000000  0.5078420000000 1.0
C      1  0.4908040000000  0.4561220000000  0.4916610000000 1.0
C      1  0.5387280000000  0.4757770000000  0.5706940000000 1.0
C      1  0.4599880000000  0.5239580000000  0.4323730000000 1.0
C      1  0.5238080000000  0.5727120000000  0.5391110000000 1.0
C      1  0.4739900000000  0.4266030000000  0.4605810000000 1.0
C      1  0.5015450000000  0.5152070000000  0.5488190000000 1.0
C      1  0.4980330000000  0.4847630000000  0.4513070000000 1.0
C      1  0.4524130000000  0.5805070000000  0.4908970000000 1.0
C      1  0.5489480000000  0.4188200000000  0.5098990000000 1.0
C      1  0.5192160000000  0.4977850000000  0.5618490000000 1.0
C      1  0.4815800000000  0.5050960000000  0.4387680000000 1.0
C      1  0.4888090000000  0.5520610000000  0.5456190000000 1.0
C      1  0.5120710000000  0.4462490000000  0.4532460000000 1.0
C      1  0.4732760000000  0.4457710000000  0.5318500000000 1.0
C      1  0.5261550000000  0.5533310000000  0.4686240000000 1.0
C      1  0.5369960000000  0.5422130000000  0.4432810000000 1.0
C      1  0.4633590000000  0.4583880000000  0.5572190000000 1.0
C      1  0.5234430000000  0.4778840000000  0.5953960000000 1.0
C      1  0.4808140000000  0.5159480000000  0.4013120000000 1.0
C      1  0.5485790000000  0.4832300000000  0.5338010000000 1.0
C      1  0.4489960000000  0.5216070000000  0.4647760000000 1.0
C      1  0.4615950000000  0.5767330000000  0.5177570000000 1.0
C      1  0.5400820000000  0.4236330000000  0.4832640000000 1.0
C      1  0.5206820000000  0.5329110000000  0.5323610000000 1.0
C      1  0.4819440000000  0.4705270000000  0.4703210000000 1.0
C      1  0.4880450000000  0.5401930000000  0.4635440000000 1.0
C      1  0.5110600000000  0.4600050000000  0.5363300000000 1.0
C      1  0.5146120000000  0.5621890000000  0.4449250000000 1.0
C      1  0.4854650000000  0.4383780000000  0.5559410000000 1.0
C      1  0.5529260000000  0.5434190000000  0.5050870000000 1.0
C      1  0.4450370000000  0.4539450000000  0.4971090000000 1.0
C      1  0.4681430000000  0.5415530000000  0.5321280000000 1.0
C      1  0.5324290000000  0.4587020000000  0.4676550000000 1.0
C      1  0.4206070000000  0.4911560000000  0.4892730000000 1.0
C      1  0.5799220000000  0.5117110000000  0.5112000000000 1.0
C      1  0.4477500000000  0.4739520000000  0.5151730000000 1.0
C      1  0.5532030000000  0.5259740000000  0.4840220000000 1.0
C      1  0.4640740000000  0.4698060000000  0.4264110000000 1.0
C      1  0.5360820000000  0.5287500000000  0.5693750000000 1.0
C      1  0.5505950000000  0.5666740000000  0.5204170000000 1.0
C      1  0.4492450000000  0.4351550000000  0.4769080000000 1.0
C      1  0.5129520000000  0.5041660000000  0.5892130000000 1.0
C      1  0.4817780000000  0.4888450000000  0.4138020000000 1.0
C      1  0.4807010000000  0.5876840000000  0.4824690000000 1.0
C      1  0.5197960000000  0.4126380000000  0.5169300000000 1.0
C      1  0.5828350000000  0.5061150000000  0.5392150000000 1.0
C      1  0.4168790000000  0.4946230000000  0.4609400000000 1.0
C      1  0.5652480000000  0.5175080000000  0.4578080000000 1.0
C      1  0.4341450000000  0.4844010000000  0.5408660000000 1.0
C      1  0.5563270000000  0.4416670000000  0.4686810000000 1.0
C      1  0.4445490000000  0.5585630000000  0.5320200000000 1.0
C      1  0.5285660000000  0.5184610000000  0.4268840000000 1.0
C      1  0.4723240000000  0.4819700000000  0.5725830000000 1.0
C      1  0.5781020000000  0.4771650000000  0.5374460000000 1.0
C      1  0.4196020000000  0.5241100000000  0.4639510000000 1.0
C      1  0.5600380000000  0.5527930000000  0.5451700000000 1.0
C      1  0.4399320000000  0.4493240000000  0.4530980000000 1.0
C      1  0.4606800000000  0.4845650000000  0.4728810000000 1.0
C      1  0.5374850000000  0.5076740000000  0.5274920000000 1.0
C      1  0.5134150000000  0.4436670000000  0.5616940000000 1.0
C      1  0.4873930000000  0.5553220000000  0.4380890000000 1.0
C      1  0.5223320000000  0.4888870000000  0.4907770000000 1.0
C      1  0.4786410000000  0.5110480000000  0.5078880000000 1.0
C      1  0.5376690000000  0.4893680000000  0.4364130000000 1.0
C      1  0.4625520000000  0.5108000000000  0.5640700000000 1.0
C      1  0.5806330000000  0.5134700000000  0.4823560000000 1.0
C      1  0.4182610000000  0.4795080000000  0.5159630000000 1.0
C      1  0.4788970000000  0.4326020000000  0.5064340000000 1.0
C      1  0.5223030000000  0.5666880000000  0.4935050000000 1.0
C      1  0.5399670000000  0.4704700000000  0.4912890000000 1.0
C      1  0.4601030000000  0.5304370000000  0.5082660000000 1.0
C      1  0.4420420000000  0.5582600000000  0.4717940000000 1.0
C      1  0.5572080000000  0.4419380000000  0.5301410000000 1.0
C      1  0.5548180000000  0.4973590000000  0.5112760000000 1.0
C      1  0.4477980000000  0.5028040000000  0.4858940000000 1.0
C      1  0.4826850000000  0.4978040000000  0.5323810000000 1.0
C      1  0.5177200000000  0.5027880000000  0.4674920000000 1.0
C      1  0.4327850000000  0.5338890000000  0.5189930000000 1.0
C      1  0.5674460000000  0.4662770000000  0.4823250000000 1.0
C      1  0.4419450000000  0.4795490000000  0.4509720000000 1.0
C      1  0.5579280000000  0.5223520000000  0.5499390000000 1.0
C      1  0.4641180000000  0.4430700000000  0.4377730000000 1.0
C      1  0.5349570000000  0.5570290000000  0.5613690000000 1.0
C      1  0.5168790000000  0.4405290000000  0.5212950000000 1.0
C      1  0.4850260000000  0.5595460000000  0.4798480000000 1.0
C      1  0.5030230000000  0.5876470000000  0.5022670000000 1.0
C      1  0.4978060000000  0.4125280000000  0.4964350000000 1.0
END
