TITL C-2441157-2117-971 0.0169339599100606 125000 -16491.8428131671 0 0 111 (C1) n - 1
REM
REM in /home/bkarasulu/work/CARBON/AIRSS/Generating-Clusters/ReaxFF-fromJPCA2015/Units_Real/with-SteepDescent/Higher-Symm
REM
REM
REM
REM
REM
REM ./C.cell (1df0a924f5614ab8850e4351716899ee)
REM
REM compiler GCC version 9.2.1 20190827 (Red Hat 9.2.1-1)
REM options -cpp -mtune=generic -march=x86-64 -g -O0 -fpre-include=/usr/include/finclude/math-vector-fortran.h
REM seed -1209940455 -861832667 1455762532 998393930 837720511 -1485157721 45522977 -1716640704 -1668448483 -1020412689 218024264 -2107067110 1460295857 1662253493 1120442257 1514510628 880954489 58982083 -1373733436 275613244 767609145 435974090 1247093861 987934461 971770517 -687140977 -1291579116 236373418 -1118697215 -2100475516 -582671935 1090525936 -1406830997
REM
CELL 1.54180   50.00000   50.00000   50.00000   90.00000   90.00000   90.00000
LATT -1
SFAC C  
C      1  0.4304090000000  0.4699250000000  0.4351560000000 1.0
C      1  0.4283670000000  0.5783250000000  0.5034830000000 1.0
C      1  0.4323820000000  0.4602010000000  0.5626850000000 1.0
C      1  0.5654270000000  0.5305450000000  0.4355920000000 1.0
C      1  0.5704350000000  0.4247210000000  0.5038450000000 1.0
C      1  0.5663870000000  0.5340220000000  0.5705660000000 1.0
C      1  0.4749570000000  0.4445290000000  0.4382310000000 1.0
C      1  0.4745590000000  0.5733770000000  0.4863280000000 1.0
C      1  0.4779770000000  0.4765020000000  0.5802070000000 1.0
C      1  0.5253950000000  0.5545410000000  0.4413110000000 1.0
C      1  0.5253550000000  0.4220460000000  0.4832970000000 1.0
C      1  0.5216450000000  0.5261790000000  0.5754840000000 1.0
C      1  0.4294610000000  0.4932990000000  0.5299380000000 1.0
C      1  0.4263420000000  0.4800520000000  0.4807780000000 1.0
C      1  0.4194590000000  0.5296500000000  0.4927500000000 1.0
C      1  0.5709910000000  0.5089420000000  0.5258990000000 1.0
C      1  0.5822890000000  0.5209300000000  0.4778180000000 1.0
C      1  0.5748090000000  0.4717800000000  0.4926270000000 1.0
C      1  0.4845650000000  0.4585550000000  0.4138560000000 1.0
C      1  0.4851010000000  0.5874540000000  0.5092660000000 1.0
C      1  0.4848610000000  0.4487520000000  0.5745910000000 1.0
C      1  0.5158480000000  0.5406530000000  0.4157840000000 1.0
C      1  0.5160060000000  0.4114200000000  0.5087000000000 1.0
C      1  0.5100290000000  0.5527880000000  0.5754080000000 1.0
C      1  0.4677260000000  0.5106660000000  0.4066870000000 1.0
C      1  0.4655420000000  0.5777600000000  0.5545680000000 1.0
C      1  0.4686670000000  0.4164320000000  0.5379120000000 1.0
C      1  0.5327980000000  0.4891210000000  0.4056950000000 1.0
C      1  0.5315460000000  0.4272180000000  0.5539970000000 1.0
C      1  0.5322860000000  0.5823780000000  0.5387200000000 1.0
C      1  0.4505860000000  0.5658460000000  0.4709720000000 1.0
C      1  0.4526980000000  0.4917720000000  0.5817800000000 1.0
C      1  0.4511550000000  0.4407020000000  0.4562090000000 1.0
C      1  0.5491270000000  0.4319110000000  0.4688410000000 1.0
C      1  0.5506310000000  0.5102600000000  0.5752000000000 1.0
C      1  0.5484110000000  0.5583220000000  0.4606410000000 1.0
C      1  0.5767670000000  0.4793040000000  0.5216410000000 1.0
C      1  0.5798500000000  0.4921370000000  0.4700370000000 1.0
C      1  0.5808970000000  0.5308570000000  0.5044950000000 1.0
C      1  0.4234020000000  0.5232170000000  0.5209820000000 1.0
C      1  0.4218620000000  0.5109380000000  0.4714770000000 1.0
C      1  0.4242390000000  0.4705900000000  0.5089240000000 1.0
C      1  0.5582450000000  0.5593960000000  0.5620530000000 1.0
C      1  0.5622800000000  0.4140150000000  0.5281500000000 1.0
C      1  0.5423360000000  0.5158450000000  0.4400510000000 1.0
C      1  0.4376400000000  0.4329800000000  0.5611320000000 1.0
C      1  0.4374150000000  0.5919550000000  0.5260860000000 1.0
C      1  0.4556860000000  0.4811910000000  0.4350620000000 1.0
C      1  0.5134740000000  0.4679440000000  0.4145610000000 1.0
C      1  0.5117760000000  0.5781910000000  0.5179450000000 1.0
C      1  0.5125480000000  0.4469370000000  0.5649200000000 1.0
C      1  0.4873380000000  0.5322080000000  0.4143110000000 1.0
C      1  0.4885770000000  0.4175350000000  0.5162500000000 1.0
C      1  0.4814210000000  0.5551270000000  0.5648090000000 1.0
C      1  0.4624400000000  0.5096690000000  0.4971350000000 1.0
C      1  0.4586510000000  0.4989020000000  0.5240700000000 1.0
C      1  0.4572440000000  0.4861690000000  0.4806770000000 1.0
C      1  0.5438330000000  0.4785290000000  0.4911050000000 1.0
C      1  0.5427430000000  0.5115230000000  0.5148540000000 1.0
C      1  0.5425340000000  0.5054700000000  0.4886300000000 1.0
C      1  0.5739200000000  0.4405030000000  0.4823920000000 1.0
C      1  0.5746360000000  0.5436820000000  0.4584580000000 1.0
C      1  0.5734030000000  0.5136130000000  0.5556680000000 1.0
C      1  0.4245410000000  0.5593520000000  0.4844570000000 1.0
C      1  0.4260410000000  0.4556740000000  0.4587300000000 1.0
C      1  0.4299890000000  0.4858510000000  0.5610590000000 1.0
C      1  0.4940960000000  0.5519310000000  0.4830080000000 1.0
C      1  0.4975420000000  0.4889560000000  0.5599140000000 1.0
C      1  0.4945410000000  0.4561430000000  0.4554310000000 1.0
C      1  0.5048970000000  0.4427870000000  0.4820020000000 1.0
C      1  0.5073980000000  0.5179650000000  0.5526940000000 1.0
C      1  0.5011290000000  0.5537300000000  0.4537270000000 1.0
C      1  0.5478380000000  0.4554600000000  0.4508690000000 1.0
C      1  0.5446980000000  0.5593200000000  0.4896890000000 1.0
C      1  0.5468590000000  0.4826880000000  0.5608940000000 1.0
C      1  0.4521980000000  0.5452530000000  0.4504160000000 1.0
C      1  0.4537490000000  0.4373350000000  0.4854570000000 1.0
C      1  0.4652880000000  0.5150900000000  0.5738250000000 1.0
C      1  0.4435380000000  0.5060510000000  0.4237480000000 1.0
C      1  0.4381640000000  0.5692970000000  0.5462120000000 1.0
C      1  0.4416730000000  0.4264260000000  0.5320640000000 1.0
C      1  0.5557960000000  0.4939640000000  0.4242640000000 1.0
C      1  0.5578660000000  0.4374080000000  0.5468760000000 1.0
C      1  0.5585650000000  0.5692140000000  0.5342270000000 1.0
C      1  0.4819580000000  0.4878770000000  0.5340640000000 1.0
C      1  0.4739800000000  0.4799890000000  0.4585000000000 1.0
C      1  0.4831380000000  0.5244870000000  0.4838330000000 1.0
C      1  0.5177680000000  0.5237230000000  0.5249650000000 1.0
C      1  0.5288390000000  0.5148230000000  0.4666040000000 1.0
C      1  0.5191450000000  0.4659960000000  0.4944260000000 1.0
C      1  0.4356620000000  0.4443410000000  0.5090280000000 1.0
C      1  0.4346840000000  0.5218470000000  0.4476540000000 1.0
C      1  0.4366750000000  0.5410660000000  0.5389090000000 1.0
C      1  0.5669900000000  0.5560440000000  0.5088310000000 1.0
C      1  0.5664950000000  0.4789890000000  0.4477930000000 1.0
C      1  0.5640370000000  0.4663120000000  0.5436080000000 1.0
C      1  0.5214670000000  0.4726180000000  0.5626360000000 1.0
C      1  0.5208820000000  0.4598760000000  0.4406650000000 1.0
C      1  0.5191270000000  0.5533210000000  0.5042360000000 1.0
C      1  0.4634150000000  0.5343220000000  0.5548220000000 1.0
C      1  0.4788600000000  0.5447190000000  0.4386100000000 1.0
C      1  0.4803580000000  0.4323360000000  0.4947600000000 1.0
C      1  0.5328520000000  0.4074780000000  0.5319760000000 1.0
C      1  0.5251080000000  0.5174180000000  0.3999090000000 1.0
C      1  0.5313010000000  0.5713040000000  0.5660990000000 1.0
C      1  0.4671740000000  0.5953960000000  0.5309090000000 1.0
C      1  0.4758090000000  0.4828780000000  0.3993390000000 1.0
C      1  0.4671710000000  0.4274930000000  0.5653380000000 1.0
C      1  0.4997830000000  0.5010780000000  0.5170550000000 1.0
C      1  0.5015870000000  0.5071450000000  0.4723940000000 1.0
C      1  0.5004690000000  0.4872280000000  0.4927810000000 1.0
END
