TITL C-2441162-9305-214 0.0383410298044499 125000 -12342.2837896186 0 0 93 (C1) n - 1
REM
REM in /home/bkarasulu/work/CARBON/AIRSS/Generating-Clusters/ReaxFF-fromJPCA2015/Units_Real/with-SteepDescent/Higher-Symm
REM
REM
REM
REM
REM
REM ./C.cell (1df0a924f5614ab8850e4351716899ee)
REM
REM compiler GCC version 9.2.1 20190827 (Red Hat 9.2.1-1)
REM options -cpp -mtune=generic -march=x86-64 -g -O0 -fpre-include=/usr/include/finclude/math-vector-fortran.h
REM seed -1403633451 -42937341 526268193 2092013018 731871922 2046921791 -1893803741 883602492 1006662814 87732450 -1352745605 -412105790 1415401147 -408126242 1929702553 549544532 1619638080 -2023556981 1196581988 900207850 -450687510 -558927129 1242718765 -1827661274 2108718286 -1469361969 1320521147 -518480706 -1083386955 -885965257 -750607310 2071958707 857526408
REM
CELL 1.54180   50.00000   50.00000   50.00000   90.00000   90.00000   90.00000
LATT -1
SFAC C  
C      1  0.5271550000000  0.5265090000000  0.4400800000000 1.0
C      1  0.5645740000000  0.5265290000000  0.5236360000000 1.0
C      1  0.4665150000000  0.5355560000000  0.5646820000000 1.0
C      1  0.4383260000000  0.5262320000000  0.4770350000000 1.0
C      1  0.5648870000000  0.5187620000000  0.4772040000000 1.0
C      1  0.5154780000000  0.5197250000000  0.5702630000000 1.0
C      1  0.4382110000000  0.5174560000000  0.5244310000000 1.0
C      1  0.4826880000000  0.5160820000000  0.4303740000000 1.0
C      1  0.4807340000000  0.4301860000000  0.4917870000000 1.0
C      1  0.5066130000000  0.4302280000000  0.4793740000000 1.0
C      1  0.5194960000000  0.4297870000000  0.5054460000000 1.0
C      1  0.4926810000000  0.4292410000000  0.5172060000000 1.0
C      1  0.4961320000000  0.5426410000000  0.5636290000000 1.0
C      1  0.4319550000000  0.5379820000000  0.5035200000000 1.0
C      1  0.5003710000000  0.5377460000000  0.4386570000000 1.0
C      1  0.5673300000000  0.5419100000000  0.4980050000000 1.0
C      1  0.4134780000000  0.5106690000000  0.4788630000000 1.0
C      1  0.5226810000000  0.5141900000000  0.4136530000000 1.0
C      1  0.5899860000000  0.5119200000000  0.5176900000000 1.0
C      1  0.4726580000000  0.5148400000000  0.5852650000000 1.0
C      1  0.5489800000000  0.4477390000000  0.5602180000000 1.0
C      1  0.4448830000000  0.4448970000000  0.5497510000000 1.0
C      1  0.4501270000000  0.4469980000000  0.4436400000000 1.0
C      1  0.5598940000000  0.4472510000000  0.4490980000000 1.0
C      1  0.4667790000000  0.4851680000000  0.5562000000000 1.0
C      1  0.4422960000000  0.4842080000000  0.4660090000000 1.0
C      1  0.5364920000000  0.4813390000000  0.4350960000000 1.0
C      1  0.5645060000000  0.4830860000000  0.5366420000000 1.0
C      1  0.5842310000000  0.4994870000000  0.4913400000000 1.0
C      1  0.4997140000000  0.5005370000000  0.5853860000000 1.0
C      1  0.4168020000000  0.4998470000000  0.5065390000000 1.0
C      1  0.4967770000000  0.4983960000000  0.4114290000000 1.0
C      1  0.5436790000000  0.4375940000000  0.5199900000000 1.0
C      1  0.4743510000000  0.4372490000000  0.5446440000000 1.0
C      1  0.4533240000000  0.4375670000000  0.4730890000000 1.0
C      1  0.5207230000000  0.4376910000000  0.4553320000000 1.0
C      1  0.4811320000000  0.5588370000000  0.4414480000000 1.0
C      1  0.5561550000000  0.5656740000000  0.4884600000000 1.0
C      1  0.5107460000000  0.5655290000000  0.5560660000000 1.0
C      1  0.4413990000000  0.5582450000000  0.5211690000000 1.0
C      1  0.5690440000000  0.5211220000000  0.4467170000000 1.0
C      1  0.5449600000000  0.5201950000000  0.5693660000000 1.0
C      1  0.4451730000000  0.5400440000000  0.5445340000000 1.0
C      1  0.4600790000000  0.5344630000000  0.4334880000000 1.0
C      1  0.5198330000000  0.4904250000000  0.4883560000000 1.0
C      1  0.5196400000000  0.4923470000000  0.5190700000000 1.0
C      1  0.4789550000000  0.4888400000000  0.5089890000000 1.0
C      1  0.4864070000000  0.4910100000000  0.4797800000000 1.0
C      1  0.5633360000000  0.4920730000000  0.4423320000000 1.0
C      1  0.5541490000000  0.4915400000000  0.5631220000000 1.0
C      1  0.4388770000000  0.4894670000000  0.5551230000000 1.0
C      1  0.4470900000000  0.4952730000000  0.4396170000000 1.0
C      1  0.5313240000000  0.5163710000000  0.4679510000000 1.0
C      1  0.5363400000000  0.5176670000000  0.5257450000000 1.0
C      1  0.4693270000000  0.5137850000000  0.5218870000000 1.0
C      1  0.4663630000000  0.5169150000000  0.4736730000000 1.0
C      1  0.4271840000000  0.4668020000000  0.5413620000000 1.0
C      1  0.4595120000000  0.4704900000000  0.4285270000000 1.0
C      1  0.5762350000000  0.4682330000000  0.4585360000000 1.0
C      1  0.5378240000000  0.4685730000000  0.5759810000000 1.0
C      1  0.4609110000000  0.5757470000000  0.5083360000000 1.0
C      1  0.4904610000000  0.5765000000000  0.4621920000000 1.0
C      1  0.5343350000000  0.5824020000000  0.4920630000000 1.0
C      1  0.5070010000000  0.5826230000000  0.5345240000000 1.0
C      1  0.4890540000000  0.4653900000000  0.5564880000000 1.0
C      1  0.4397700000000  0.4633080000000  0.4870640000000 1.0
C      1  0.5111070000000  0.4626720000000  0.4415590000000 1.0
C      1  0.5585250000000  0.4631210000000  0.5109480000000 1.0
C      1  0.4541820000000  0.4413410000000  0.5234570000000 1.0
C      1  0.4759200000000  0.4441770000000  0.4545000000000 1.0
C      1  0.5436640000000  0.4446350000000  0.4712820000000 1.0
C      1  0.5275410000000  0.4443930000000  0.5433050000000 1.0
C      1  0.5117190000000  0.4701790000000  0.5367080000000 1.0
C      1  0.4610440000000  0.4658390000000  0.5079900000000 1.0
C      1  0.4907730000000  0.4677510000000  0.4620180000000 1.0
C      1  0.5379710000000  0.4675760000000  0.4899520000000 1.0
C      1  0.4687500000000  0.5683580000000  0.4807070000000 1.0
C      1  0.5184210000000  0.5696630000000  0.4704970000000 1.0
C      1  0.5303800000000  0.5709380000000  0.5201710000000 1.0
C      1  0.4815560000000  0.5676350000000  0.5272490000000 1.0
C      1  0.5246740000000  0.5417060000000  0.5180810000000 1.0
C      1  0.4837620000000  0.5382400000000  0.5224230000000 1.0
C      1  0.4777690000000  0.5401070000000  0.4815220000000 1.0
C      1  0.5187610000000  0.5407890000000  0.4772780000000 1.0
C      1  0.4536100000000  0.4934000000000  0.5805120000000 1.0
C      1  0.4199920000000  0.4974130000000  0.4533390000000 1.0
C      1  0.5382540000000  0.4916630000000  0.4094010000000 1.0
C      1  0.5877010000000  0.4974560000000  0.5416690000000 1.0
C      1  0.4200720000000  0.4722690000000  0.5131430000000 1.0
C      1  0.4879310000000  0.4724640000000  0.4212250000000 1.0
C      1  0.5793520000000  0.4716330000000  0.4877630000000 1.0
C      1  0.5087920000000  0.4736910000000  0.5793100000000 1.0
C      1  0.5024860000000  0.5309150000000  0.5005360000000 1.0
END
