TITL C-2441154-10-150 0.0019585626963334 125000 -2531.67798027216 0 0 19 (C1) n - 1
REM
REM in /home/bkarasulu/work/CARBON/AIRSS/Generating-Clusters/ReaxFF-fromJPCA2015/Units_Real/with-SteepDescent/Higher-Symm
REM
REM
REM
REM
REM
REM ./C.cell (1df0a924f5614ab8850e4351716899ee)
REM
REM compiler GCC version 9.2.1 20190827 (Red Hat 9.2.1-1)
REM options -cpp -mtune=generic -march=x86-64 -g -O0 -fpre-include=/usr/include/finclude/math-vector-fortran.h
REM seed -246033298 -1153646572 -1593428895 -1033354545 -1665058636 -1946641779 -2053572371 -776812214 2080020787 451784044 99387178 471992266 -1478912932 -1401204264 765790403 1062411397 157234144 -1877045639 806381305 1913229053 692438875 2040158432 582233265 1648794474 -1966702504 -417087915 150872688 128017154 286671182 -117234848 473565598 518099399 515857556
REM
CELL 1.54180   50.00000   50.00000   50.00000   90.00000   90.00000   90.00000
LATT -1
SFAC C  
C      1  0.5420200000000  0.5090980000000  0.5256480000000 1.0
C      1  0.4678490000000  0.5031880000000  0.5270950000000 1.0
C      1  0.5179510000000  0.5227800000000  0.5373470000000 1.0
C      1  0.4979490000000  0.4965920000000  0.4658210000000 1.0
C      1  0.5496670000000  0.4807500000000  0.5367030000000 1.0
C      1  0.5100320000000  0.5463560000000  0.4614300000000 1.0
C      1  0.4527180000000  0.5260790000000  0.5122010000000 1.0
C      1  0.4706110000000  0.4766610000000  0.5195390000000 1.0
C      1  0.5112500000000  0.4943490000000  0.4927780000000 1.0
C      1  0.4946100000000  0.5234080000000  0.4553710000000 1.0
C      1  0.4752890000000  0.4608160000000  0.4822870000000 1.0
C      1  0.5116430000000  0.4651190000000  0.5032400000000 1.0
C      1  0.4862880000000  0.5452600000000  0.4755300000000 1.0
C      1  0.5390290000000  0.5086460000000  0.4965430000000 1.0
C      1  0.4842340000000  0.4544810000000  0.5087060000000 1.0
C      1  0.4790130000000  0.4739670000000  0.4564910000000 1.0
C      1  0.5347010000000  0.4603340000000  0.5217610000000 1.0
C      1  0.4788830000000  0.5370310000000  0.5041030000000 1.0
C      1  0.4962650000000  0.5150840000000  0.5174060000000 1.0
END
