TITL C-2441167-4473-476 0.0549142309646014 125000 -15671.0624463466 0 0 118 (C1) n - 1
REM
REM in /home/bkarasulu/work/CARBON/AIRSS/Generating-Clusters/ReaxFF-fromJPCA2015/Units_Real/with-SteepDescent/Higher-Symm
REM
REM
REM
REM
REM
REM ./C.cell (1df0a924f5614ab8850e4351716899ee)
REM
REM compiler GCC version 9.2.1 20190827 (Red Hat 9.2.1-1)
REM options -cpp -mtune=generic -march=x86-64 -g -O0 -fpre-include=/usr/include/finclude/math-vector-fortran.h
REM seed -2069248976 -243414539 283211063 439026411 1983722782 1401520675 850570814 560631574 -1630233447 1434703183 1012769747 1137966194 -899383958 -586362840 -1505731405 1258017725 -1055609449 -908962491 -939980266 297169963 -1616898410 828335239 -2079836919 -960933224 -2048825780 2130222188 -954052049 2110489491 250829573 -1356796440 2113316210 846764485 -685081163
REM
CELL 1.54180   50.00000   50.00000   50.00000   90.00000   90.00000   90.00000
LATT -1
SFAC C  
C      1  0.5254110000000  0.5141030000000  0.4453800000000 1.0
C      1  0.4445090000000  0.5145590000000  0.5037010000000 1.0
C      1  0.5325130000000  0.5135260000000  0.5500260000000 1.0
C      1  0.5253690000000  0.4850040000000  0.5517760000000 1.0
C      1  0.4446110000000  0.4848780000000  0.4959070000000 1.0
C      1  0.5331140000000  0.4855720000000  0.4522110000000 1.0
C      1  0.4868110000000  0.4803540000000  0.4647940000000 1.0
C      1  0.4720590000000  0.4753540000000  0.5275390000000 1.0
C      1  0.5401410000000  0.4784150000000  0.5095340000000 1.0
C      1  0.4897340000000  0.5159610000000  0.5288400000000 1.0
C      1  0.4673160000000  0.5234780000000  0.4702510000000 1.0
C      1  0.5319120000000  0.5165660000000  0.4950260000000 1.0
C      1  0.4067060000000  0.5024520000000  0.4861070000000 1.0
C      1  0.5365650000000  0.5006980000000  0.5887610000000 1.0
C      1  0.5603940000000  0.5004690000000  0.4247980000000 1.0
C      1  0.4067530000000  0.4964910000000  0.5138370000000 1.0
C      1  0.5364080000000  0.4971420000000  0.4093520000000 1.0
C      1  0.5613120000000  0.4975270000000  0.5741820000000 1.0
C      1  0.5015940000000  0.5625470000000  0.4334600000000 1.0
C      1  0.4427640000000  0.5679920000000  0.5309000000000 1.0
C      1  0.5573810000000  0.5679260000000  0.5351300000000 1.0
C      1  0.5002310000000  0.4339490000000  0.5664350000000 1.0
C      1  0.4415300000000  0.4318370000000  0.4668640000000 1.0
C      1  0.5557870000000  0.4335450000000  0.4662150000000 1.0
C      1  0.4479010000000  0.5756590000000  0.4850010000000 1.0
C      1  0.5094450000000  0.5733860000000  0.5609990000000 1.0
C      1  0.5457340000000  0.5737610000000  0.4607320000000 1.0
C      1  0.4403470000000  0.4235530000000  0.5204530000000 1.0
C      1  0.5127020000000  0.4273380000000  0.4454800000000 1.0
C      1  0.5430790000000  0.4231830000000  0.5384050000000 1.0
C      1  0.5547060000000  0.4709820000000  0.5543150000000 1.0
C      1  0.5223020000000  0.4729040000000  0.4268690000000 1.0
C      1  0.4243890000000  0.4708990000000  0.5193490000000 1.0
C      1  0.5546530000000  0.5261490000000  0.4438560000000 1.0
C      1  0.5210430000000  0.5261710000000  0.5743980000000 1.0
C      1  0.4239280000000  0.5290460000000  0.4803610000000 1.0
C      1  0.5760420000000  0.5025040000000  0.5236560000000 1.0
C      1  0.4827110000000  0.4921440000000  0.4142830000000 1.0
C      1  0.4419070000000  0.5049310000000  0.5510930000000 1.0
C      1  0.5816960000000  0.5066260000000  0.4715660000000 1.0
C      1  0.4828820000000  0.5069990000000  0.5845850000000 1.0
C      1  0.4396580000000  0.4942480000000  0.4472000000000 1.0
C      1  0.4798670000000  0.4400590000000  0.4942370000000 1.0
C      1  0.5111200000000  0.4448100000000  0.5213700000000 1.0
C      1  0.5125280000000  0.4437390000000  0.4914820000000 1.0
C      1  0.4876890000000  0.5580860000000  0.5072900000000 1.0
C      1  0.5005480000000  0.5568010000000  0.4809390000000 1.0
C      1  0.5154440000000  0.5575780000000  0.5194330000000 1.0
C      1  0.4528620000000  0.4360250000000  0.5421640000000 1.0
C      1  0.5632590000000  0.4358920000000  0.5215590000000 1.0
C      1  0.4899020000000  0.4413160000000  0.4333720000000 1.0
C      1  0.4474070000000  0.5653280000000  0.4571320000000 1.0
C      1  0.5631290000000  0.5568160000000  0.4768460000000 1.0
C      1  0.4874370000000  0.5554100000000  0.5651370000000 1.0
C      1  0.5355750000000  0.5782300000000  0.5177650000000 1.0
C      1  0.4971030000000  0.5758810000000  0.4595280000000 1.0
C      1  0.4687270000000  0.5781950000000  0.5208200000000 1.0
C      1  0.5326490000000  0.4224930000000  0.4816640000000 1.0
C      1  0.5001360000000  0.4241540000000  0.5382360000000 1.0
C      1  0.4687260000000  0.4219910000000  0.4743880000000 1.0
C      1  0.5452130000000  0.4425330000000  0.5601670000000 1.0
C      1  0.5306070000000  0.4446760000000  0.4295600000000 1.0
C      1  0.4218790000000  0.4419120000000  0.5081280000000 1.0
C      1  0.5466090000000  0.5557080000000  0.4380020000000 1.0
C      1  0.5298070000000  0.5551970000000  0.5705100000000 1.0
C      1  0.4261810000000  0.5567940000000  0.4928080000000 1.0
C      1  0.4429240000000  0.4688090000000  0.4319800000000 1.0
C      1  0.4733430000000  0.4790980000000  0.5801110000000 1.0
C      1  0.5818670000000  0.4787260000000  0.4815320000000 1.0
C      1  0.4441530000000  0.5308500000000  0.5656510000000 1.0
C      1  0.4748920000000  0.5192950000000  0.4213690000000 1.0
C      1  0.5871100000000  0.5283890000000  0.5155420000000 1.0
C      1  0.4475770000000  0.4645390000000  0.5375090000000 1.0
C      1  0.5598520000000  0.4653010000000  0.5256890000000 1.0
C      1  0.4935700000000  0.4712730000000  0.4355670000000 1.0
C      1  0.4440440000000  0.5365970000000  0.4600990000000 1.0
C      1  0.5607140000000  0.5268600000000  0.4716980000000 1.0
C      1  0.4937300000000  0.5258510000000  0.5638070000000 1.0
C      1  0.4737840000000  0.4254080000000  0.5224460000000 1.0
C      1  0.5457320000000  0.4175910000000  0.5072030000000 1.0
C      1  0.4851870000000  0.4220990000000  0.4518340000000 1.0
C      1  0.4691660000000  0.5828130000000  0.4649300000000 1.0
C      1  0.5475240000000  0.5774010000000  0.4906100000000 1.0
C      1  0.4826080000000  0.5773540000000  0.5465020000000 1.0
C      1  0.4207830000000  0.4479660000000  0.4800210000000 1.0
C      1  0.5234900000000  0.4475050000000  0.5791720000000 1.0
C      1  0.5574850000000  0.4477650000000  0.4400720000000 1.0
C      1  0.4220520000000  0.5506710000000  0.5197620000000 1.0
C      1  0.5250010000000  0.5516030000000  0.4196010000000 1.0
C      1  0.5559070000000  0.5519460000000  0.5598880000000 1.0
C      1  0.4949660000000  0.5309480000000  0.4696920000000 1.0
C      1  0.4681370000000  0.5333650000000  0.5184080000000 1.0
C      1  0.5354440000000  0.5383450000000  0.5128570000000 1.0
C      1  0.5001210000000  0.4685390000000  0.5352640000000 1.0
C      1  0.4697830000000  0.4668740000000  0.4839900000000 1.0
C      1  0.5308010000000  0.4695490000000  0.4829450000000 1.0
C      1  0.4218420000000  0.4798080000000  0.4751840000000 1.0
C      1  0.5217160000000  0.4773760000000  0.5805900000000 1.0
C      1  0.5602770000000  0.4775110000000  0.4417390000000 1.0
C      1  0.4220110000000  0.5193670000000  0.5247450000000 1.0
C      1  0.5224730000000  0.5215750000000  0.4168490000000 1.0
C      1  0.5595120000000  0.5218580000000  0.5582740000000 1.0
C      1  0.5631420000000  0.5456130000000  0.5174000000000 1.0
C      1  0.4916730000000  0.5357380000000  0.4404650000000 1.0
C      1  0.4552130000000  0.5447080000000  0.5425960000000 1.0
C      1  0.5594970000000  0.4590670000000  0.4798140000000 1.0
C      1  0.4866160000000  0.4591370000000  0.5628110000000 1.0
C      1  0.4535360000000  0.4553860000000  0.4554350000000 1.0
C      1  0.4550500000000  0.4844390000000  0.4096240000000 1.0
C      1  0.4455210000000  0.4901220000000  0.5775780000000 1.0
C      1  0.5958550000000  0.4882960000000  0.5061690000000 1.0
C      1  0.4552080000000  0.5156040000000  0.5886830000000 1.0
C      1  0.4462440000000  0.5099040000000  0.4217430000000 1.0
C      1  0.6001840000000  0.5144320000000  0.4925510000000 1.0
C      1  0.4686500000000  0.4985280000000  0.5389430000000 1.0
C      1  0.5511640000000  0.5012240000000  0.5095530000000 1.0
C      1  0.4661370000000  0.4993490000000  0.4598590000000 1.0
C      1  0.5032580000000  0.5086340000000  0.5011410000000 1.0
END
