TITL C-2441164-471-5 0.0650576290206368 125000 -17870.2477411198 0 0 132 (C1) n - 1
REM
REM in /home/bkarasulu/work/CARBON/AIRSS/Generating-Clusters/ReaxFF-fromJPCA2015/Units_Real/with-SteepDescent/Higher-Symm
REM
REM
REM
REM
REM
REM ./C.cell (1df0a924f5614ab8850e4351716899ee)
REM
REM compiler GCC version 9.2.1 20190827 (Red Hat 9.2.1-1)
REM options -cpp -mtune=generic -march=x86-64 -g -O0 -fpre-include=/usr/include/finclude/math-vector-fortran.h
REM seed -730086505 1947452902 1689146320 1527453854 -84319618 -1279173922 498950392 571117212 1758161417 -399705983 435334084 -378915537 1086661226 -197990314 -931251519 842391231 -633130826 1736864655 -1240810281 -1404399308 -1310482479 1466190573 -754794280 392100186 -1357745736 -950787020 1565587256 -23561350 415181037 -1781918775 2100402127 1825592019 573614065
REM
CELL 1.54180   50.00000   50.00000   50.00000   90.00000   90.00000   90.00000
LATT -1
SFAC C  
C      1  0.4599730000000  0.5904110000000  0.4828350000000 1.0
C      1  0.4711920000000  0.5904610000000  0.5327900000000 1.0
C      1  0.5246270000000  0.5926130000000  0.5359200000000 1.0
C      1  0.5411430000000  0.5908530000000  0.4890490000000 1.0
C      1  0.5033950000000  0.5894350000000  0.4570480000000 1.0
C      1  0.5340340000000  0.4816160000000  0.5011080000000 1.0
C      1  0.5080220000000  0.4839030000000  0.4606500000000 1.0
C      1  0.4901540000000  0.4836350000000  0.4833930000000 1.0
C      1  0.4735760000000  0.4851180000000  0.5250410000000 1.0
C      1  0.5023670000000  0.4852750000000  0.5319140000000 1.0
C      1  0.5116610000000  0.5127770000000  0.4595430000000 1.0
C      1  0.4665720000000  0.5098690000000  0.4802620000000 1.0
C      1  0.4678750000000  0.5131320000000  0.5271910000000 1.0
C      1  0.5132450000000  0.5120060000000  0.5399970000000 1.0
C      1  0.5466110000000  0.5077600000000  0.5000850000000 1.0
C      1  0.5220430000000  0.4581540000000  0.4599790000000 1.0
C      1  0.4699150000000  0.4453100000000  0.4690440000000 1.0
C      1  0.4599850000000  0.4602660000000  0.5189990000000 1.0
C      1  0.4986360000000  0.4519370000000  0.5433460000000 1.0
C      1  0.5385160000000  0.4528280000000  0.5114690000000 1.0
C      1  0.4765700000000  0.5558910000000  0.5836610000000 1.0
C      1  0.5733560000000  0.5566610000000  0.5495930000000 1.0
C      1  0.5688660000000  0.5527630000000  0.4463350000000 1.0
C      1  0.4734420000000  0.5549220000000  0.4156860000000 1.0
C      1  0.4161960000000  0.5539040000000  0.4995310000000 1.0
C      1  0.4336000000000  0.4694600000000  0.5704340000000 1.0
C      1  0.5461520000000  0.4708370000000  0.5882060000000 1.0
C      1  0.6002770000000  0.4723800000000  0.4845200000000 1.0
C      1  0.5110610000000  0.4709620000000  0.4091060000000 1.0
C      1  0.4091310000000  0.4751390000000  0.4585420000000 1.0
C      1  0.4206350000000  0.5614200000000  0.4714400000000 1.0
C      1  0.4499610000000  0.5606050000000  0.5678280000000 1.0
C      1  0.5498320000000  0.5631340000000  0.5683330000000 1.0
C      1  0.5798130000000  0.5604030000000  0.4729920000000 1.0
C      1  0.5032780000000  0.5627880000000  0.4129950000000 1.0
C      1  0.5389330000000  0.4631550000000  0.4158310000000 1.0
C      1  0.4298520000000  0.4689470000000  0.4419360000000 1.0
C      1  0.4270940000000  0.4621280000000  0.5459540000000 1.0
C      1  0.5208180000000  0.4602360000000  0.5868340000000 1.0
C      1  0.5815460000000  0.4626630000000  0.5034910000000 1.0
C      1  0.4336110000000  0.4984080000000  0.4834090000000 1.0
C      1  0.4611820000000  0.4988750000000  0.5723790000000 1.0
C      1  0.5550530000000  0.5003240000000  0.5608840000000 1.0
C      1  0.5804250000000  0.5016060000000  0.4650510000000 1.0
C      1  0.4991220000000  0.5094770000000  0.4314480000000 1.0
C      1  0.5694080000000  0.5649160000000  0.5218540000000 1.0
C      1  0.5425480000000  0.5625370000000  0.4422470000000 1.0
C      1  0.4603560000000  0.5624010000000  0.4412480000000 1.0
C      1  0.4335600000000  0.5619710000000  0.5204880000000 1.0
C      1  0.5011660000000  0.5616630000000  0.5704130000000 1.0
C      1  0.4639000000000  0.5283160000000  0.5029960000000 1.0
C      1  0.4880380000000  0.5256070000000  0.5439280000000 1.0
C      1  0.5354920000000  0.5217300000000  0.5243430000000 1.0
C      1  0.5386530000000  0.5186110000000  0.4736050000000 1.0
C      1  0.4879740000000  0.5272500000000  0.4703480000000 1.0
C      1  0.4294170000000  0.4313580000000  0.5193040000000 1.0
C      1  0.5121210000000  0.4386200000000  0.5669710000000 1.0
C      1  0.5639690000000  0.4351500000000  0.5113090000000 1.0
C      1  0.5417950000000  0.4486370000000  0.4408450000000 1.0
C      1  0.4545380000000  0.4336860000000  0.4463190000000 1.0
C      1  0.4587070000000  0.4544170000000  0.5710550000000 1.0
C      1  0.5539750000000  0.4599220000000  0.5644030000000 1.0
C      1  0.5812020000000  0.4593800000000  0.4708220000000 1.0
C      1  0.4915480000000  0.4547130000000  0.4231460000000 1.0
C      1  0.4242070000000  0.4698310000000  0.4830600000000 1.0
C      1  0.4749670000000  0.4761780000000  0.5798130000000 1.0
C      1  0.5633650000000  0.4779190000000  0.5463640000000 1.0
C      1  0.5660320000000  0.4629610000000  0.4477050000000 1.0
C      1  0.4631400000000  0.4551990000000  0.4224610000000 1.0
C      1  0.4164180000000  0.4549170000000  0.5068480000000 1.0
C      1  0.4514330000000  0.5837100000000  0.5518030000000 1.0
C      1  0.5332480000000  0.5849180000000  0.5615610000000 1.0
C      1  0.5679200000000  0.5839040000000  0.4834200000000 1.0
C      1  0.5093420000000  0.5846470000000  0.4297410000000 1.0
C      1  0.4364830000000  0.5844720000000  0.4683120000000 1.0
C      1  0.4204330000000  0.5118020000000  0.5046580000000 1.0
C      1  0.4741160000000  0.5197050000000  0.5676650000000 1.0
C      1  0.5532970000000  0.5221580000000  0.5474110000000 1.0
C      1  0.5601020000000  0.5144900000000  0.4581690000000 1.0
C      1  0.4715370000000  0.5151280000000  0.4281780000000 1.0
C      1  0.5216230000000  0.4165260000000  0.5511090000000 1.0
C      1  0.5352090000000  0.4170910000000  0.4893950000000 1.0
C      1  0.5098530000000  0.4138590000000  0.4572490000000 1.0
C      1  0.4584500000000  0.4086080000000  0.4542770000000 1.0
C      1  0.4509130000000  0.4183840000000  0.5317420000000 1.0
C      1  0.5285000000000  0.5214150000000  0.5927190000000 1.0
C      1  0.5981560000000  0.5237280000000  0.5027820000000 1.0
C      1  0.5330340000000  0.5208260000000  0.4098570000000 1.0
C      1  0.4281200000000  0.5210050000000  0.4402330000000 1.0
C      1  0.4238970000000  0.5194420000000  0.5509130000000 1.0
C      1  0.5899270000000  0.5099810000000  0.5264440000000 1.0
C      1  0.5583590000000  0.5100270000000  0.4178840000000 1.0
C      1  0.4448780000000  0.5054010000000  0.4206000000000 1.0
C      1  0.4099110000000  0.5046310000000  0.5288800000000 1.0
C      1  0.5031650000000  0.5095160000000  0.5970310000000 1.0
C      1  0.5291140000000  0.5770590000000  0.4651990000000 1.0
C      1  0.4762090000000  0.5771640000000  0.4615780000000 1.0
C      1  0.4547830000000  0.5801000000000  0.5110570000000 1.0
C      1  0.4986560000000  0.5759520000000  0.5387780000000 1.0
C      1  0.5448960000000  0.5816190000000  0.5174140000000 1.0
C      1  0.5715040000000  0.5270670000000  0.4360800000000 1.0
C      1  0.4645320000000  0.5301750000000  0.4057520000000 1.0
C      1  0.4055200000000  0.5310050000000  0.5026500000000 1.0
C      1  0.4813440000000  0.5289340000000  0.5932690000000 1.0
C      1  0.5813830000000  0.5288590000000  0.5470540000000 1.0
C      1  0.4336420000000  0.4993550000000  0.5693620000000 1.0
C      1  0.5481040000000  0.5002750000000  0.5874180000000 1.0
C      1  0.6008650000000  0.5015880000000  0.4828280000000 1.0
C      1  0.5118360000000  0.5007220000000  0.4069690000000 1.0
C      1  0.4157080000000  0.5038170000000  0.4595000000000 1.0
C      1  0.4675440000000  0.4444960000000  0.5438510000000 1.0
C      1  0.5144290000000  0.4345930000000  0.5253630000000 1.0
C      1  0.5362820000000  0.4440250000000  0.4831050000000 1.0
C      1  0.4968180000000  0.4400870000000  0.4519150000000 1.0
C      1  0.4639720000000  0.4397890000000  0.4973040000000 1.0
C      1  0.4355760000000  0.5474990000000  0.4491520000000 1.0
C      1  0.4345560000000  0.5462290000000  0.5466640000000 1.0
C      1  0.5260030000000  0.5480850000000  0.5790490000000 1.0
C      1  0.5837990000000  0.5491790000000  0.5005620000000 1.0
C      1  0.5274670000000  0.5479550000000  0.4206980000000 1.0
C      1  0.5743250000000  0.4855220000000  0.5206960000000 1.0
C      1  0.5600420000000  0.4815840000000  0.4241400000000 1.0
C      1  0.4467700000000  0.4770960000000  0.4259450000000 1.0
C      1  0.4140780000000  0.4748460000000  0.5275440000000 1.0
C      1  0.5009670000000  0.4811900000000  0.5888040000000 1.0
C      1  0.5088530000000  0.4946370000000  0.5043640000000 1.0
C      1  0.5018870000000  0.5604750000000  0.5121030000000 1.0
C      1  0.4876230000000  0.5437760000000  0.4943590000000 1.0
C      1  0.5028790000000  0.3782920000000  0.5020380000000 1.0
C      1  0.4995680000000  0.4583530000000  0.4932530000000 1.0
C      1  0.4931770000000  0.4329800000000  0.5020290000000 1.0
C      1  0.5155020000000  0.3959940000000  0.4872620000000 1.0
END
