TITL C-2441161-5029-158 0.0190768172062736 125000 -13544.8582421102 0 0 94 (C1) n - 1
REM
REM in /home/bkarasulu/work/CARBON/AIRSS/Generating-Clusters/ReaxFF-fromJPCA2015/Units_Real/with-SteepDescent/Higher-Symm
REM
REM
REM
REM
REM
REM ./C.cell (1df0a924f5614ab8850e4351716899ee)
REM
REM compiler GCC version 9.2.1 20190827 (Red Hat 9.2.1-1)
REM options -cpp -mtune=generic -march=x86-64 -g -O0 -fpre-include=/usr/include/finclude/math-vector-fortran.h
REM seed -777605565 1546854569 -516463287 -513824213 -2097149615 1231996663 102490427 -105951238 2057498298 -991142985 1662086032 -446209183 155487147 686636765 1574789285 -1162011018 1545472811 -1673745138 -2102297115 1780208551 1903177950 661897780 2143974424 892140792 496712395 -1829021997 231173793 -1940094176 -57127172 1930368314 -589339588 1355569618 462848148
REM
CELL 1.54180   50.00000   50.00000   50.00000   90.00000   90.00000   90.00000
LATT -1
SFAC C  
C      1  0.4330600000000  0.5478380000000  0.4784860000000 1.0
C      1  0.5136670000000  0.5263800000000  0.4142740000000 1.0
C      1  0.5319470000000  0.5273240000000  0.5025480000000 1.0
C      1  0.4346760000000  0.4753460000000  0.4861370000000 1.0
C      1  0.5204840000000  0.5509690000000  0.4300010000000 1.0
C      1  0.4986750000000  0.5553680000000  0.5195860000000 1.0
C      1  0.4290030000000  0.4437280000000  0.5203730000000 1.0
C      1  0.5813430000000  0.5242790000000  0.4910840000000 1.0
C      1  0.4854090000000  0.5368010000000  0.4122730000000 1.0
C      1  0.5740460000000  0.5206300000000  0.5521410000000 1.0
C      1  0.4822250000000  0.4717910000000  0.4254450000000 1.0
C      1  0.5105760000000  0.4725200000000  0.4158040000000 1.0
C      1  0.5298130000000  0.4187220000000  0.4956060000000 1.0
C      1  0.5489400000000  0.5241750000000  0.4535580000000 1.0
C      1  0.4347120000000  0.4900280000000  0.5538790000000 1.0
C      1  0.4555780000000  0.4325780000000  0.4784020000000 1.0
C      1  0.5387200000000  0.5802050000000  0.5241550000000 1.0
C      1  0.4670410000000  0.5553930000000  0.5474960000000 1.0
C      1  0.5489040000000  0.4378580000000  0.4928950000000 1.0
C      1  0.4808960000000  0.4571120000000  0.4509810000000 1.0
C      1  0.4673260000000  0.4889410000000  0.5165360000000 1.0
C      1  0.4750900000000  0.4990560000000  0.4345740000000 1.0
C      1  0.5588090000000  0.4963320000000  0.5438080000000 1.0
C      1  0.4182460000000  0.4676350000000  0.5098600000000 1.0
C      1  0.4915450000000  0.5030650000000  0.5090600000000 1.0
C      1  0.5128880000000  0.4473220000000  0.5429220000000 1.0
C      1  0.5652200000000  0.4649710000000  0.4477220000000 1.0
C      1  0.4351280000000  0.5318380000000  0.5336190000000 1.0
C      1  0.4291040000000  0.5193310000000  0.4828820000000 1.0
C      1  0.5102240000000  0.4579150000000  0.5713570000000 1.0
C      1  0.5083200000000  0.4231020000000  0.4795570000000 1.0
C      1  0.4946140000000  0.5052910000000  0.5743030000000 1.0
C      1  0.5187510000000  0.5607140000000  0.5624060000000 1.0
C      1  0.4953890000000  0.5172060000000  0.5338760000000 1.0
C      1  0.5254770000000  0.5034200000000  0.4522090000000 1.0
C      1  0.4825820000000  0.4349090000000  0.4924060000000 1.0
C      1  0.4806840000000  0.5100760000000  0.4813020000000 1.0
C      1  0.4865210000000  0.4633530000000  0.4816210000000 1.0
C      1  0.5575110000000  0.5575220000000  0.5280840000000 1.0
C      1  0.5204770000000  0.4348040000000  0.4544890000000 1.0
C      1  0.5417280000000  0.4407000000000  0.5457710000000 1.0
C      1  0.5411170000000  0.4887290000000  0.5657170000000 1.0
C      1  0.4412370000000  0.5250930000000  0.4370900000000 1.0
C      1  0.5386160000000  0.4597840000000  0.5686070000000 1.0
C      1  0.4714240000000  0.4704800000000  0.5746080000000 1.0
C      1  0.5257950000000  0.5616210000000  0.4737550000000 1.0
C      1  0.5429070000000  0.4516210000000  0.4668150000000 1.0
C      1  0.5914950000000  0.5012220000000  0.5078660000000 1.0
C      1  0.4633400000000  0.4822480000000  0.4896420000000 1.0
C      1  0.5119910000000  0.5359900000000  0.4825040000000 1.0
C      1  0.5588640000000  0.5390240000000  0.5042790000000 1.0
C      1  0.4795510000000  0.4693940000000  0.5338220000000 1.0
C      1  0.4764390000000  0.4407100000000  0.5264350000000 1.0
C      1  0.4467580000000  0.5647540000000  0.4979410000000 1.0
C      1  0.5742260000000  0.5157190000000  0.4639350000000 1.0
C      1  0.4214450000000  0.4905600000000  0.5276800000000 1.0
C      1  0.4469600000000  0.5167690000000  0.5556520000000 1.0
C      1  0.4397510000000  0.4339270000000  0.5003230000000 1.0
C      1  0.4917820000000  0.4781100000000  0.5640880000000 1.0
C      1  0.4703750000000  0.5639850000000  0.4525450000000 1.0
C      1  0.5328840000000  0.5384820000000  0.5715190000000 1.0
C      1  0.4872520000000  0.5747030000000  0.5389190000000 1.0
C      1  0.5750010000000  0.4852130000000  0.4655610000000 1.0
C      1  0.4983530000000  0.4242650000000  0.5353020000000 1.0
C      1  0.5571550000000  0.4865570000000  0.4898070000000 1.0
C      1  0.4765230000000  0.5243500000000  0.5563190000000 1.0
C      1  0.4446940000000  0.5504360000000  0.4515710000000 1.0
C      1  0.5149880000000  0.4477990000000  0.4298020000000 1.0
C      1  0.5487180000000  0.4529170000000  0.5186970000000 1.0
C      1  0.5102930000000  0.4772710000000  0.4968180000000 1.0
C      1  0.4467580000000  0.4642300000000  0.5615680000000 1.0
C      1  0.5226820000000  0.4651270000000  0.5189300000000 1.0
C      1  0.5313740000000  0.4815650000000  0.4771890000000 1.0
C      1  0.4937720000000  0.5083340000000  0.4564310000000 1.0
C      1  0.5218200000000  0.4993670000000  0.4228230000000 1.0
C      1  0.4624160000000  0.5192610000000  0.4176840000000 1.0
C      1  0.4892990000000  0.5498660000000  0.4943920000000 1.0
C      1  0.4705950000000  0.5677530000000  0.4816340000000 1.0
C      1  0.4912600000000  0.5574940000000  0.4324790000000 1.0
C      1  0.5194030000000  0.4176870000000  0.5190440000000 1.0
C      1  0.5568600000000  0.5447750000000  0.5548010000000 1.0
C      1  0.4529980000000  0.4519140000000  0.4556940000000 1.0
C      1  0.4465970000000  0.5580500000000  0.5271740000000 1.0
C      1  0.4336910000000  0.4747190000000  0.4574800000000 1.0
C      1  0.5350590000000  0.5744900000000  0.4971800000000 1.0
C      1  0.4327540000000  0.5048330000000  0.4574960000000 1.0
C      1  0.4475210000000  0.4431450000000  0.5402980000000 1.0
C      1  0.5158510000000  0.5817410000000  0.5453250000000 1.0
C      1  0.5919190000000  0.5174690000000  0.5304830000000 1.0
C      1  0.5165470000000  0.5335900000000  0.5267390000000 1.0
C      1  0.5225370000000  0.5102520000000  0.5748950000000 1.0
C      1  0.5672230000000  0.4828940000000  0.5175360000000 1.0
C      1  0.5413790000000  0.5519130000000  0.4503280000000 1.0
C      1  0.4344020000000  0.5112520000000  0.5112930000000 1.0
END
