TITL C-2441168-9922-84 0.00228327017547945 125000 -2355.89934906227 0 0 19 (C1) n - 1
REM
REM in /home/bkarasulu/work/CARBON/AIRSS/Generating-Clusters/ReaxFF-fromJPCA2015/Units_Real/with-SteepDescent/Higher-Symm
REM
REM
REM
REM
REM
REM ./C.cell (1df0a924f5614ab8850e4351716899ee)
REM
REM compiler GCC version 9.2.1 20190827 (Red Hat 9.2.1-1)
REM options -cpp -mtune=generic -march=x86-64 -g -O0 -fpre-include=/usr/include/finclude/math-vector-fortran.h
REM seed 411487037 1703395169 -506021090 -360293655 1165260425 -1686619698 -2008779508 -1811064436 -2162640 490289124 -1471363034 -189506575 188639950 -1696468627 705013291 1387066306 1992651049 786466486 -406429457 1112488328 -439679126 962078662 833356761 -981149115 -783986182 12177623 829651651 -151163895 44342676 -481113434 1166146604 798117294 -1969600882
REM
CELL 1.54180   50.00000   50.00000   50.00000   90.00000   90.00000   90.00000
LATT -1
SFAC C  
C      1  0.4539210000000  0.4593930000000  0.5067780000000 1.0
C      1  0.4901480000000  0.4563600000000  0.5469160000000 1.0
C      1  0.5402520000000  0.4539190000000  0.5234410000000 1.0
C      1  0.5392500000000  0.4537660000000  0.4646310000000 1.0
C      1  0.4806900000000  0.4562660000000  0.4592800000000 1.0
C      1  0.5104080000000  0.4640360000000  0.5256990000000 1.0
C      1  0.5382230000000  0.4554660000000  0.4946390000000 1.0
C      1  0.5090080000000  0.4554880000000  0.4645660000000 1.0
C      1  0.4765740000000  0.4677350000000  0.4885810000000 1.0
C      1  0.4636210000000  0.4624830000000  0.5348100000000 1.0
C      1  0.5174070000000  0.5199950000000  0.5318900000000 1.0
C      1  0.5367820000000  0.5179720000000  0.5116660000000 1.0
C      1  0.5004470000000  0.5174230000000  0.4703060000000 1.0
C      1  0.4753530000000  0.5313070000000  0.4699230000000 1.0
C      1  0.4617240000000  0.5327560000000  0.5226640000000 1.0
C      1  0.4939810000000  0.5658670000000  0.5057360000000 1.0
C      1  0.4991310000000  0.4799270000000  0.5035550000000 1.0
C      1  0.4754980000000  0.5449850000000  0.5011360000000 1.0
C      1  0.5127050000000  0.5036090000000  0.4949710000000 1.0
END
