TITL C-2441157-2117-494 0.0460334268003894 125000 -15671.030435568 0 0 116 (C1) n - 1
REM
REM in /home/bkarasulu/work/CARBON/AIRSS/Generating-Clusters/ReaxFF-fromJPCA2015/Units_Real/with-SteepDescent/Higher-Symm
REM
REM
REM
REM
REM
REM ./C.cell (1df0a924f5614ab8850e4351716899ee)
REM
REM compiler GCC version 9.2.1 20190827 (Red Hat 9.2.1-1)
REM options -cpp -mtune=generic -march=x86-64 -g -O0 -fpre-include=/usr/include/finclude/math-vector-fortran.h
REM seed -283143343 1307486661 -1156099051 1428565224 1811833660 -51300956 -556607682 128520378 -215878845 550657836 -187499331 1174914196 -1867254073 -700317517 1510625 -197535125 312476721 1391554236 1375478309 -1737501029 -1310083633 1581992908 -141693562 731051201 1618854728 1694290620 -460652966 1189467932 -840584377 -2108123257 -1744054924 -2017527559 -2067338958
REM
CELL 1.54180   50.00000   50.00000   50.00000   90.00000   90.00000   90.00000
LATT -1
SFAC C  
C      1  0.5451210000000  0.5394400000000  0.4300580000000 1.0
C      1  0.4574100000000  0.4589050000000  0.4267910000000 1.0
C      1  0.4142660000000  0.5390530000000  0.5018350000000 1.0
C      1  0.4435470000000  0.4797510000000  0.5605910000000 1.0
C      1  0.5269540000000  0.5216270000000  0.5824220000000 1.0
C      1  0.5872210000000  0.4785520000000  0.5189790000000 1.0
C      1  0.4525210000000  0.4265530000000  0.4699710000000 1.0
C      1  0.4538460000000  0.5678960000000  0.5194740000000 1.0
C      1  0.4969220000000  0.4324610000000  0.5552120000000 1.0
C      1  0.5492830000000  0.5762250000000  0.5288960000000 1.0
C      1  0.5562420000000  0.4339700000000  0.4775590000000 1.0
C      1  0.5063940000000  0.5645920000000  0.4476360000000 1.0
C      1  0.4976990000000  0.5938470000000  0.4799300000000 1.0
C      1  0.4666920000000  0.4081660000000  0.4881460000000 1.0
C      1  0.4731560000000  0.5909010000000  0.5154540000000 1.0
C      1  0.4959520000000  0.4001520000000  0.5145920000000 1.0
C      1  0.5274890000000  0.5930230000000  0.5173550000000 1.0
C      1  0.5156560000000  0.4084690000000  0.4974110000000 1.0
C      1  0.5583590000000  0.4749600000000  0.4751740000000 1.0
C      1  0.5010490000000  0.5171820000000  0.4348140000000 1.0
C      1  0.4593580000000  0.4697310000000  0.4723630000000 1.0
C      1  0.4574380000000  0.5245810000000  0.5292010000000 1.0
C      1  0.4925290000000  0.4739420000000  0.5613860000000 1.0
C      1  0.5493080000000  0.5281170000000  0.5387340000000 1.0
C      1  0.5045750000000  0.4755030000000  0.5862580000000 1.0
C      1  0.5741600000000  0.5244680000000  0.5409770000000 1.0
C      1  0.5739830000000  0.4753580000000  0.4516970000000 1.0
C      1  0.5020730000000  0.5322780000000  0.4124960000000 1.0
C      1  0.4306550000000  0.4705880000000  0.4617440000000 1.0
C      1  0.4318160000000  0.5273080000000  0.5429110000000 1.0
C      1  0.4840370000000  0.4904060000000  0.5396360000000 1.0
C      1  0.5286530000000  0.5017270000000  0.5395310000000 1.0
C      1  0.5502150000000  0.4960800000000  0.4944040000000 1.0
C      1  0.5207090000000  0.5029130000000  0.4518880000000 1.0
C      1  0.4740140000000  0.4916470000000  0.4607900000000 1.0
C      1  0.4517960000000  0.5068740000000  0.5047680000000 1.0
C      1  0.5056060000000  0.4832350000000  0.4897730000000 1.0
C      1  0.4879060000000  0.5258630000000  0.4854730000000 1.0
C      1  0.4688290000000  0.4642840000000  0.4994550000000 1.0
C      1  0.4974460000000  0.5302100000000  0.5124890000000 1.0
C      1  0.5144470000000  0.4646010000000  0.5091730000000 1.0
C      1  0.5119310000000  0.5109900000000  0.4920840000000 1.0
C      1  0.5246910000000  0.5914370000000  0.4868670000000 1.0
C      1  0.5090850000000  0.4226150000000  0.4709290000000 1.0
C      1  0.4700660000000  0.5896660000000  0.4851790000000 1.0
C      1  0.4694870000000  0.4089030000000  0.5164840000000 1.0
C      1  0.5001480000000  0.5884000000000  0.5278320000000 1.0
C      1  0.5319320000000  0.4214470000000  0.5185500000000 1.0
C      1  0.5332970000000  0.4349280000000  0.4598950000000 1.0
C      1  0.4790000000000  0.5630210000000  0.4560510000000 1.0
C      1  0.4385670000000  0.4372190000000  0.4937260000000 1.0
C      1  0.4727940000000  0.5489230000000  0.5367470000000 1.0
C      1  0.5239330000000  0.4325850000000  0.5453430000000 1.0
C      1  0.5455610000000  0.5572500000000  0.5065430000000 1.0
C      1  0.4559870000000  0.4950600000000  0.5824020000000 1.0
C      1  0.5500820000000  0.5041250000000  0.5820480000000 1.0
C      1  0.5975910000000  0.4936580000000  0.4966390000000 1.0
C      1  0.5563990000000  0.5123660000000  0.4314020000000 1.0
C      1  0.4558880000000  0.4880380000000  0.4235080000000 1.0
C      1  0.4045880000000  0.5112440000000  0.5030110000000 1.0
C      1  0.5183700000000  0.4814690000000  0.4104720000000 1.0
C      1  0.4282650000000  0.5196870000000  0.4353330000000 1.0
C      1  0.4083770000000  0.4932610000000  0.5247530000000 1.0
C      1  0.4772920000000  0.5136730000000  0.5925970000000 1.0
C      1  0.5674530000000  0.4874820000000  0.5668910000000 1.0
C      1  0.5929090000000  0.5123100000000  0.4739980000000 1.0
C      1  0.4310530000000  0.4520590000000  0.5312030000000 1.0
C      1  0.4951540000000  0.5470490000000  0.5757190000000 1.0
C      1  0.5655130000000  0.4549000000000  0.5459390000000 1.0
C      1  0.5713850000000  0.5410710000000  0.4680450000000 1.0
C      1  0.5093590000000  0.4551800000000  0.4217010000000 1.0
C      1  0.4331970000000  0.5456690000000  0.4516300000000 1.0
C      1  0.4638100000000  0.5140240000000  0.4768300000000 1.0
C      1  0.4671980000000  0.4851750000000  0.5170440000000 1.0
C      1  0.5014460000000  0.5111770000000  0.5343230000000 1.0
C      1  0.5344920000000  0.4834680000000  0.5172710000000 1.0
C      1  0.5339360000000  0.5134970000000  0.4763390000000 1.0
C      1  0.5010830000000  0.4828620000000  0.4620960000000 1.0
C      1  0.4226730000000  0.4895950000000  0.5005950000000 1.0
C      1  0.4544820000000  0.5237030000000  0.5784110000000 1.0
C      1  0.5388670000000  0.4830560000000  0.5656940000000 1.0
C      1  0.5776990000000  0.5140840000000  0.5001460000000 1.0
C      1  0.5394130000000  0.4878150000000  0.4300100000000 1.0
C      1  0.4555670000000  0.5154300000000  0.4253380000000 1.0
C      1  0.5034620000000  0.5604880000000  0.5364530000000 1.0
C      1  0.5542980000000  0.4340190000000  0.5054590000000 1.0
C      1  0.5282340000000  0.5696970000000  0.4660470000000 1.0
C      1  0.4850600000000  0.4333370000000  0.4603940000000 1.0
C      1  0.4561580000000  0.5625600000000  0.4893780000000 1.0
C      1  0.4756970000000  0.4363760000000  0.5345180000000 1.0
C      1  0.4510500000000  0.4529100000000  0.5491920000000 1.0
C      1  0.5221150000000  0.5486090000000  0.5678980000000 1.0
C      1  0.5742020000000  0.4510680000000  0.5200290000000 1.0
C      1  0.5517140000000  0.5553770000000  0.4536060000000 1.0
C      1  0.4839080000000  0.4472210000000  0.4355490000000 1.0
C      1  0.4309420000000  0.5510360000000  0.4801260000000 1.0
C      1  0.4604420000000  0.5460830000000  0.4435510000000 1.0
C      1  0.4223210000000  0.4564220000000  0.5048280000000 1.0
C      1  0.4688500000000  0.5460760000000  0.5668940000000 1.0
C      1  0.5414760000000  0.4514540000000  0.5591350000000 1.0
C      1  0.5695290000000  0.5430990000000  0.4950880000000 1.0
C      1  0.5321310000000  0.4532030000000  0.4377540000000 1.0
C      1  0.4918400000000  0.4509910000000  0.5769850000000 1.0
C      1  0.5494730000000  0.5550330000000  0.5490080000000 1.0
C      1  0.5746610000000  0.4528170000000  0.4701880000000 1.0
C      1  0.5190980000000  0.5513950000000  0.4233100000000 1.0
C      1  0.4389500000000  0.4474670000000  0.4457600000000 1.0
C      1  0.4258980000000  0.5503460000000  0.5256800000000 1.0
C      1  0.5045800000000  0.5043500000000  0.5888630000000 1.0
C      1  0.5821110000000  0.4972590000000  0.5422500000000 1.0
C      1  0.5787400000000  0.5041420000000  0.4484920000000 1.0
C      1  0.4998290000000  0.5040670000000  0.4093690000000 1.0
C      1  0.4303780000000  0.4983870000000  0.4546980000000 1.0
C      1  0.4243510000000  0.4988470000000  0.5479430000000 1.0
C      1  0.4900840000000  0.4502620000000  0.5122750000000 1.0
C      1  0.5181350000000  0.5505890000000  0.5138300000000 1.0
END
