TITL C-2441155-8282-51 0.105991637841601 125000 -16280.9110183133 0 0 135 (C1) n - 1
REM
REM in /home/bkarasulu/work/CARBON/AIRSS/Generating-Clusters/ReaxFF-fromJPCA2015/Units_Real/with-SteepDescent/Higher-Symm
REM
REM
REM
REM
REM
REM ./C.cell (1df0a924f5614ab8850e4351716899ee)
REM
REM compiler GCC version 9.2.1 20190827 (Red Hat 9.2.1-1)
REM options -cpp -mtune=generic -march=x86-64 -g -O0 -fpre-include=/usr/include/finclude/math-vector-fortran.h
REM seed 1637938665 -443005731 -1039281034 211017654 941539240 -1443094846 959574280 -1578235215 -659176039 981051616 1706156687 -1194346869 716032007 -498763000 426785181 -998630083 554020185 -881895530 -1797277490 2064485954 933305914 1227410916 -1745226932 1987251627 1205776477 -1967439156 -604878928 1184641082 -1615916040 1590985049 441559540 934525925 -456301282
REM
CELL 1.54180   50.00000   50.00000   50.00000   90.00000   90.00000   90.00000
LATT -1
SFAC C  
C      1  0.4894400000000  0.5774780000000  0.4532510000000 1.0
C      1  0.5421090000000  0.5817970000000  0.5153450000000 1.0
C      1  0.4675040000000  0.5817170000000  0.5279790000000 1.0
C      1  0.4925020000000  0.4193770000000  0.4576700000000 1.0
C      1  0.5425460000000  0.4183330000000  0.5153990000000 1.0
C      1  0.4653120000000  0.4221650000000  0.5319580000000 1.0
C      1  0.4893870000000  0.5776540000000  0.5469700000000 1.0
C      1  0.5427550000000  0.5815090000000  0.4851780000000 1.0
C      1  0.4674260000000  0.5818650000000  0.4720370000000 1.0
C      1  0.4926120000000  0.4193470000000  0.5423090000000 1.0
C      1  0.5428980000000  0.4185650000000  0.4852580000000 1.0
C      1  0.4653180000000  0.4221130000000  0.4678960000000 1.0
C      1  0.4860780000000  0.4742570000000  0.4063620000000 1.0
C      1  0.5872440000000  0.4744610000000  0.5343250000000 1.0
C      1  0.4258300000000  0.4747680000000  0.5590390000000 1.0
C      1  0.4862500000000  0.5261090000000  0.4059320000000 1.0
C      1  0.5881750000000  0.5255320000000  0.5346390000000 1.0
C      1  0.4261790000000  0.5253750000000  0.5587640000000 1.0
C      1  0.4861230000000  0.4746380000000  0.5928800000000 1.0
C      1  0.5880360000000  0.4748120000000  0.4655760000000 1.0
C      1  0.4256920000000  0.4746670000000  0.4409470000000 1.0
C      1  0.4862330000000  0.5260410000000  0.5940360000000 1.0
C      1  0.5881620000000  0.5259780000000  0.4652360000000 1.0
C      1  0.4262750000000  0.5253280000000  0.4412280000000 1.0
C      1  0.5248090000000  0.5160170000000  0.5145400000000 1.0
C      1  0.4751220000000  0.5146720000000  0.5169670000000 1.0
C      1  0.4992400000000  0.5253320000000  0.4708260000000 1.0
C      1  0.5244400000000  0.4837870000000  0.5142270000000 1.0
C      1  0.4746910000000  0.4857040000000  0.5191710000000 1.0
C      1  0.4997030000000  0.4741970000000  0.4713780000000 1.0
C      1  0.5247230000000  0.5150190000000  0.4840750000000 1.0
C      1  0.4749150000000  0.5148240000000  0.4835580000000 1.0
C      1  0.4991720000000  0.5259040000000  0.5296410000000 1.0
C      1  0.5242540000000  0.4843330000000  0.4845560000000 1.0
C      1  0.4746120000000  0.4857710000000  0.4809330000000 1.0
C      1  0.4995980000000  0.4737790000000  0.5287760000000 1.0
C      1  0.5138310000000  0.4754850000000  0.4461190000000 1.0
C      1  0.5389990000000  0.4763930000000  0.5392530000000 1.0
C      1  0.4470140000000  0.4757940000000  0.5145370000000 1.0
C      1  0.5137990000000  0.5243630000000  0.4450240000000 1.0
C      1  0.5403680000000  0.5238900000000  0.5399970000000 1.0
C      1  0.4467670000000  0.5241250000000  0.5142620000000 1.0
C      1  0.5134350000000  0.4753910000000  0.5540850000000 1.0
C      1  0.5392710000000  0.4766030000000  0.4609320000000 1.0
C      1  0.4468890000000  0.4757810000000  0.4855010000000 1.0
C      1  0.5136690000000  0.5244970000000  0.5551110000000 1.0
C      1  0.5402440000000  0.5240000000000  0.4602180000000 1.0
C      1  0.4468730000000  0.5244740000000  0.4854240000000 1.0
C      1  0.5424810000000  0.5753310000000  0.5440820000000 1.0
C      1  0.4406750000000  0.5755170000000  0.5146890000000 1.0
C      1  0.5160120000000  0.5749020000000  0.4419930000000 1.0
C      1  0.5423440000000  0.4249090000000  0.5442330000000 1.0
C      1  0.4410140000000  0.4244380000000  0.5148720000000 1.0
C      1  0.5160400000000  0.4251990000000  0.4415580000000 1.0
C      1  0.5426090000000  0.5751750000000  0.4558960000000 1.0
C      1  0.4408760000000  0.5754770000000  0.4854750000000 1.0
C      1  0.5160340000000  0.5748610000000  0.5580610000000 1.0
C      1  0.5423160000000  0.4248260000000  0.4557670000000 1.0
C      1  0.4408560000000  0.4242440000000  0.4851300000000 1.0
C      1  0.5162380000000  0.4249780000000  0.5583830000000 1.0
C      1  0.4524850000000  0.4811770000000  0.5547190000000 1.0
C      1  0.4766720000000  0.4810350000000  0.4334840000000 1.0
C      1  0.5713040000000  0.4815350000000  0.5128080000000 1.0
C      1  0.4528010000000  0.5195760000000  0.5535520000000 1.0
C      1  0.4765810000000  0.5188800000000  0.4328280000000 1.0
C      1  0.5700050000000  0.5198940000000  0.5142550000000 1.0
C      1  0.4522650000000  0.4809720000000  0.4456220000000 1.0
C      1  0.4761780000000  0.4812500000000  0.5672750000000 1.0
C      1  0.5699420000000  0.4802850000000  0.4859690000000 1.0
C      1  0.4529340000000  0.5194850000000  0.4463300000000 1.0
C      1  0.4764740000000  0.5185430000000  0.5671790000000 1.0
C      1  0.5697580000000  0.5189880000000  0.4869570000000 1.0
C      1  0.4089150000000  0.4853740000000  0.5370800000000 1.0
C      1  0.5132780000000  0.4850020000000  0.4024180000000 1.0
C      1  0.5778860000000  0.4851800000000  0.5600790000000 1.0
C      1  0.4089910000000  0.5148400000000  0.5370640000000 1.0
C      1  0.5134030000000  0.5150520000000  0.4023450000000 1.0
C      1  0.5780080000000  0.5149110000000  0.5602260000000 1.0
C      1  0.4089230000000  0.4853430000000  0.4629030000000 1.0
C      1  0.5130220000000  0.4851030000000  0.5973840000000 1.0
C      1  0.5780440000000  0.4851700000000  0.4396690000000 1.0
C      1  0.4090510000000  0.5148370000000  0.4629100000000 1.0
C      1  0.5134310000000  0.5149770000000  0.5975910000000 1.0
C      1  0.5779890000000  0.5150830000000  0.4396960000000 1.0
C      1  0.5798070000000  0.4534520000000  0.5153150000000 1.0
C      1  0.4475580000000  0.4547630000000  0.5604720000000 1.0
C      1  0.4732900000000  0.4536190000000  0.4234740000000 1.0
C      1  0.5788450000000  0.5458490000000  0.5151180000000 1.0
C      1  0.4478220000000  0.5456010000000  0.5603560000000 1.0
C      1  0.4734530000000  0.5465250000000  0.4232320000000 1.0
C      1  0.5786470000000  0.4543540000000  0.4848060000000 1.0
C      1  0.4475060000000  0.4546260000000  0.4394790000000 1.0
C      1  0.4733510000000  0.4535660000000  0.5768160000000 1.0
C      1  0.5795250000000  0.5466310000000  0.4848310000000 1.0
C      1  0.4478810000000  0.5455890000000  0.4396420000000 1.0
C      1  0.4734820000000  0.5463490000000  0.5766750000000 1.0
C      1  0.4071660000000  0.5344160000000  0.4850030000000 1.0
C      1  0.5598390000000  0.5346000000000  0.4265120000000 1.0
C      1  0.5341250000000  0.5343860000000  0.5884040000000 1.0
C      1  0.4072260000000  0.4656300000000  0.4849960000000 1.0
C      1  0.5598440000000  0.4656440000000  0.4265010000000 1.0
C      1  0.5336040000000  0.4657210000000  0.5883860000000 1.0
C      1  0.4071470000000  0.5344340000000  0.5149170000000 1.0
C      1  0.5599690000000  0.5343590000000  0.5732620000000 1.0
C      1  0.5339950000000  0.5344990000000  0.4114550000000 1.0
C      1  0.4073040000000  0.4656270000000  0.5150870000000 1.0
C      1  0.5596710000000  0.4657300000000  0.5736840000000 1.0
C      1  0.5338140000000  0.4655780000000  0.4117090000000 1.0
C      1  0.4305970000000  0.5498900000000  0.4759000000000 1.0
C      1  0.5554270000000  0.5490680000000  0.4515370000000 1.0
C      1  0.5143290000000  0.5490990000000  0.5727140000000 1.0
C      1  0.4302950000000  0.4501310000000  0.4757200000000 1.0
C      1  0.5558050000000  0.4507500000000  0.4515930000000 1.0
C      1  0.5141130000000  0.4508050000000  0.5722690000000 1.0
C      1  0.4305410000000  0.5498630000000  0.5240590000000 1.0
C      1  0.5560150000000  0.5496420000000  0.5483040000000 1.0
C      1  0.5143520000000  0.5491600000000  0.4274600000000 1.0
C      1  0.4303460000000  0.4500010000000  0.5243540000000 1.0
C      1  0.5556070000000  0.4506400000000  0.5489180000000 1.0
C      1  0.5141050000000  0.4511040000000  0.4278630000000 1.0
C      1  0.4769360000000  0.4403010000000  0.5132830000000 1.0
C      1  0.4998570000000  0.4441420000000  0.4738150000000 1.0
C      1  0.5239090000000  0.4395260000000  0.5125070000000 1.0
C      1  0.4776320000000  0.5602980000000  0.5122240000000 1.0
C      1  0.4989040000000  0.5557920000000  0.4727430000000 1.0
C      1  0.5228620000000  0.5613840000000  0.5126040000000 1.0
C      1  0.4767120000000  0.4401620000000  0.4869450000000 1.0
C      1  0.4997600000000  0.4442770000000  0.5260060000000 1.0
C      1  0.5240880000000  0.4401020000000  0.4871560000000 1.0
C      1  0.4776810000000  0.5605600000000  0.4874110000000 1.0
C      1  0.4991530000000  0.5555280000000  0.5273960000000 1.0
C      1  0.5232270000000  0.5607900000000  0.4872400000000 1.0
C      1  0.4321920000000  0.4997930000000  0.5002280000000 1.0
C      1  0.5342020000000  0.5004540000000  0.5591880000000 1.0
C      1  0.5341260000000  0.5002760000000  0.4406250000000 1.0
END
