TITL C-2441165-58-259 0.00217086775716733 125000 -6523.93387904777 0 0 46 (C1) n - 1
REM
REM in /home/bkarasulu/work/CARBON/AIRSS/Generating-Clusters/ReaxFF-fromJPCA2015/Units_Real/with-SteepDescent/Higher-Symm
REM
REM
REM
REM
REM
REM ./C.cell (1df0a924f5614ab8850e4351716899ee)
REM
REM compiler GCC version 9.2.1 20190827 (Red Hat 9.2.1-1)
REM options -cpp -mtune=generic -march=x86-64 -g -O0 -fpre-include=/usr/include/finclude/math-vector-fortran.h
REM seed -872060675 599950693 554219404 -1153873039 -1940232167 -847737609 -592707358 2005208201 1912252347 1441831837 -1547689016 1616856039 -935925426 2021963174 516631481 -810160169 -72118984 -658267188 -174606263 -1690291976 257985136 1460731346 229136379 -1189565114 -492907764 816638297 1977651637 -260251003 -1486236718 1673154003 2097881481 279720415 -844331793
REM
CELL 1.54180   50.00000   50.00000   50.00000   90.00000   90.00000   90.00000
LATT -1
SFAC C  
C      1  0.5299230000000  0.4834560000000  0.4579230000000 1.0
C      1  0.4987550000000  0.5260700000000  0.5635550000000 1.0
C      1  0.5349860000000  0.4299720000000  0.5135770000000 1.0
C      1  0.5098590000000  0.4644430000000  0.4478590000000 1.0
C      1  0.5249090000000  0.5368580000000  0.5306150000000 1.0
C      1  0.4889370000000  0.4840540000000  0.4401180000000 1.0
C      1  0.5599140000000  0.4856680000000  0.4540460000000 1.0
C      1  0.4561230000000  0.5009490000000  0.5273780000000 1.0
C      1  0.4943530000000  0.4507450000000  0.5122880000000 1.0
C      1  0.4842300000000  0.5053890000000  0.4832870000000 1.0
C      1  0.4242780000000  0.5054750000000  0.4916380000000 1.0
C      1  0.4822940000000  0.5500360000000  0.4650440000000 1.0
C      1  0.5505090000000  0.4391220000000  0.5331960000000 1.0
C      1  0.4658550000000  0.5296110000000  0.4772020000000 1.0
C      1  0.4743490000000  0.4618080000000  0.5581300000000 1.0
C      1  0.5606500000000  0.5088750000000  0.4734610000000 1.0
C      1  0.5114860000000  0.4752250000000  0.5630210000000 1.0
C      1  0.5281380000000  0.5537140000000  0.4812240000000 1.0
C      1  0.4998460000000  0.5611130000000  0.4861700000000 1.0
C      1  0.5098190000000  0.5096210000000  0.5260010000000 1.0
C      1  0.4688260000000  0.5521680000000  0.5303510000000 1.0
C      1  0.5007860000000  0.4497910000000  0.5550010000000 1.0
C      1  0.4702690000000  0.4852850000000  0.4626840000000 1.0
C      1  0.4876310000000  0.5506020000000  0.5542240000000 1.0
C      1  0.4846670000000  0.5035700000000  0.5132390000000 1.0
C      1  0.5347390000000  0.5495420000000  0.5076720000000 1.0
C      1  0.5178170000000  0.5039610000000  0.4773190000000 1.0
C      1  0.5077730000000  0.4413670000000  0.4667980000000 1.0
C      1  0.5091510000000  0.5019800000000  0.5661790000000 1.0
C      1  0.5168570000000  0.4663120000000  0.5005480000000 1.0
C      1  0.5294570000000  0.4449810000000  0.4861050000000 1.0
C      1  0.4841740000000  0.4395370000000  0.4856050000000 1.0
C      1  0.4499630000000  0.5319840000000  0.5226390000000 1.0
C      1  0.5096180000000  0.4340540000000  0.5305310000000 1.0
C      1  0.4328460000000  0.4855060000000  0.5102260000000 1.0
C      1  0.5093680000000  0.5615550000000  0.5370770000000 1.0
C      1  0.4905390000000  0.5643440000000  0.5142590000000 1.0
C      1  0.4977340000000  0.5111390000000  0.4301510000000 1.0
C      1  0.5198660000000  0.5280250000000  0.4383880000000 1.0
C      1  0.4428950000000  0.5307900000000  0.4949030000000 1.0
C      1  0.5336770000000  0.5274310000000  0.4654900000000 1.0
C      1  0.4932660000000  0.5390880000000  0.4395460000000 1.0
C      1  0.5594910000000  0.5011570000000  0.5008740000000 1.0
C      1  0.5277750000000  0.4941090000000  0.5051410000000 1.0
C      1  0.4607440000000  0.4803260000000  0.5479140000000 1.0
C      1  0.4708570000000  0.4591910000000  0.4713980000000 1.0
END
