TITL C-2441163-1170-1102 0.0416159275818697 125000 -14289.606754616 0 0 106 (C1) n - 1
REM
REM in /home/bkarasulu/work/CARBON/AIRSS/Generating-Clusters/ReaxFF-fromJPCA2015/Units_Real/with-SteepDescent/Higher-Symm
REM
REM
REM
REM
REM
REM ./C.cell (1df0a924f5614ab8850e4351716899ee)
REM
REM compiler GCC version 9.2.1 20190827 (Red Hat 9.2.1-1)
REM options -cpp -mtune=generic -march=x86-64 -g -O0 -fpre-include=/usr/include/finclude/math-vector-fortran.h
REM seed -1674010529 1532602322 2147143974 -1632755618 -964318080 -863693080 -1631783068 -849087140 -1653044294 749509889 466320023 -1933907828 1665112391 1299470745 -1524175550 -1131869114 -1761228405 1382937938 -748217536 1235416679 800406932 -1899875380 313942945 1821818572 -410293950 -393591392 1226136222 1922670863 393938478 99746926 -1091361039 1830739200 746249873
REM
CELL 1.54180   50.00000   50.00000   50.00000   90.00000   90.00000   90.00000
LATT -1
SFAC C  
C      1  0.4706410000000  0.4861220000000  0.4189460000000 1.0
C      1  0.4142690000000  0.4864010000000  0.5027380000000 1.0
C      1  0.4756460000000  0.4867930000000  0.5836160000000 1.0
C      1  0.5712400000000  0.4864160000000  0.5479010000000 1.0
C      1  0.5674160000000  0.4864120000000  0.4470330000000 1.0
C      1  0.5297000000000  0.4880090000000  0.4188860000000 1.0
C      1  0.5862030000000  0.4871990000000  0.5023110000000 1.0
C      1  0.5235920000000  0.4871880000000  0.5831160000000 1.0
C      1  0.4280790000000  0.4865060000000  0.5487770000000 1.0
C      1  0.4314950000000  0.4872240000000  0.4464240000000 1.0
C      1  0.4283320000000  0.4586610000000  0.5387400000000 1.0
C      1  0.5135650000000  0.4599000000000  0.5811970000000 1.0
C      1  0.5816030000000  0.4595670000000  0.5110310000000 1.0
C      1  0.5360470000000  0.4602260000000  0.4263580000000 1.0
C      1  0.4406430000000  0.4597220000000  0.4424740000000 1.0
C      1  0.5715220000000  0.4584050000000  0.5378450000000 1.0
C      1  0.4853780000000  0.4589160000000  0.5802300000000 1.0
C      1  0.4200520000000  0.4584170000000  0.5111010000000 1.0
C      1  0.4645520000000  0.4580540000000  0.4271510000000 1.0
C      1  0.5584030000000  0.4582540000000  0.4433970000000 1.0
C      1  0.4867030000000  0.4923010000000  0.4439180000000 1.0
C      1  0.4420840000000  0.4928330000000  0.4936540000000 1.0
C      1  0.4783450000000  0.4938560000000  0.5547520000000 1.0
C      1  0.5433880000000  0.4920030000000  0.5383250000000 1.0
C      1  0.5475930000000  0.4932740000000  0.4685290000000 1.0
C      1  0.5132330000000  0.4958160000000  0.4406430000000 1.0
C      1  0.5580860000000  0.4924970000000  0.4948780000000 1.0
C      1  0.5243560000000  0.4956470000000  0.5561560000000 1.0
C      1  0.4551450000000  0.4926630000000  0.5385390000000 1.0
C      1  0.4493230000000  0.4941300000000  0.4678730000000 1.0
C      1  0.4609260000000  0.4151470000000  0.5280910000000 1.0
C      1  0.5146690000000  0.4145010000000  0.5445270000000 1.0
C      1  0.5470210000000  0.4154010000000  0.4997500000000 1.0
C      1  0.5140340000000  0.4144610000000  0.4551410000000 1.0
C      1  0.4614970000000  0.4148440000000  0.4723670000000 1.0
C      1  0.5388350000000  0.4154500000000  0.5279700000000 1.0
C      1  0.4857170000000  0.4149390000000  0.5451650000000 1.0
C      1  0.4519690000000  0.4158950000000  0.4999460000000 1.0
C      1  0.4847970000000  0.4154860000000  0.4546330000000 1.0
C      1  0.5379390000000  0.4153680000000  0.4716660000000 1.0
C      1  0.5274540000000  0.4744200000000  0.4761280000000 1.0
C      1  0.4874190000000  0.4733930000000  0.4644470000000 1.0
C      1  0.4615410000000  0.4744050000000  0.4999650000000 1.0
C      1  0.4902270000000  0.4732130000000  0.5370590000000 1.0
C      1  0.5305910000000  0.4749270000000  0.5212250000000 1.0
C      1  0.4671120000000  0.4627560000000  0.4771550000000 1.0
C      1  0.5097410000000  0.4583300000000  0.4647580000000 1.0
C      1  0.5423320000000  0.4688390000000  0.4983900000000 1.0
C      1  0.5135560000000  0.4598930000000  0.5351790000000 1.0
C      1  0.4677850000000  0.4727450000000  0.5233220000000 1.0
C      1  0.5588850000000  0.5641140000000  0.4979340000000 1.0
C      1  0.5156800000000  0.5639870000000  0.4428110000000 1.0
C      1  0.4498380000000  0.5616500000000  0.4690700000000 1.0
C      1  0.4534090000000  0.5643470000000  0.5368370000000 1.0
C      1  0.5221520000000  0.5615320000000  0.5549770000000 1.0
C      1  0.4407990000000  0.5638070000000  0.4972330000000 1.0
C      1  0.4863350000000  0.5635640000000  0.4420980000000 1.0
C      1  0.5506260000000  0.5626590000000  0.4696060000000 1.0
C      1  0.5463960000000  0.5640390000000  0.5375160000000 1.0
C      1  0.4770940000000  0.5625010000000  0.5544790000000 1.0
C      1  0.4856370000000  0.5214300000000  0.5454260000000 1.0
C      1  0.5367340000000  0.5261490000000  0.5274570000000 1.0
C      1  0.5375140000000  0.5219700000000  0.4713450000000 1.0
C      1  0.4854010000000  0.5242950000000  0.4569150000000 1.0
C      1  0.4531310000000  0.5241230000000  0.4991780000000 1.0
C      1  0.5152380000000  0.5195310000000  0.5459490000000 1.0
C      1  0.4621730000000  0.5222930000000  0.5270370000000 1.0
C      1  0.4609790000000  0.5194540000000  0.4714890000000 1.0
C      1  0.5140130000000  0.5204180000000  0.4540290000000 1.0
C      1  0.5458360000000  0.5208270000000  0.5003670000000 1.0
C      1  0.5133390000000  0.5160130000000  0.5885220000000 1.0
C      1  0.5867290000000  0.5149650000000  0.5124730000000 1.0
C      1  0.5402530000000  0.5162000000000  0.4205530000000 1.0
C      1  0.4371800000000  0.5154930000000  0.4371450000000 1.0
C      1  0.4221850000000  0.5141980000000  0.5405470000000 1.0
C      1  0.4844700000000  0.5144230000000  0.5876000000000 1.0
C      1  0.4137720000000  0.5138330000000  0.5131190000000 1.0
C      1  0.4612030000000  0.5134910000000  0.4212850000000 1.0
C      1  0.5628840000000  0.5139770000000  0.4379860000000 1.0
C      1  0.5773620000000  0.5140990000000  0.5397770000000 1.0
C      1  0.5173630000000  0.5377100000000  0.4272560000000 1.0
C      1  0.4372580000000  0.5357190000000  0.4588740000000 1.0
C      1  0.4435750000000  0.5364040000000  0.5473680000000 1.0
C      1  0.5255540000000  0.5360720000000  0.5711730000000 1.0
C      1  0.5731080000000  0.5362070000000  0.4944350000000 1.0
C      1  0.4825550000000  0.5352800000000  0.4290070000000 1.0
C      1  0.5629830000000  0.5354810000000  0.4612840000000 1.0
C      1  0.5570370000000  0.5364630000000  0.5462520000000 1.0
C      1  0.4719290000000  0.5353930000000  0.5689780000000 1.0
C      1  0.4261870000000  0.5366170000000  0.4952190000000 1.0
C      1  0.4460650000000  0.4409240000000  0.4673290000000 1.0
C      1  0.4499620000000  0.4378240000000  0.5442130000000 1.0
C      1  0.5242570000000  0.4416760000000  0.5568820000000 1.0
C      1  0.5632780000000  0.4406850000000  0.4941250000000 1.0
C      1  0.5137830000000  0.4416030000000  0.4401790000000 1.0
C      1  0.5570970000000  0.4369430000000  0.4651790000000 1.0
C      1  0.5509660000000  0.4369890000000  0.5435890000000 1.0
C      1  0.4736550000000  0.4378860000000  0.5608380000000 1.0
C      1  0.4328850000000  0.4372160000000  0.4943010000000 1.0
C      1  0.4844320000000  0.4367900000000  0.4347480000000 1.0
C      1  0.4788530000000  0.5668560000000  0.4703430000000 1.0
C      1  0.4661930000000  0.5677550000000  0.5109900000000 1.0
C      1  0.5216110000000  0.5669210000000  0.4710870000000 1.0
C      1  0.5335770000000  0.5676840000000  0.5116760000000 1.0
C      1  0.4997510000000  0.5659660000000  0.5363410000000 1.0
C      1  0.4996280000000  0.5649340000000  0.4990460000000 1.0
END
