TITL C-2441162-9305-1071 0.0660553718498491 125000 -23040.1918535904 0 0 165 (C1) n - 1
REM
REM in /home/bkarasulu/work/CARBON/AIRSS/Generating-Clusters/ReaxFF-fromJPCA2015/Units_Real/with-SteepDescent/Higher-Symm
REM
REM
REM
REM
REM
REM ./C.cell (1df0a924f5614ab8850e4351716899ee)
REM
REM compiler GCC version 9.2.1 20190827 (Red Hat 9.2.1-1)
REM options -cpp -mtune=generic -march=x86-64 -g -O0 -fpre-include=/usr/include/finclude/math-vector-fortran.h
REM seed -635137191 -1564916002 -1933848809 1101982297 -1087495561 988809915 1844087884 -618075916 350448369 -409333376 519933663 -187881466 -550936795 750112079 -911846864 -11536033 -787813418 1188051736 1177079701 2039881461 -536072286 -831680048 -1652334029 569909635 -1730993447 610575522 1957908190 -1493223646 1398562592 676372617 1577066844 1361628992 1488057811
REM
CELL 1.54180   50.00000   50.00000   50.00000   90.00000   90.00000   90.00000
LATT -1
SFAC C  
C      1  0.4548070000000  0.5810380000000  0.4916590000000 1.0
C      1  0.5624090000000  0.5851400000000  0.4931580000000 1.0
C      1  0.6006280000000  0.4674950000000  0.4924610000000 1.0
C      1  0.4988770000000  0.3961290000000  0.4916060000000 1.0
C      1  0.4056600000000  0.4707520000000  0.4916550000000 1.0
C      1  0.4514840000000  0.4063950000000  0.5044510000000 1.0
C      1  0.5752080000000  0.4236380000000  0.5050250000000 1.0
C      1  0.5983040000000  0.5483550000000  0.5054070000000 1.0
C      1  0.4946190000000  0.6045840000000  0.5040270000000 1.0
C      1  0.3930060000000  0.5186130000000  0.5052850000000 1.0
C      1  0.4607610000000  0.4448410000000  0.4263920000000 1.0
C      1  0.4396440000000  0.5216790000000  0.4229760000000 1.0
C      1  0.5022850000000  0.5646110000000  0.4226880000000 1.0
C      1  0.5624600000000  0.5179600000000  0.4238430000000 1.0
C      1  0.5370660000000  0.4436310000000  0.4218140000000 1.0
C      1  0.4597660000000  0.5505550000000  0.5773640000000 1.0
C      1  0.4403240000000  0.4762110000000  0.5749470000000 1.0
C      1  0.5042320000000  0.4356860000000  0.5758650000000 1.0
C      1  0.5638160000000  0.4830980000000  0.5755530000000 1.0
C      1  0.5346260000000  0.5541650000000  0.5750200000000 1.0
C      1  0.4795360000000  0.5639000000000  0.5385390000000 1.0
C      1  0.5559510000000  0.5382010000000  0.5338210000000 1.0
C      1  0.5538240000000  0.4606270000000  0.5389240000000 1.0
C      1  0.4765910000000  0.4350980000000  0.5389590000000 1.0
C      1  0.4319850000000  0.5034260000000  0.5365110000000 1.0
C      1  0.4803770000000  0.4398140000000  0.4634360000000 1.0
C      1  0.5533860000000  0.4619880000000  0.4603250000000 1.0
C      1  0.5535380000000  0.5402330000000  0.4608830000000 1.0
C      1  0.4784190000000  0.5633070000000  0.4594100000000 1.0
C      1  0.4328270000000  0.4996580000000  0.4592670000000 1.0
C      1  0.3954130000000  0.4910270000000  0.5118000000000 1.0
C      1  0.4463920000000  0.5884720000000  0.5180780000000 1.0
C      1  0.5808800000000  0.5709600000000  0.5117370000000 1.0
C      1  0.5915350000000  0.4467990000000  0.5114420000000 1.0
C      1  0.4775920000000  0.3968010000000  0.5120050000000 1.0
C      1  0.3965690000000  0.5186120000000  0.4782570000000 1.0
C      1  0.4454510000000  0.4133280000000  0.4768770000000 1.0
C      1  0.5655720000000  0.4201150000000  0.4778270000000 1.0
C      1  0.5968940000000  0.5378170000000  0.4784360000000 1.0
C      1  0.4948640000000  0.6037960000000  0.4765590000000 1.0
C      1  0.4634290000000  0.5417120000000  0.5470020000000 1.0
C      1  0.5340600000000  0.5465400000000  0.5465890000000 1.0
C      1  0.5551380000000  0.4853060000000  0.5476760000000 1.0
C      1  0.5018940000000  0.4400550000000  0.5479920000000 1.0
C      1  0.4430460000000  0.4812490000000  0.5466120000000 1.0
C      1  0.4661420000000  0.4581780000000  0.4511970000000 1.0
C      1  0.5293020000000  0.4529990000000  0.4505060000000 1.0
C      1  0.5516530000000  0.5136050000000  0.4512220000000 1.0
C      1  0.5022100000000  0.5549450000000  0.4505770000000 1.0
C      1  0.4497370000000  0.5197160000000  0.4528350000000 1.0
C      1  0.4870900000000  0.5536710000000  0.5855830000000 1.0
C      1  0.5459960000000  0.5278950000000  0.5847670000000 1.0
C      1  0.5430060000000  0.4640390000000  0.5842730000000 1.0
C      1  0.4785400000000  0.4499660000000  0.5840990000000 1.0
C      1  0.4482610000000  0.5026950000000  0.5868540000000 1.0
C      1  0.4872900000000  0.4478820000000  0.4136670000000 1.0
C      1  0.5518900000000  0.4675170000000  0.4138700000000 1.0
C      1  0.5405150000000  0.5348320000000  0.4135580000000 1.0
C      1  0.4793180000000  0.5491500000000  0.4140520000000 1.0
C      1  0.4469310000000  0.4944470000000  0.4141490000000 1.0
C      1  0.5101450000000  0.4301350000000  0.4220230000000 1.0
C      1  0.4397620000000  0.4664230000000  0.4238770000000 1.0
C      1  0.4499410000000  0.5488150000000  0.4253210000000 1.0
C      1  0.5315610000000  0.5623940000000  0.4237000000000 1.0
C      1  0.5715900000000  0.4895770000000  0.4249220000000 1.0
C      1  0.5096370000000  0.5696260000000  0.5733960000000 1.0
C      1  0.4385100000000  0.5305280000000  0.5788030000000 1.0
C      1  0.4510130000000  0.4490380000000  0.5728280000000 1.0
C      1  0.5334860000000  0.4387130000000  0.5733180000000 1.0
C      1  0.5697410000000  0.5114740000000  0.5732470000000 1.0
C      1  0.5236810000000  0.4997050000000  0.4388970000000 1.0
C      1  0.5088510000000  0.4764020000000  0.4505850000000 1.0
C      1  0.4817120000000  0.4824720000000  0.4414250000000 1.0
C      1  0.4780500000000  0.5097800000000  0.4460730000000 1.0
C      1  0.5043180000000  0.5212060000000  0.4489940000000 1.0
C      1  0.5239650000000  0.5047160000000  0.5508970000000 1.0
C      1  0.5060650000000  0.5247230000000  0.5612710000000 1.0
C      1  0.4813990000000  0.5160110000000  0.5504030000000 1.0
C      1  0.4839130000000  0.4880970000000  0.5511800000000 1.0
C      1  0.5097390000000  0.4817830000000  0.5618970000000 1.0
C      1  0.5439150000000  0.4188480000000  0.5507710000000 1.0
C      1  0.4363870000000  0.4323350000000  0.5511840000000 1.0
C      1  0.4169420000000  0.5327950000000  0.5595700000000 1.0
C      1  0.5112350000000  0.5913840000000  0.5515850000000 1.0
C      1  0.5910500000000  0.5168670000000  0.5517980000000 1.0
C      1  0.5432330000000  0.5790530000000  0.4447020000000 1.0
C      1  0.4366050000000  0.5646560000000  0.4466480000000 1.0
C      1  0.4204640000000  0.4598490000000  0.4451570000000 1.0
C      1  0.5111610000000  0.4121250000000  0.4446560000000 1.0
C      1  0.5889970000000  0.4874210000000  0.4480110000000 1.0
C      1  0.5744530000000  0.4420360000000  0.4603480000000 1.0
C      1  0.4662910000000  0.4161870000000  0.4557050000000 1.0
C      1  0.4038160000000  0.5025920000000  0.4557340000000 1.0
C      1  0.4744060000000  0.5917220000000  0.4566620000000 1.0
C      1  0.5797550000000  0.5535070000000  0.4608940000000 1.0
C      1  0.5752910000000  0.5589350000000  0.5381140000000 1.0
C      1  0.4668720000000  0.5896950000000  0.5388250000000 1.0
C      1  0.4035030000000  0.4990750000000  0.5402510000000 1.0
C      1  0.4733470000000  0.4063040000000  0.5398020000000 1.0
C      1  0.5800550000000  0.4473440000000  0.5390540000000 1.0
C      1  0.5637750000000  0.5059300000000  0.4810630000000 1.0
C      1  0.5234530000000  0.4361450000000  0.4741300000000 1.0
C      1  0.4407700000000  0.4583150000000  0.4682140000000 1.0
C      1  0.4432160000000  0.5342850000000  0.4779110000000 1.0
C      1  0.5178930000000  0.5652030000000  0.4734870000000 1.0
C      1  0.5680630000000  0.4958930000000  0.5259560000000 1.0
C      1  0.5268540000000  0.5640140000000  0.5258830000000 1.0
C      1  0.4432090000000  0.5423490000000  0.5269320000000 1.0
C      1  0.4423830000000  0.4627090000000  0.5247270000000 1.0
C      1  0.5173880000000  0.4353820000000  0.5241120000000 1.0
C      1  0.5649850000000  0.5791620000000  0.4635460000000 1.0
C      1  0.5944520000000  0.4636780000000  0.4631980000000 1.0
C      1  0.4916660000000  0.4016040000000  0.4626040000000 1.0
C      1  0.4015440000000  0.4739590000000  0.4621330000000 1.0
C      1  0.4462840000000  0.5868270000000  0.4636980000000 1.0
C      1  0.5684650000000  0.4209050000000  0.5353060000000 1.0
C      1  0.5976090000000  0.5406620000000  0.5358650000000 1.0
C      1  0.4916440000000  0.6048570000000  0.5329750000000 1.0
C      1  0.3991160000000  0.5275830000000  0.5394350000000 1.0
C      1  0.4454560000000  0.4098570000000  0.5346190000000 1.0
C      1  0.4892350000000  0.5241190000000  0.4041970000000 1.0
C      1  0.5183390000000  0.5192040000000  0.4025450000000 1.0
C      1  0.5194330000000  0.4905430000000  0.4093340000000 1.0
C      1  0.4948200000000  0.4745840000000  0.4035160000000 1.0
C      1  0.4751440000000  0.4969840000000  0.4045520000000 1.0
C      1  0.4877560000000  0.4748470000000  0.5962230000000 1.0
C      1  0.5190840000000  0.4825660000000  0.5912110000000 1.0
C      1  0.5242760000000  0.5131780000000  0.5960530000000 1.0
C      1  0.4969020000000  0.5245600000000  0.5928010000000 1.0
C      1  0.4748990000000  0.5006040000000  0.5955730000000 1.0
C      1  0.4986110000000  0.4466410000000  0.4833950000000 1.0
C      1  0.4425900000000  0.4846270000000  0.4804030000000 1.0
C      1  0.4672010000000  0.5503620000000  0.4830820000000 1.0
C      1  0.5331360000000  0.5423500000000  0.4801710000000 1.0
C      1  0.5492820000000  0.4813840000000  0.4802990000000 1.0
C      1  0.4997980000000  0.5562900000000  0.5205260000000 1.0
C      1  0.4434960000000  0.5170190000000  0.5130150000000 1.0
C      1  0.4686290000000  0.4539340000000  0.5198680000000 1.0
C      1  0.5328420000000  0.4590750000000  0.5203670000000 1.0
C      1  0.5529670000000  0.5173670000000  0.5127830000000 1.0
C      1  0.5226520000000  0.5093600000000  0.5217240000000 1.0
C      1  0.5167020000000  0.4825310000000  0.5137620000000 1.0
C      1  0.4844160000000  0.4785220000000  0.5230940000000 1.0
C      1  0.4666990000000  0.4987910000000  0.5120630000000 1.0
C      1  0.5005430000000  0.5286230000000  0.5148260000000 1.0
C      1  0.5217260000000  0.4890300000000  0.4874320000000 1.0
C      1  0.5144250000000  0.5194640000000  0.4777970000000 1.0
C      1  0.4877190000000  0.5259870000000  0.4899900000000 1.0
C      1  0.4720570000000  0.4934630000000  0.4847080000000 1.0
C      1  0.4997400000000  0.4752120000000  0.4785130000000 1.0
C      1  0.5965580000000  0.4977380000000  0.5290570000000 1.0
C      1  0.5276930000000  0.4084880000000  0.5284640000000 1.0
C      1  0.4199950000000  0.4445670000000  0.5298080000000 1.0
C      1  0.4262330000000  0.5654080000000  0.5205830000000 1.0
C      1  0.5321050000000  0.5925840000000  0.5310380000000 1.0
C      1  0.5939110000000  0.5074670000000  0.4756320000000 1.0
C      1  0.5236600000000  0.5941010000000  0.4762370000000 1.0
C      1  0.4193290000000  0.5502970000000  0.4688310000000 1.0
C      1  0.4258360000000  0.4345160000000  0.4778520000000 1.0
C      1  0.5374670000000  0.4101990000000  0.4758570000000 1.0
C      1  0.5259660000000  0.3979770000000  0.5005040000000 1.0
C      1  0.5387990000000  0.5981280000000  0.5018920000000 1.0
C      1  0.6049840000000  0.4940910000000  0.5010480000000 1.0
C      1  0.4114260000000  0.4436180000000  0.5015660000000 1.0
C      1  0.4148110000000  0.5609800000000  0.4949660000000 1.0
END
