TITL C-2441159-1093-1177 0.058658987618638 125000 -22091.0468680501 0 0 161 (C1) n - 1
REM
REM in /home/bkarasulu/work/CARBON/AIRSS/Generating-Clusters/ReaxFF-fromJPCA2015/Units_Real/with-SteepDescent/Higher-Symm
REM
REM
REM
REM
REM
REM ./C.cell (1df0a924f5614ab8850e4351716899ee)
REM
REM compiler GCC version 9.2.1 20190827 (Red Hat 9.2.1-1)
REM options -cpp -mtune=generic -march=x86-64 -g -O0 -fpre-include=/usr/include/finclude/math-vector-fortran.h
REM seed -303723625 -949890275 1465395303 -98540102 -1825434163 518644061 186232206 2115004116 -1880085839 -1974595059 -1045612766 508812637 1484744843 -1584941476 -2020995512 -72860547 -34012385 834398669 359075034 -1845690938 1908648648 414773421 886553733 -1227958013 762003179 -1314919918 498603319 -1667574990 -485863529 -939607055 -1287658260 604533572 441548698
REM
CELL 1.54180   50.00000   50.00000   50.00000   90.00000   90.00000   90.00000
LATT -1
SFAC C  
C      1  0.5006110000000  0.4268300000000  0.5655490000000 1.0
C      1  0.4532070000000  0.5785480000000  0.4819970000000 1.0
C      1  0.4463610000000  0.5610470000000  0.4591640000000 1.0
C      1  0.5592200000000  0.4953700000000  0.5945350000000 1.0
C      1  0.5144220000000  0.4297420000000  0.4363840000000 1.0
C      1  0.4671720000000  0.5424330000000  0.5058770000000 1.0
C      1  0.4949250000000  0.5177340000000  0.4766610000000 1.0
C      1  0.3966300000000  0.5157750000000  0.4710710000000 1.0
C      1  0.4396570000000  0.4965760000000  0.5084920000000 1.0
C      1  0.4780580000000  0.4566770000000  0.5837150000000 1.0
C      1  0.5675920000000  0.5443300000000  0.4443800000000 1.0
C      1  0.4608390000000  0.4669370000000  0.4749840000000 1.0
C      1  0.6039720000000  0.5371690000000  0.5081200000000 1.0
C      1  0.5773710000000  0.5547950000000  0.5558960000000 1.0
C      1  0.5757450000000  0.4476090000000  0.4864740000000 1.0
C      1  0.4526930000000  0.5188850000000  0.4949920000000 1.0
C      1  0.5389230000000  0.5665800000000  0.5724300000000 1.0
C      1  0.5216690000000  0.5772420000000  0.4737430000000 1.0
C      1  0.5452840000000  0.4751830000000  0.4426370000000 1.0
C      1  0.3881240000000  0.4677420000000  0.4773590000000 1.0
C      1  0.4690600000000  0.4400350000000  0.4825030000000 1.0
C      1  0.5443340000000  0.5088330000000  0.4903520000000 1.0
C      1  0.6069910000000  0.4843560000000  0.5033680000000 1.0
C      1  0.5826160000000  0.5457980000000  0.4920640000000 1.0
C      1  0.4944640000000  0.5234360000000  0.4082060000000 1.0
C      1  0.4515970000000  0.4167210000000  0.5244070000000 1.0
C      1  0.5088980000000  0.5018980000000  0.5980330000000 1.0
C      1  0.4699150000000  0.4788680000000  0.5430560000000 1.0
C      1  0.5119730000000  0.5767260000000  0.4990690000000 1.0
C      1  0.5735970000000  0.4575480000000  0.5616000000000 1.0
C      1  0.4815090000000  0.5950050000000  0.5316970000000 1.0
C      1  0.4401640000000  0.5246860000000  0.5365880000000 1.0
C      1  0.5331170000000  0.4859650000000  0.6023090000000 1.0
C      1  0.5094240000000  0.5677180000000  0.5666300000000 1.0
C      1  0.5164470000000  0.4788450000000  0.5648820000000 1.0
C      1  0.5831540000000  0.5076040000000  0.5599010000000 1.0
C      1  0.4220460000000  0.4765960000000  0.5523310000000 1.0
C      1  0.5724470000000  0.5315090000000  0.5731110000000 1.0
C      1  0.4283840000000  0.4786960000000  0.4255110000000 1.0
C      1  0.4414610000000  0.4360280000000  0.5438970000000 1.0
C      1  0.5610860000000  0.5921240000000  0.4835350000000 1.0
C      1  0.5257800000000  0.4070130000000  0.5318490000000 1.0
C      1  0.4830260000000  0.5688330000000  0.4289780000000 1.0
C      1  0.4514760000000  0.5226720000000  0.4116600000000 1.0
C      1  0.5552440000000  0.5508520000000  0.5015580000000 1.0
C      1  0.5019680000000  0.5293760000000  0.5888460000000 1.0
C      1  0.5366170000000  0.4336000000000  0.5436120000000 1.0
C      1  0.5597040000000  0.5011700000000  0.4126430000000 1.0
C      1  0.4378330000000  0.4959350000000  0.5941230000000 1.0
C      1  0.5316870000000  0.4092130000000  0.4861100000000 1.0
C      1  0.4289030000000  0.5360750000000  0.4869020000000 1.0
C      1  0.4498320000000  0.5405570000000  0.5766640000000 1.0
C      1  0.6139710000000  0.5114120000000  0.4955580000000 1.0
C      1  0.5414200000000  0.5232250000000  0.4061470000000 1.0
C      1  0.5851770000000  0.4181150000000  0.4885630000000 1.0
C      1  0.5134340000000  0.6051030000000  0.5071680000000 1.0
C      1  0.4166140000000  0.4972900000000  0.4679190000000 1.0
C      1  0.4257540000000  0.4549080000000  0.4420820000000 1.0
C      1  0.4843670000000  0.6048620000000  0.5033580000000 1.0
C      1  0.4173210000000  0.5564800000000  0.4693870000000 1.0
C      1  0.5207360000000  0.5119950000000  0.4664180000000 1.0
C      1  0.4313020000000  0.5085210000000  0.4280370000000 1.0
C      1  0.5204620000000  0.5386450000000  0.4524690000000 1.0
C      1  0.5739210000000  0.5170100000000  0.5339850000000 1.0
C      1  0.5072680000000  0.5099570000000  0.4282910000000 1.0
C      1  0.5484880000000  0.4444600000000  0.5679130000000 1.0
C      1  0.4915750000000  0.5491090000000  0.4484450000000 1.0
C      1  0.4993550000000  0.3964490000000  0.5233710000000 1.0
C      1  0.3948620000000  0.5201370000000  0.5353060000000 1.0
C      1  0.4177560000000  0.5194480000000  0.4505900000000 1.0
C      1  0.5451500000000  0.4539500000000  0.4221780000000 1.0
C      1  0.4692750000000  0.4209970000000  0.4447010000000 1.0
C      1  0.5209920000000  0.4920030000000  0.4440410000000 1.0
C      1  0.4856880000000  0.4688720000000  0.4302330000000 1.0
C      1  0.5784390000000  0.4537430000000  0.5330190000000 1.0
C      1  0.5283100000000  0.4590140000000  0.5853670000000 1.0
C      1  0.5070080000000  0.4753160000000  0.4063430000000 1.0
C      1  0.5079060000000  0.5877240000000  0.5444000000000 1.0
C      1  0.4903150000000  0.4629470000000  0.5286830000000 1.0
C      1  0.5302150000000  0.5438460000000  0.4245720000000 1.0
C      1  0.4627140000000  0.4159150000000  0.4972920000000 1.0
C      1  0.5020140000000  0.4413720000000  0.5891810000000 1.0
C      1  0.4216190000000  0.4507610000000  0.4922780000000 1.0
C      1  0.4949890000000  0.4113810000000  0.4502820000000 1.0
C      1  0.4690610000000  0.5117730000000  0.4655310000000 1.0
C      1  0.5346920000000  0.4949620000000  0.4016670000000 1.0
C      1  0.5526880000000  0.5829240000000  0.5083690000000 1.0
C      1  0.5163480000000  0.5339520000000  0.5343030000000 1.0
C      1  0.4178750000000  0.5113830000000  0.5527700000000 1.0
C      1  0.4484960000000  0.4732880000000  0.4055140000000 1.0
C      1  0.5208960000000  0.5042060000000  0.5079350000000 1.0
C      1  0.4935480000000  0.4348460000000  0.5398030000000 1.0
C      1  0.4020950000000  0.5425600000000  0.5182790000000 1.0
C      1  0.5839220000000  0.4814200000000  0.5216180000000 1.0
C      1  0.4520660000000  0.5664510000000  0.5091070000000 1.0
C      1  0.4936880000000  0.5051110000000  0.5185410000000 1.0
C      1  0.5224790000000  0.4366660000000  0.4856310000000 1.0
C      1  0.4634620000000  0.5268420000000  0.5529350000000 1.0
C      1  0.4278370000000  0.5193960000000  0.5800940000000 1.0
C      1  0.5303890000000  0.4644190000000  0.4915280000000 1.0
C      1  0.5437470000000  0.4844190000000  0.5338310000000 1.0
C      1  0.3846800000000  0.5053480000000  0.5120910000000 1.0
C      1  0.4018800000000  0.4526080000000  0.5133280000000 1.0
C      1  0.4964960000000  0.4452610000000  0.4769380000000 1.0
C      1  0.5433770000000  0.4317730000000  0.4417660000000 1.0
C      1  0.4174390000000  0.4499500000000  0.5378730000000 1.0
C      1  0.5624970000000  0.5190400000000  0.4583430000000 1.0
C      1  0.5312180000000  0.5954650000000  0.5284940000000 1.0
C      1  0.5931700000000  0.5390480000000  0.5353840000000 1.0
C      1  0.4899590000000  0.4974530000000  0.3938480000000 1.0
C      1  0.5942170000000  0.4853780000000  0.4582390000000 1.0
C      1  0.5060520000000  0.3990910000000  0.4757830000000 1.0
C      1  0.5885020000000  0.5341270000000  0.4642800000000 1.0
C      1  0.5677510000000  0.4941230000000  0.4431600000000 1.0
C      1  0.4610850000000  0.4985150000000  0.3975790000000 1.0
C      1  0.5644940000000  0.4429850000000  0.4595510000000 1.0
C      1  0.4774760000000  0.4100590000000  0.5372300000000 1.0
C      1  0.6057630000000  0.5089100000000  0.4682300000000 1.0
C      1  0.4342660000000  0.4788840000000  0.4861580000000 1.0
C      1  0.4742660000000  0.5334340000000  0.5974420000000 1.0
C      1  0.5576780000000  0.4886020000000  0.5081980000000 1.0
C      1  0.5465080000000  0.4083410000000  0.5119190000000 1.0
C      1  0.4530690000000  0.4486550000000  0.5707190000000 1.0
C      1  0.4601100000000  0.5106140000000  0.6033010000000 1.0
C      1  0.4470970000000  0.4349750000000  0.4347940000000 1.0
C      1  0.5166850000000  0.5878770000000  0.4469370000000 1.0
C      1  0.4442640000000  0.4819190000000  0.5323450000000 1.0
C      1  0.4877350000000  0.5905980000000  0.4489380000000 1.0
C      1  0.4755380000000  0.5955630000000  0.4764900000000 1.0
C      1  0.4866060000000  0.3980310000000  0.4969390000000 1.0
C      1  0.4915860000000  0.4860520000000  0.5778210000000 1.0
C      1  0.5475080000000  0.5172040000000  0.5786750000000 1.0
C      1  0.5576350000000  0.5700200000000  0.4548090000000 1.0
C      1  0.4915280000000  0.5404680000000  0.4922900000000 1.0
C      1  0.4359750000000  0.4700910000000  0.5780070000000 1.0
C      1  0.5342880000000  0.5000160000000  0.5568260000000 1.0
C      1  0.4855410000000  0.4807210000000  0.5036820000000 1.0
C      1  0.4649980000000  0.5385880000000  0.4522840000000 1.0
C      1  0.5177030000000  0.4477060000000  0.4124030000000 1.0
C      1  0.5826440000000  0.4170180000000  0.4587740000000 1.0
C      1  0.5080010000000  0.5516660000000  0.5131250000000 1.0
C      1  0.3894900000000  0.5278900000000  0.4956140000000 1.0
C      1  0.4649260000000  0.4517870000000  0.4172810000000 1.0
C      1  0.4603150000000  0.5819230000000  0.5458010000000 1.0
C      1  0.3848990000000  0.4769900000000  0.5037590000000 1.0
C      1  0.5378940000000  0.5546820000000  0.4729410000000 1.0
C      1  0.5022010000000  0.5395330000000  0.5604970000000 1.0
C      1  0.5218750000000  0.4760810000000  0.5178710000000 1.0
C      1  0.5032360000000  0.4713080000000  0.4829490000000 1.0
C      1  0.4423210000000  0.5635560000000  0.5553180000000 1.0
C      1  0.4312510000000  0.5527180000000  0.5284070000000 1.0
C      1  0.4719380000000  0.5441930000000  0.4126000000000 1.0
C      1  0.5966270000000  0.4682880000000  0.4811230000000 1.0
C      1  0.5780880000000  0.4835380000000  0.5749980000000 1.0
C      1  0.5469470000000  0.5359390000000  0.5282020000000 1.0
C      1  0.4751660000000  0.4814020000000  0.4542300000000 1.0
C      1  0.5577510000000  0.4346430000000  0.5238750000000 1.0
C      1  0.4082460000000  0.4508640000000  0.4659350000000 1.0
C      1  0.5510130000000  0.5625640000000  0.5447920000000 1.0
C      1  0.5378620000000  0.5708210000000  0.4322820000000 1.0
C      1  0.4817340000000  0.5040180000000  0.5510450000000 1.0
END
