TITL C-2441154-10-873 0.0527114598805726 125000 -22261.7325253047 0 0 157 (C1) n - 1
REM
REM in /home/bkarasulu/work/CARBON/AIRSS/Generating-Clusters/ReaxFF-fromJPCA2015/Units_Real/with-SteepDescent/Higher-Symm
REM
REM
REM
REM
REM
REM ./C.cell (1df0a924f5614ab8850e4351716899ee)
REM
REM compiler GCC version 9.2.1 20190827 (Red Hat 9.2.1-1)
REM options -cpp -mtune=generic -march=x86-64 -g -O0 -fpre-include=/usr/include/finclude/math-vector-fortran.h
REM seed 450623480 -1793160375 161354748 475494265 -106147360 -659729886 -838283804 -839727359 -322787534 2077223741 884332268 118930779 1633717913 -2095880638 -1606199382 1475653320 994054869 -1422630993 -1878439969 2094897065 562049559 1870709029 -159075371 -391292284 399544657 2040284308 -772971569 2036202316 -1039404432 1702772177 -417305042 -471441592 1742659853
REM
CELL 1.54180   50.00000   50.00000   50.00000   90.00000   90.00000   90.00000
LATT -1
SFAC C  
C      1  0.5742030000000  0.4578080000000  0.5530680000000 1.0
C      1  0.5726000000000  0.5707120000000  0.5162120000000 1.0
C      1  0.5722450000000  0.4756670000000  0.4339540000000 1.0
C      1  0.5553670000000  0.5719400000000  0.4711060000000 1.0
C      1  0.5558850000000  0.4370360000000  0.4506880000000 1.0
C      1  0.5529090000000  0.4894090000000  0.5747760000000 1.0
C      1  0.5232450000000  0.5238520000000  0.5310190000000 1.0
C      1  0.5280110000000  0.5119720000000  0.4556870000000 1.0
C      1  0.5213770000000  0.4632520000000  0.5033510000000 1.0
C      1  0.3964580000000  0.5139910000000  0.5203100000000 1.0
C      1  0.4010200000000  0.5058350000000  0.4885020000000 1.0
C      1  0.4026970000000  0.4748750000000  0.4898080000000 1.0
C      1  0.4433600000000  0.4458570000000  0.5347350000000 1.0
C      1  0.4487160000000  0.5433620000000  0.5363960000000 1.0
C      1  0.4434000000000  0.4994950000000  0.4397750000000 1.0
C      1  0.5521980000000  0.5829140000000  0.4987350000000 1.0
C      1  0.5518240000000  0.4553770000000  0.4282670000000 1.0
C      1  0.5527150000000  0.4603490000000  0.5728550000000 1.0
C      1  0.4363350000000  0.5515620000000  0.4389790000000 1.0
C      1  0.4437390000000  0.4186570000000  0.4920860000000 1.0
C      1  0.4408290000000  0.5359820000000  0.5755390000000 1.0
C      1  0.4698110000000  0.4587940000000  0.4923860000000 1.0
C      1  0.4767140000000  0.5184270000000  0.5474470000000 1.0
C      1  0.4664140000000  0.5308870000000  0.4582590000000 1.0
C      1  0.4839040000000  0.6032430000000  0.5257190000000 1.0
C      1  0.4822510000000  0.4690880000000  0.3952690000000 1.0
C      1  0.4829980000000  0.4263910000000  0.5755750000000 1.0
C      1  0.5254250000000  0.5897570000000  0.5403070000000 1.0
C      1  0.5255190000000  0.4877710000000  0.3999500000000 1.0
C      1  0.5246610000000  0.4213610000000  0.5571920000000 1.0
C      1  0.4767210000000  0.4023810000000  0.4592910000000 1.0
C      1  0.4737220000000  0.5146320000000  0.6025140000000 1.0
C      1  0.4776790000000  0.5824590000000  0.4348990000000 1.0
C      1  0.4394880000000  0.4852270000000  0.5762660000000 1.0
C      1  0.4400100000000  0.5822210000000  0.4774520000000 1.0
C      1  0.4386110000000  0.4412130000000  0.4410200000000 1.0
C      1  0.4603190000000  0.5373610000000  0.4301380000000 1.0
C      1  0.4667430000000  0.4094440000000  0.5064340000000 1.0
C      1  0.4644620000000  0.5533730000000  0.5764420000000 1.0
C      1  0.4619130000000  0.4669750000000  0.5831080000000 1.0
C      1  0.4647670000000  0.5878470000000  0.4920390000000 1.0
C      1  0.4612650000000  0.4493040000000  0.4257000000000 1.0
C      1  0.5122250000000  0.5473420000000  0.5125580000000 1.0
C      1  0.5147750000000  0.4862040000000  0.4570820000000 1.0
C      1  0.5109240000000  0.4720150000000  0.5336630000000 1.0
C      1  0.4550290000000  0.4698420000000  0.4059680000000 1.0
C      1  0.4586250000000  0.4388000000000  0.5772130000000 1.0
C      1  0.4576280000000  0.5915430000000  0.5200840000000 1.0
C      1  0.5596800000000  0.5012100000000  0.5489040000000 1.0
C      1  0.5663350000000  0.5450330000000  0.4716800000000 1.0
C      1  0.5621500000000  0.4525700000000  0.4749850000000 1.0
C      1  0.4480120000000  0.4332870000000  0.5557930000000 1.0
C      1  0.4404040000000  0.5699520000000  0.5297710000000 1.0
C      1  0.4378730000000  0.4913990000000  0.4152870000000 1.0
C      1  0.4891990000000  0.5099520000000  0.4209440000000 1.0
C      1  0.4879920000000  0.4241430000000  0.5263910000000 1.0
C      1  0.4854060000000  0.5641960000000  0.5538880000000 1.0
C      1  0.5468850000000  0.5102570000000  0.5937440000000 1.0
C      1  0.5475570000000  0.5740860000000  0.4430480000000 1.0
C      1  0.5476330000000  0.4127940000000  0.4632600000000 1.0
C      1  0.4216860000000  0.4996090000000  0.5249860000000 1.0
C      1  0.4306330000000  0.5082020000000  0.4985740000000 1.0
C      1  0.4279930000000  0.4677860000000  0.4765520000000 1.0
C      1  0.5911480000000  0.4805940000000  0.5218260000000 1.0
C      1  0.5957440000000  0.5306900000000  0.5040760000000 1.0
C      1  0.5936690000000  0.4856510000000  0.4809960000000 1.0
C      1  0.5910480000000  0.4553710000000  0.4801730000000 1.0
C      1  0.5879590000000  0.5098620000000  0.5509520000000 1.0
C      1  0.5946780000000  0.5448420000000  0.4786340000000 1.0
C      1  0.5539480000000  0.5501290000000  0.4266360000000 1.0
C      1  0.5574600000000  0.4124570000000  0.4921180000000 1.0
C      1  0.5561420000000  0.5352640000000  0.5803880000000 1.0
C      1  0.4064280000000  0.4556210000000  0.5109330000000 1.0
C      1  0.4058540000000  0.5387250000000  0.5317500000000 1.0
C      1  0.4096790000000  0.5152690000000  0.4608790000000 1.0
C      1  0.5117220000000  0.4447190000000  0.4601840000000 1.0
C      1  0.5098450000000  0.4932450000000  0.5686660000000 1.0
C      1  0.5098210000000  0.5625210000000  0.4664750000000 1.0
C      1  0.5683590000000  0.5023730000000  0.4212520000000 1.0
C      1  0.5695150000000  0.4352120000000  0.5331200000000 1.0
C      1  0.5681150000000  0.5597210000000  0.5432360000000 1.0
C      1  0.4858830000000  0.4563400000000  0.4453220000000 1.0
C      1  0.4851770000000  0.4779250000000  0.5683470000000 1.0
C      1  0.4881160000000  0.5674680000000  0.4858180000000 1.0
C      1  0.4639570000000  0.4681230000000  0.5317590000000 1.0
C      1  0.4671830000000  0.5339140000000  0.5172450000000 1.0
C      1  0.4586140000000  0.4881850000000  0.4595850000000 1.0
C      1  0.4978220000000  0.4052260000000  0.4384490000000 1.0
C      1  0.4951260000000  0.4949160000000  0.6109690000000 1.0
C      1  0.4979990000000  0.6004440000000  0.4475710000000 1.0
C      1  0.5043080000000  0.6082470000000  0.5025190000000 1.0
C      1  0.5032590000000  0.4476860000000  0.4032930000000 1.0
C      1  0.5035250000000  0.4438710000000  0.5905850000000 1.0
C      1  0.4998480000000  0.6072960000000  0.4750330000000 1.0
C      1  0.4988080000000  0.4250030000000  0.4185670000000 1.0
C      1  0.4954020000000  0.4665540000000  0.6061610000000 1.0
C      1  0.4167310000000  0.4918320000000  0.4380070000000 1.0
C      1  0.4187020000000  0.4564480000000  0.5392350000000 1.0
C      1  0.4179740000000  0.5598180000000  0.5143000000000 1.0
C      1  0.5509500000000  0.5177500000000  0.5291860000000 1.0
C      1  0.5563380000000  0.5172150000000  0.4614770000000 1.0
C      1  0.5497240000000  0.4635490000000  0.4979570000000 1.0
C      1  0.5117430000000  0.4984850000000  0.5245720000000 1.0
C      1  0.5113050000000  0.5290990000000  0.4904070000000 1.0
C      1  0.5116340000000  0.4822500000000  0.4852030000000 1.0
C      1  0.4503550000000  0.5765630000000  0.4489940000000 1.0
C      1  0.4525220000000  0.4206850000000  0.4624450000000 1.0
C      1  0.4483080000000  0.5106100000000  0.5887160000000 1.0
C      1  0.4966130000000  0.4158210000000  0.5530000000000 1.0
C      1  0.4973650000000  0.5912840000000  0.5482010000000 1.0
C      1  0.4964520000000  0.4943790000000  0.3974290000000 1.0
C      1  0.5968020000000  0.5598780000000  0.5036430000000 1.0
C      1  0.5923280000000  0.4714850000000  0.4551430000000 1.0
C      1  0.5942900000000  0.4802060000000  0.5502720000000 1.0
C      1  0.4874760000000  0.5522350000000  0.5258770000000 1.0
C      1  0.4862140000000  0.4884790000000  0.4459310000000 1.0
C      1  0.4888250000000  0.4542140000000  0.5276730000000 1.0
C      1  0.4845170000000  0.3994590000000  0.4867110000000 1.0
C      1  0.4827050000000  0.5412570000000  0.5944820000000 1.0
C      1  0.4821030000000  0.5567160000000  0.4222280000000 1.0
C      1  0.5364220000000  0.4069290000000  0.5113790000000 1.0
C      1  0.5351620000000  0.5548470000000  0.5763580000000 1.0
C      1  0.5322450000000  0.5358590000000  0.4133100000000 1.0
C      1  0.5080920000000  0.4152300000000  0.5027830000000 1.0
C      1  0.5058220000000  0.5476540000000  0.5749910000000 1.0
C      1  0.5030510000000  0.5358070000000  0.4197400000000 1.0
C      1  0.5757170000000  0.4309300000000  0.5052930000000 1.0
C      1  0.5771940000000  0.5365150000000  0.5596960000000 1.0
C      1  0.5710400000000  0.5276760000000  0.4348040000000 1.0
C      1  0.4650600000000  0.4811280000000  0.5073890000000 1.0
C      1  0.4725620000000  0.5081160000000  0.5013540000000 1.0
C      1  0.4568230000000  0.5095700000000  0.4784190000000 1.0
C      1  0.5125010000000  0.5345480000000  0.4635960000000 1.0
C      1  0.5119130000000  0.4408140000000  0.4885480000000 1.0
C      1  0.5049180000000  0.5210380000000  0.5571670000000 1.0
C      1  0.4191440000000  0.5416400000000  0.4611680000000 1.0
C      1  0.4294370000000  0.4433870000000  0.4975160000000 1.0
C      1  0.4275010000000  0.5323120000000  0.5502240000000 1.0
C      1  0.5187060000000  0.5026180000000  0.5945790000000 1.0
C      1  0.5187100000000  0.5788590000000  0.4438230000000 1.0
C      1  0.5194820000000  0.4169100000000  0.4563130000000 1.0
C      1  0.4706200000000  0.4453600000000  0.4681730000000 1.0
C      1  0.4697380000000  0.4916130000000  0.5493610000000 1.0
C      1  0.4696460000000  0.5561660000000  0.4675910000000 1.0
C      1  0.4217360000000  0.5616690000000  0.4855410000000 1.0
C      1  0.4209450000000  0.4622480000000  0.4487430000000 1.0
C      1  0.4251840000000  0.4827110000000  0.5508270000000 1.0
C      1  0.5296260000000  0.5956000000000  0.5121160000000 1.0
C      1  0.5291860000000  0.4612120000000  0.4103040000000 1.0
C      1  0.5293540000000  0.4422250000000  0.5765050000000 1.0
C      1  0.5433330000000  0.5093990000000  0.4074290000000 1.0
C      1  0.5451300000000  0.4180290000000  0.5363530000000 1.0
C      1  0.5438820000000  0.5713580000000  0.5544570000000 1.0
C      1  0.5697570000000  0.5172930000000  0.5071150000000 1.0
C      1  0.5700150000000  0.5020030000000  0.4830220000000 1.0
C      1  0.5696180000000  0.4722790000000  0.5119650000000 1.0
C      1  0.5025790000000  0.5039270000000  0.4990180000000 1.0
END
