TITL C-2441167-4473-300 0.175554671598795 125000 -20190.543082151 0 0 166 (C1) n - 1
REM
REM in /home/bkarasulu/work/CARBON/AIRSS/Generating-Clusters/ReaxFF-fromJPCA2015/Units_Real/with-SteepDescent/Higher-Symm
REM
REM
REM
REM
REM
REM ./C.cell (1df0a924f5614ab8850e4351716899ee)
REM
REM compiler GCC version 9.2.1 20190827 (Red Hat 9.2.1-1)
REM options -cpp -mtune=generic -march=x86-64 -g -O0 -fpre-include=/usr/include/finclude/math-vector-fortran.h
REM seed -186905109 980813755 -1733881628 15698688 2133640823 1619775049 1567120718 -1674647146 120395445 -208728627 909554796 1415997687 -1891428582 -2018304426 661846369 1539099498 -167596481 -1929033078 -577174089 -1249587464 67018513 1745607279 365565999 -20623392 1917055848 -1588170625 681398791 576331395 -1143023702 -2101114679 -301179160 -1124980722 1702318692
REM
CELL 1.54180   50.00000   50.00000   50.00000   90.00000   90.00000   90.00000
LATT -1
SFAC C  
C      1  0.5732540000000  0.5100860000000  0.5656580000000 1.0
C      1  0.5114090000000  0.4627510000000  0.4670560000000 1.0
C      1  0.5573020000000  0.5758720000000  0.5110990000000 1.0
C      1  0.4250520000000  0.5248830000000  0.4312810000000 1.0
C      1  0.6000110000000  0.5215050000000  0.4811700000000 1.0
C      1  0.4960000000000  0.5771140000000  0.5687400000000 1.0
C      1  0.5656450000000  0.4623570000000  0.4516690000000 1.0
C      1  0.5799590000000  0.4783290000000  0.5231010000000 1.0
C      1  0.4280170000000  0.4779350000000  0.4293650000000 1.0
C      1  0.5291900000000  0.5497100000000  0.5966520000000 1.0
C      1  0.4362540000000  0.4590130000000  0.4530950000000 1.0
C      1  0.4521740000000  0.5518340000000  0.5748940000000 1.0
C      1  0.4055770000000  0.5465620000000  0.4986070000000 1.0
C      1  0.5258010000000  0.5861600000000  0.5296960000000 1.0
C      1  0.4205240000000  0.4695360000000  0.5589570000000 1.0
C      1  0.4414560000000  0.5843080000000  0.5064690000000 1.0
C      1  0.4326380000000  0.4271470000000  0.4916490000000 1.0
C      1  0.5639060000000  0.5710820000000  0.5389410000000 1.0
C      1  0.4668320000000  0.4900120000000  0.5278930000000 1.0
C      1  0.5511350000000  0.4971260000000  0.4301190000000 1.0
C      1  0.4793540000000  0.5431780000000  0.4928980000000 1.0
C      1  0.5224280000000  0.5618890000000  0.4767580000000 1.0
C      1  0.5600660000000  0.5142210000000  0.4985170000000 1.0
C      1  0.4303320000000  0.4594840000000  0.5147900000000 1.0
C      1  0.5924940000000  0.5025420000000  0.4605810000000 1.0
C      1  0.5364090000000  0.4144180000000  0.4986640000000 1.0
C      1  0.5347130000000  0.5403920000000  0.5127900000000 1.0
C      1  0.4919400000000  0.3906960000000  0.5103040000000 1.0
C      1  0.5375630000000  0.5421940000000  0.4231020000000 1.0
C      1  0.5436870000000  0.4173540000000  0.4715250000000 1.0
C      1  0.5418770000000  0.4513820000000  0.4112840000000 1.0
C      1  0.5368920000000  0.4189170000000  0.5482110000000 1.0
C      1  0.5234220000000  0.5766560000000  0.5574390000000 1.0
C      1  0.4272500000000  0.5642240000000  0.4873860000000 1.0
C      1  0.4701470000000  0.4227080000000  0.5620940000000 1.0
C      1  0.5011930000000  0.5380720000000  0.5389020000000 1.0
C      1  0.4499340000000  0.4207180000000  0.5396450000000 1.0
C      1  0.5133710000000  0.5591960000000  0.5224960000000 1.0
C      1  0.5446330000000  0.5908370000000  0.4523970000000 1.0
C      1  0.4493590000000  0.4310780000000  0.4354830000000 1.0
C      1  0.5296780000000  0.4856970000000  0.4700820000000 1.0
C      1  0.5032410000000  0.5550500000000  0.5867110000000 1.0
C      1  0.4798000000000  0.5120600000000  0.5987320000000 1.0
C      1  0.4603680000000  0.5250270000000  0.4619810000000 1.0
C      1  0.4992670000000  0.5637140000000  0.4984450000000 1.0
C      1  0.4841140000000  0.4629290000000  0.4606780000000 1.0
C      1  0.4802350000000  0.5078490000000  0.4694370000000 1.0
C      1  0.5336570000000  0.5892950000000  0.4798720000000 1.0
C      1  0.4639520000000  0.4078760000000  0.4443620000000 1.0
C      1  0.5514660000000  0.4854650000000  0.4556400000000 1.0
C      1  0.4990040000000  0.4243450000000  0.5625560000000 1.0
C      1  0.5277930000000  0.4764700000000  0.5969550000000 1.0
C      1  0.4126070000000  0.4715600000000  0.5306250000000 1.0
C      1  0.4860390000000  0.4949480000000  0.5031650000000 1.0
C      1  0.5185570000000  0.3926950000000  0.4981780000000 1.0
C      1  0.5060200000000  0.4354920000000  0.4377220000000 1.0
C      1  0.4452190000000  0.4629190000000  0.5725600000000 1.0
C      1  0.5465930000000  0.5585350000000  0.5601680000000 1.0
C      1  0.4614850000000  0.4240680000000  0.4833760000000 1.0
C      1  0.5509000000000  0.5397160000000  0.4839680000000 1.0
C      1  0.5426030000000  0.4387960000000  0.5685530000000 1.0
C      1  0.4298190000000  0.5529690000000  0.5367540000000 1.0
C      1  0.5447180000000  0.5708180000000  0.4314420000000 1.0
C      1  0.5847560000000  0.5264110000000  0.4434220000000 1.0
C      1  0.4840160000000  0.5009790000000  0.4423030000000 1.0
C      1  0.5098590000000  0.4120690000000  0.5398550000000 1.0
C      1  0.6067010000000  0.4842790000000  0.5120870000000 1.0
C      1  0.5216100000000  0.5155600000000  0.4640210000000 1.0
C      1  0.5133380000000  0.5324800000000  0.4005930000000 1.0
C      1  0.4153860000000  0.4528690000000  0.4942020000000 1.0
C      1  0.4411230000000  0.5499700000000  0.4339020000000 1.0
C      1  0.4710700000000  0.3991910000000  0.4708200000000 1.0
C      1  0.4260590000000  0.5555850000000  0.4592760000000 1.0
C      1  0.4917520000000  0.4186050000000  0.5173830000000 1.0
C      1  0.3998650000000  0.5041180000000  0.4783440000000 1.0
C      1  0.5148510000000  0.4982430000000  0.5151390000000 1.0
C      1  0.4402280000000  0.5023890000000  0.4214970000000 1.0
C      1  0.5585710000000  0.5343390000000  0.5736260000000 1.0
C      1  0.4378740000000  0.5055310000000  0.5918550000000 1.0
C      1  0.4952040000000  0.3863390000000  0.4815010000000 1.0
C      1  0.4689320000000  0.4490630000000  0.5735350000000 1.0
C      1  0.5837350000000  0.4409680000000  0.5010950000000 1.0
C      1  0.5627910000000  0.4552950000000  0.5565650000000 1.0
C      1  0.4698910000000  0.5510250000000  0.4235170000000 1.0
C      1  0.4920190000000  0.4581850000000  0.5906990000000 1.0
C      1  0.4515050000000  0.5233310000000  0.5004230000000 1.0
C      1  0.4755810000000  0.4624960000000  0.5294540000000 1.0
C      1  0.5709950000000  0.5602130000000  0.4773380000000 1.0
C      1  0.4900490000000  0.5956880000000  0.4989570000000 1.0
C      1  0.4804100000000  0.4829030000000  0.6013270000000 1.0
C      1  0.4282990000000  0.5422020000000  0.5607370000000 1.0
C      1  0.5036750000000  0.5334970000000  0.5660670000000 1.0
C      1  0.5614370000000  0.4346710000000  0.4561850000000 1.0
C      1  0.4519380000000  0.4475510000000  0.5280900000000 1.0
C      1  0.4539230000000  0.4821230000000  0.5904830000000 1.0
C      1  0.4202020000000  0.4958290000000  0.5713420000000 1.0
C      1  0.4896220000000  0.4339280000000  0.4929430000000 1.0
C      1  0.4595100000000  0.5954130000000  0.4881010000000 1.0
C      1  0.5181360000000  0.5212370000000  0.5019070000000 1.0
C      1  0.5002790000000  0.5244080000000  0.4821040000000 1.0
C      1  0.4437080000000  0.4997730000000  0.5139620000000 1.0
C      1  0.5218580000000  0.4508730000000  0.5895080000000 1.0
C      1  0.6048960000000  0.4611810000000  0.4925180000000 1.0
C      1  0.5074380000000  0.6022170000000  0.4758370000000 1.0
C      1  0.5247510000000  0.4524540000000  0.5276700000000 1.0
C      1  0.5116940000000  0.5029920000000  0.3995390000000 1.0
C      1  0.4141610000000  0.5242060000000  0.4596150000000 1.0
C      1  0.6002610000000  0.4787390000000  0.4718130000000 1.0
C      1  0.5594820000000  0.5245520000000  0.4303490000000 1.0
C      1  0.4093290000000  0.5492930000000  0.5257520000000 1.0
C      1  0.5160170000000  0.5292050000000  0.4407760000000 1.0
C      1  0.4651550000000  0.5521420000000  0.4704690000000 1.0
C      1  0.4675470000000  0.5734140000000  0.5605680000000 1.0
C      1  0.4396320000000  0.4115000000000  0.5146290000000 1.0
C      1  0.4620520000000  0.4428010000000  0.4123730000000 1.0
C      1  0.5720400000000  0.4255130000000  0.4800850000000 1.0
C      1  0.5660610000000  0.4862510000000  0.4986620000000 1.0
C      1  0.4562610000000  0.5542600000000  0.5274270000000 1.0
C      1  0.5778010000000  0.5117850000000  0.5385260000000 1.0
C      1  0.4298830000000  0.5138950000000  0.5518090000000 1.0
C      1  0.4937050000000  0.5474190000000  0.4408320000000 1.0
C      1  0.4681530000000  0.4663360000000  0.4808700000000 1.0
C      1  0.4737960000000  0.5326280000000  0.5327150000000 1.0
C      1  0.4166450000000  0.5012400000000  0.5255840000000 1.0
C      1  0.4875220000000  0.5109840000000  0.5713300000000 1.0
C      1  0.5443110000000  0.5265990000000  0.5965990000000 1.0
C      1  0.5525000000000  0.5203770000000  0.5254120000000 1.0
C      1  0.5059840000000  0.6071710000000  0.5230500000000 1.0
C      1  0.5430620000000  0.4720260000000  0.4912670000000 1.0
C      1  0.4561740000000  0.5288710000000  0.5933270000000 1.0
C      1  0.5664940000000  0.4532450000000  0.4081600000000 1.0
C      1  0.4787480000000  0.4283590000000  0.4311700000000 1.0
C      1  0.4852380000000  0.4636680000000  0.5025910000000 1.0
C      1  0.5923000000000  0.5442290000000  0.4654080000000 1.0
C      1  0.5742750000000  0.4728560000000  0.4259010000000 1.0
C      1  0.4027120000000  0.4743380000000  0.4770650000000 1.0
C      1  0.5075130000000  0.4525890000000  0.5505070000000 1.0
C      1  0.4843290000000  0.4914590000000  0.3962310000000 1.0
C      1  0.4845980000000  0.5361860000000  0.4027910000000 1.0
C      1  0.5295520000000  0.5027720000000  0.5891990000000 1.0
C      1  0.5228910000000  0.4873550000000  0.4216370000000 1.0
C      1  0.5353570000000  0.4964800000000  0.5609500000000 1.0
C      1  0.4711140000000  0.5095130000000  0.4157730000000 1.0
C      1  0.4631920000000  0.5810340000000  0.4630170000000 1.0
C      1  0.4901020000000  0.5914390000000  0.4552430000000 1.0
C      1  0.6062620000000  0.5137740000000  0.5081790000000 1.0
C      1  0.4774040000000  0.4753390000000  0.4377850000000 1.0
C      1  0.3995470000000  0.5172680000000  0.5034660000000 1.0
C      1  0.5744710000000  0.4468500000000  0.5286100000000 1.0
C      1  0.5664440000000  0.5724970000000  0.4504210000000 1.0
C      1  0.4586720000000  0.5820780000000  0.5326910000000 1.0
C      1  0.5932190000000  0.5326390000000  0.5250730000000 1.0
C      1  0.4741660000000  0.4682420000000  0.4101980000000 1.0
C      1  0.5135100000000  0.4336210000000  0.4664380000000 1.0
C      1  0.4634570000000  0.5111460000000  0.5503030000000 1.0
C      1  0.5168680000000  0.4586210000000  0.4220170000000 1.0
C      1  0.5069380000000  0.5680890000000  0.4521840000000 1.0
C      1  0.4401120000000  0.5093080000000  0.4751480000000 1.0
C      1  0.5262800000000  0.4727620000000  0.5111440000000 1.0
C      1  0.5138420000000  0.5009820000000  0.5429410000000 1.0
C      1  0.4078990000000  0.4691810000000  0.4491560000000 1.0
C      1  0.5808350000000  0.5585090000000  0.5184210000000 1.0
C      1  0.4976260000000  0.4793480000000  0.5535890000000 1.0
C      1  0.4447070000000  0.4788580000000  0.4731340000000 1.0
C      1  0.5449490000000  0.4304310000000  0.5220770000000 1.0
C      1  0.5609640000000  0.4834910000000  0.5644790000000 1.0
END
