TITL C-2441163-1170-206 0.110203394726836 125000 -24513.6682261324 0 0 183 (C1) n - 1
REM
REM in /home/bkarasulu/work/CARBON/AIRSS/Generating-Clusters/ReaxFF-fromJPCA2015/Units_Real/with-SteepDescent/Higher-Symm
REM
REM
REM
REM
REM
REM ./C.cell (1df0a924f5614ab8850e4351716899ee)
REM
REM compiler GCC version 9.2.1 20190827 (Red Hat 9.2.1-1)
REM options -cpp -mtune=generic -march=x86-64 -g -O0 -fpre-include=/usr/include/finclude/math-vector-fortran.h
REM seed -2054847236 -194815555 -772519518 336001886 1744353782 268347142 -253253736 -1092428712 2011741637 736438758 -1090511411 -892633600 200796300 -1017394951 -887981758 -784508576 -978048142 -2107619609 -1031155281 -1081791450 943790828 -1687307376 -2040712184 -1775694913 1690081784 -1565062292 1904214870 1112742949 -80916198 133639744 654468597 2128350649 727969975
REM
CELL 1.54180   50.00000   50.00000   50.00000   90.00000   90.00000   90.00000
LATT -1
SFAC C  
C      1  0.5472760000000  0.4713780000000  0.3970620000000 1.0
C      1  0.5017080000000  0.5444550000000  0.4092670000000 1.0
C      1  0.4518670000000  0.4719720000000  0.3970540000000 1.0
C      1  0.5469280000000  0.4714020000000  0.6022920000000 1.0
C      1  0.5001210000000  0.5557390000000  0.6032330000000 1.0
C      1  0.4520130000000  0.4737600000000  0.6031730000000 1.0
C      1  0.5455990000000  0.5278020000000  0.3962700000000 1.0
C      1  0.5005370000000  0.4553760000000  0.4092910000000 1.0
C      1  0.4518430000000  0.5288880000000  0.3964050000000 1.0
C      1  0.5474420000000  0.5279800000000  0.6016880000000 1.0
C      1  0.5006350000000  0.4543830000000  0.5906150000000 1.0
C      1  0.4528650000000  0.5264870000000  0.6037660000000 1.0
C      1  0.5675060000000  0.4868040000000  0.5896360000000 1.0
C      1  0.4771870000000  0.5653720000000  0.5884850000000 1.0
C      1  0.4544970000000  0.4486320000000  0.5894580000000 1.0
C      1  0.5671430000000  0.4872910000000  0.4107060000000 1.0
C      1  0.4810580000000  0.5648080000000  0.4098370000000 1.0
C      1  0.4553600000000  0.4490810000000  0.4105640000000 1.0
C      1  0.5661660000000  0.5137510000000  0.5883870000000 1.0
C      1  0.4798850000000  0.4350610000000  0.5888870000000 1.0
C      1  0.4528270000000  0.5499340000000  0.5881700000000 1.0
C      1  0.5666140000000  0.5162750000000  0.4115070000000 1.0
C      1  0.4795130000000  0.4352650000000  0.4102400000000 1.0
C      1  0.4566630000000  0.5514820000000  0.4105910000000 1.0
C      1  0.5224590000000  0.5679610000000  0.5894700000000 1.0
C      1  0.4301140000000  0.4873490000000  0.5906820000000 1.0
C      1  0.5460950000000  0.4449130000000  0.5898780000000 1.0
C      1  0.5214390000000  0.5663250000000  0.4117410000000 1.0
C      1  0.4304070000000  0.4865170000000  0.4102520000000 1.0
C      1  0.5455520000000  0.4454150000000  0.4097410000000 1.0
C      1  0.5200540000000  0.4334270000000  0.5871020000000 1.0
C      1  0.4298200000000  0.5161440000000  0.5900790000000 1.0
C      1  0.5473040000000  0.5543200000000  0.5896860000000 1.0
C      1  0.5198050000000  0.4328630000000  0.4125930000000 1.0
C      1  0.4296770000000  0.5151890000000  0.4088700000000 1.0
C      1  0.5470040000000  0.5523430000000  0.4108920000000 1.0
C      1  0.4331840000000  0.4228120000000  0.4724870000000 1.0
C      1  0.5986990000000  0.4796680000000  0.4736940000000 1.0
C      1  0.4680530000000  0.5982540000000  0.4750510000000 1.0
C      1  0.4316790000000  0.4215920000000  0.5267620000000 1.0
C      1  0.5996510000000  0.4793490000000  0.5252710000000 1.0
C      1  0.4680700000000  0.5984950000000  0.5264920000000 1.0
C      1  0.4327390000000  0.5766870000000  0.4735360000000 1.0
C      1  0.5993360000000  0.5209680000000  0.4745180000000 1.0
C      1  0.4681500000000  0.4006640000000  0.4746640000000 1.0
C      1  0.4324890000000  0.5767210000000  0.5264770000000 1.0
C      1  0.5990080000000  0.5203320000000  0.5257490000000 1.0
C      1  0.4675720000000  0.4011940000000  0.5258510000000 1.0
C      1  0.4791210000000  0.5695580000000  0.4386380000000 1.0
C      1  0.4542560000000  0.4518710000000  0.4389630000000 1.0
C      1  0.5650660000000  0.4858180000000  0.4398910000000 1.0
C      1  0.4815340000000  0.5621090000000  0.5592320000000 1.0
C      1  0.4550600000000  0.4494560000000  0.5599760000000 1.0
C      1  0.5701120000000  0.4849080000000  0.5609110000000 1.0
C      1  0.4773760000000  0.4310930000000  0.4388880000000 1.0
C      1  0.4565220000000  0.5476760000000  0.4389350000000 1.0
C      1  0.5651250000000  0.5157440000000  0.4413140000000 1.0
C      1  0.4779090000000  0.4311860000000  0.5606430000000 1.0
C      1  0.4550770000000  0.5471020000000  0.5587930000000 1.0
C      1  0.5650950000000  0.5146250000000  0.5599850000000 1.0
C      1  0.4515540000000  0.4414470000000  0.5127230000000 1.0
C      1  0.5704160000000  0.4844000000000  0.5144450000000 1.0
C      1  0.4762360000000  0.5732230000000  0.5124730000000 1.0
C      1  0.4520720000000  0.4417640000000  0.4845590000000 1.0
C      1  0.5710210000000  0.4856990000000  0.4854780000000 1.0
C      1  0.4758710000000  0.5708760000000  0.4834650000000 1.0
C      1  0.4528990000000  0.5583940000000  0.5147580000000 1.0
C      1  0.5713890000000  0.5147810000000  0.5138230000000 1.0
C      1  0.4757980000000  0.4272550000000  0.5154120000000 1.0
C      1  0.4511500000000  0.5559310000000  0.4864080000000 1.0
C      1  0.5720230000000  0.5142260000000  0.4861440000000 1.0
C      1  0.4758580000000  0.4274910000000  0.4858150000000 1.0
C      1  0.5622480000000  0.5806030000000  0.5436040000000 1.0
C      1  0.4006160000000  0.5145870000000  0.5423270000000 1.0
C      1  0.5352610000000  0.4058440000000  0.5421920000000 1.0
C      1  0.5616770000000  0.5802860000000  0.4565640000000 1.0
C      1  0.4013800000000  0.5156430000000  0.4571340000000 1.0
C      1  0.5364910000000  0.4070430000000  0.4586650000000 1.0
C      1  0.5616710000000  0.4188050000000  0.5433640000000 1.0
C      1  0.4023580000000  0.4851960000000  0.5421460000000 1.0
C      1  0.5364510000000  0.5943810000000  0.5427790000000 1.0
C      1  0.5624200000000  0.4210880000000  0.4575560000000 1.0
C      1  0.4020770000000  0.4862940000000  0.4561430000000 1.0
C      1  0.5353970000000  0.5941170000000  0.4577130000000 1.0
C      1  0.5089430000000  0.4007020000000  0.4672020000000 1.0
C      1  0.5770600000000  0.5574140000000  0.4702670000000 1.0
C      1  0.4107240000000  0.5421400000000  0.4662630000000 1.0
C      1  0.5082100000000  0.3976910000000  0.5348170000000 1.0
C      1  0.5785900000000  0.5566670000000  0.5312630000000 1.0
C      1  0.4112550000000  0.5411870000000  0.5318080000000 1.0
C      1  0.5085980000000  0.6026960000000  0.4664240000000 1.0
C      1  0.5769110000000  0.4446760000000  0.4685290000000 1.0
C      1  0.4135430000000  0.4611530000000  0.4713970000000 1.0
C      1  0.5088440000000  0.6010300000000  0.5351970000000 1.0
C      1  0.5783190000000  0.4423570000000  0.5313370000000 1.0
C      1  0.4163610000000  0.4615450000000  0.5298360000000 1.0
C      1  0.5253020000000  0.5143680000000  0.4495170000000 1.0
C      1  0.4744550000000  0.5203640000000  0.4451120000000 1.0
C      1  0.4994020000000  0.4754150000000  0.4356170000000 1.0
C      1  0.5283480000000  0.5163180000000  0.5497590000000 1.0
C      1  0.4750010000000  0.5147090000000  0.5525690000000 1.0
C      1  0.5005730000000  0.4751370000000  0.5646600000000 1.0
C      1  0.5247790000000  0.4852560000000  0.4448290000000 1.0
C      1  0.4732630000000  0.4796010000000  0.4458320000000 1.0
C      1  0.5006870000000  0.5251160000000  0.4367460000000 1.0
C      1  0.5240550000000  0.4868230000000  0.5534350000000 1.0
C      1  0.4753200000000  0.4843260000000  0.5549070000000 1.0
C      1  0.4999250000000  0.5311090000000  0.5526360000000 1.0
C      1  0.5555970000000  0.4586800000000  0.5216610000000 1.0
C      1  0.5085600000000  0.5579310000000  0.5111880000000 1.0
C      1  0.4426960000000  0.4685330000000  0.5157020000000 1.0
C      1  0.5493420000000  0.4609410000000  0.4807240000000 1.0
C      1  0.5017320000000  0.5554660000000  0.4827730000000 1.0
C      1  0.4334000000000  0.4759750000000  0.4895860000000 1.0
C      1  0.5558480000000  0.5416780000000  0.5173500000000 1.0
C      1  0.5085840000000  0.4434480000000  0.5118200000000 1.0
C      1  0.4437660000000  0.5209180000000  0.5129200000000 1.0
C      1  0.5534640000000  0.5436700000000  0.4846570000000 1.0
C      1  0.5024960000000  0.4413730000000  0.4831090000000 1.0
C      1  0.4471220000000  0.5246790000000  0.4843970000000 1.0
C      1  0.5250280000000  0.4262930000000  0.4405230000000 1.0
C      1  0.5501360000000  0.5597050000000  0.4395260000000 1.0
C      1  0.4245280000000  0.5152250000000  0.4384930000000 1.0
C      1  0.5255610000000  0.4279990000000  0.5592650000000 1.0
C      1  0.5516430000000  0.5603670000000  0.5612610000000 1.0
C      1  0.4228430000000  0.5160010000000  0.5612750000000 1.0
C      1  0.5251510000000  0.5732640000000  0.4399710000000 1.0
C      1  0.5501140000000  0.4391430000000  0.4384000000000 1.0
C      1  0.4252720000000  0.4867360000000  0.4391430000000 1.0
C      1  0.5260790000000  0.5728640000000  0.5603940000000 1.0
C      1  0.5516380000000  0.4389740000000  0.5615920000000 1.0
C      1  0.4239880000000  0.4875630000000  0.5617140000000 1.0
C      1  0.4907250000000  0.3848140000000  0.5150200000000 1.0
C      1  0.6051760000000  0.5468740000000  0.5144030000000 1.0
C      1  0.4073470000000  0.5649730000000  0.5145330000000 1.0
C      1  0.4914300000000  0.3857340000000  0.4859790000000 1.0
C      1  0.6047750000000  0.5476640000000  0.4859520000000 1.0
C      1  0.4074790000000  0.5653790000000  0.4852140000000 1.0
C      1  0.4909000000000  0.6151240000000  0.5161240000000 1.0
C      1  0.6050570000000  0.4532090000000  0.5134430000000 1.0
C      1  0.4077250000000  0.4321290000000  0.5140540000000 1.0
C      1  0.4905480000000  0.6142430000000  0.4869340000000 1.0
C      1  0.6040380000000  0.4529930000000  0.4849590000000 1.0
C      1  0.4075370000000  0.4320100000000  0.4855830000000 1.0
C      1  0.5002860000000  0.5284980000000  0.6137860000000 1.0
C      1  0.4751550000000  0.4860290000000  0.6147540000000 1.0
C      1  0.5251670000000  0.4854880000000  0.6140400000000 1.0
C      1  0.4998870000000  0.5266430000000  0.3862790000000 1.0
C      1  0.4743540000000  0.4856050000000  0.3849950000000 1.0
C      1  0.5245880000000  0.4854930000000  0.3850120000000 1.0
C      1  0.5000500000000  0.4727900000000  0.6140580000000 1.0
C      1  0.4756960000000  0.5140130000000  0.6145090000000 1.0
C      1  0.5251360000000  0.5142770000000  0.6132590000000 1.0
C      1  0.4998230000000  0.4729240000000  0.3862810000000 1.0
C      1  0.4743150000000  0.5144880000000  0.3849130000000 1.0
C      1  0.5240410000000  0.5135480000000  0.3846710000000 1.0
C      1  0.5004660000000  0.4688080000000  0.4773200000000 1.0
C      1  0.5242510000000  0.5120890000000  0.4792340000000 1.0
C      1  0.4748040000000  0.5130660000000  0.4754310000000 1.0
C      1  0.4991630000000  0.4703450000000  0.5176200000000 1.0
C      1  0.5245120000000  0.5136090000000  0.5199460000000 1.0
C      1  0.4704390000000  0.5127450000000  0.5228760000000 1.0
C      1  0.5002000000000  0.5274250000000  0.4814650000000 1.0
C      1  0.5253920000000  0.4815380000000  0.4745500000000 1.0
C      1  0.4768350000000  0.4839800000000  0.4739090000000 1.0
C      1  0.5006090000000  0.5307050000000  0.5224560000000 1.0
C      1  0.5228480000000  0.4849670000000  0.5235810000000 1.0
C      1  0.4723060000000  0.4814370000000  0.5238890000000 1.0
C      1  0.5890380000000  0.4667840000000  0.5490990000000 1.0
C      1  0.4852610000000  0.5899760000000  0.5486000000000 1.0
C      1  0.4294710000000  0.4410810000000  0.5481180000000 1.0
C      1  0.5854330000000  0.4676570000000  0.4508620000000 1.0
C      1  0.4838460000000  0.5949930000000  0.4509270000000 1.0
C      1  0.4281660000000  0.4428920000000  0.4518470000000 1.0
C      1  0.5862960000000  0.5326850000000  0.5485690000000 1.0
C      1  0.4838830000000  0.4057650000000  0.5496540000000 1.0
C      1  0.4296060000000  0.5572350000000  0.5481970000000 1.0
C      1  0.5857730000000  0.5334310000000  0.4520470000000 1.0
C      1  0.4843980000000  0.4066570000000  0.4514060000000 1.0
C      1  0.4304080000000  0.5576980000000  0.4516500000000 1.0
C      1  0.5383120000000  0.4449680000000  0.5030510000000 1.0
C      1  0.5372100000000  0.5600880000000  0.5028140000000 1.0
C      1  0.4285860000000  0.5038110000000  0.4948710000000 1.0
END
