TITL C-2441156-4686-1057 9.06765771015758e-13 125000 -1169.26879890675 0 0 9 (D3h) n - 1
REM
REM in /home/bkarasulu/work/CARBON/AIRSS/Generating-Clusters/ReaxFF-fromJPCA2015/Units_Real/with-SteepDescent/Higher-Symm
REM
REM
REM
REM
REM
REM ./C.cell (1df0a924f5614ab8850e4351716899ee)
REM
REM compiler GCC version 9.2.1 20190827 (Red Hat 9.2.1-1)
REM options -cpp -mtune=generic -march=x86-64 -g -O0 -fpre-include=/usr/include/finclude/math-vector-fortran.h
REM seed -631856751 -914362676 2134725510 -1344095945 -1788906401 -1384971268 828463230 -226857317 616716147 121503716 856451718 -1537768568 523072804 -815337232 1630070504 -602678000 -620933460 -1425924339 -779435877 -1610350812 -1064715488 -1510134159 1299585409 397196182 628089272 -1339714376 -1834387804 -1444351570 -1669179479 666745846 529544053 145415445 -386435093
REM
CELL 1.54180   50.00000   50.00000   50.00000   90.00000   90.00000   90.00000
LATT -1
SFAC C  
C      1  0.4764450000000  0.5000000000000  0.4637750000000 1.0
C      1  0.4586700000000  0.5000000000000  0.4873910000000 1.0
C      1  0.4602350000000  0.5000000000000  0.5169070000000 1.0
C      1  0.4804060000000  0.5000000000000  0.5385120000000 1.0
C      1  0.5097450000000  0.5000000000000  0.5420970000000 1.0
C      1  0.5345250000000  0.5000000000000  0.5259840000000 1.0
C      1  0.5431500000000  0.5000000000000  0.4977130000000 1.0
C      1  0.5315840000000  0.5000000000000  0.4705120000000 1.0
C      1  0.5052410000000  0.5000000000000  0.4571090000000 1.0
END
