TITL C-2441169-1362-37 -1.50287918654749e-09 125000 -2795.7209832683 0 0 24 (D2d) n - 1
REM
REM in /home/bkarasulu/work/CARBON/AIRSS/Generating-Clusters/ReaxFF-fromJPCA2015/Units_Real/with-SteepDescent/Higher-Symm
REM
REM
REM
REM
REM
REM ./C.cell (1df0a924f5614ab8850e4351716899ee)
REM
REM compiler GCC version 9.2.1 20190827 (Red Hat 9.2.1-1)
REM options -cpp -mtune=generic -march=x86-64 -g -O0 -fpre-include=/usr/include/finclude/math-vector-fortran.h
REM seed -2097565134 1395918726 -1180180769 -1341600457 -1141442641 604320302 -410214568 -1856867226 1636102048 -15430937 1217421807 -1145383591 2106817723 2124901486 -2116283377 -247281452 250988447 370944101 1638860926 -1609459260 -645188519 1309975053 848940426 -1923200217 -667923 -1096759490 1838783062 1857570869 1594658800 -1674349785 -2059256325 1393219649 596517614
REM
CELL 1.54180   50.00000   50.00000   50.00000   90.00000   90.00000   90.00000
LATT -1
SFAC C  
C      1  0.4875130000000  0.5711850000000  0.5074940000000 1.0
C      1  0.5124870000000  0.4288150000000  0.5074940000000 1.0
C      1  0.5124870000000  0.5711850000000  0.4925070000000 1.0
C      1  0.4875130000000  0.4288150000000  0.4925050000000 1.0
C      1  0.5711850000000  0.4875130000000  0.5074960000000 1.0
C      1  0.4288150000000  0.5124870000000  0.5074930000000 1.0
C      1  0.5711850000000  0.5124870000000  0.4925080000000 1.0
C      1  0.4288150000000  0.4875130000000  0.4925040000000 1.0
C      1  0.5047080000000  0.5456810000000  0.4797830000000 1.0
C      1  0.4952930000000  0.4543190000000  0.4797820000000 1.0
C      1  0.4952910000000  0.5456810000000  0.5202170000000 1.0
C      1  0.5047080000000  0.4543190000000  0.5202170000000 1.0
C      1  0.5456820000000  0.5047080000000  0.4797840000000 1.0
C      1  0.4543190000000  0.4952920000000  0.4797820000000 1.0
C      1  0.5456810000000  0.4952920000000  0.5202180000000 1.0
C      1  0.4543180000000  0.5047080000000  0.5202160000000 1.0
C      1  0.4547340000000  0.4793780000000  0.5050190000000 1.0
C      1  0.5452650000000  0.5206220000000  0.5050220000000 1.0
C      1  0.5452660000000  0.4793780000000  0.4949810000000 1.0
C      1  0.4547350000000  0.5206220000000  0.4949790000000 1.0
C      1  0.4793780000000  0.4547340000000  0.5050190000000 1.0
C      1  0.5206220000000  0.5452650000000  0.5050210000000 1.0
C      1  0.4793780000000  0.5452650000000  0.4949790000000 1.0
C      1  0.5206220000000  0.4547350000000  0.4949800000000 1.0
END
