TITL C-2441154-10-1394 0.0967537146617678 125000 -21460.9504395513 0 0 156 (C1) n - 1
REM
REM in /home/bkarasulu/work/CARBON/AIRSS/Generating-Clusters/ReaxFF-fromJPCA2015/Units_Real/with-SteepDescent/Higher-Symm
REM
REM
REM
REM
REM
REM ./C.cell (1df0a924f5614ab8850e4351716899ee)
REM
REM compiler GCC version 9.2.1 20190827 (Red Hat 9.2.1-1)
REM options -cpp -mtune=generic -march=x86-64 -g -O0 -fpre-include=/usr/include/finclude/math-vector-fortran.h
REM seed -475543153 -959210179 -1401931565 -737684880 23700959 1363197540 1087624617 -1647822637 475457486 -1768605910 1709900473 -800362688 503480710 997791830 -665057335 1817782434 1298239789 -2082741045 584947508 -490150571 583970382 -563371467 -915273511 -1879838460 -969614056 -1707854729 924757891 190638475 63855864 -2114295043 -1597779458 -1210249729 -409994833
REM
CELL 1.54180   50.00000   50.00000   50.00000   90.00000   90.00000   90.00000
LATT -1
SFAC C  
C      1  0.4979850000000  0.4373570000000  0.5188290000000 1.0
C      1  0.4945300000000  0.5566320000000  0.5432710000000 1.0
C      1  0.4999880000000  0.5191170000000  0.4385630000000 1.0
C      1  0.4981770000000  0.5650810000000  0.5145190000000 1.0
C      1  0.4973630000000  0.4537740000000  0.5448280000000 1.0
C      1  0.5017620000000  0.4867240000000  0.4345260000000 1.0
C      1  0.5142440000000  0.5599540000000  0.5894180000000 1.0
C      1  0.5134570000000  0.5491980000000  0.4032760000000 1.0
C      1  0.5158520000000  0.3926090000000  0.5063990000000 1.0
C      1  0.5155630000000  0.4401900000000  0.5910700000000 1.0
C      1  0.5159570000000  0.4507090000000  0.4038930000000 1.0
C      1  0.5159590000000  0.6090840000000  0.5059370000000 1.0
C      1  0.5679600000000  0.5525760000000  0.5545990000000 1.0
C      1  0.5698300000000  0.5270540000000  0.4245060000000 1.0
C      1  0.5700240000000  0.4260550000000  0.5191010000000 1.0
C      1  0.5694520000000  0.4465740000000  0.5554030000000 1.0
C      1  0.5696020000000  0.4730120000000  0.4246260000000 1.0
C      1  0.5692440000000  0.5741520000000  0.5188250000000 1.0
C      1  0.4295180000000  0.5391180000000  0.4377370000000 1.0
C      1  0.4408780000000  0.4439990000000  0.4947780000000 1.0
C      1  0.4383080000000  0.5307440000000  0.5527170000000 1.0
C      1  0.4314990000000  0.4616680000000  0.4369060000000 1.0
C      1  0.4391360000000  0.5583070000000  0.4950690000000 1.0
C      1  0.4322110000000  0.4689720000000  0.5626700000000 1.0
C      1  0.5616500000000  0.4447010000000  0.4260450000000 1.0
C      1  0.5615700000000  0.4605060000000  0.5809300000000 1.0
C      1  0.5619440000000  0.5906580000000  0.4945040000000 1.0
C      1  0.5606180000000  0.5548600000000  0.4259380000000 1.0
C      1  0.5609480000000  0.5397480000000  0.5804890000000 1.0
C      1  0.5626230000000  0.4093360000000  0.4950220000000 1.0
C      1  0.4545680000000  0.4807280000000  0.5771570000000 1.0
C      1  0.4563290000000  0.5729920000000  0.4765520000000 1.0
C      1  0.4547260000000  0.4454570000000  0.4435610000000 1.0
C      1  0.4553730000000  0.5144970000000  0.5776370000000 1.0
C      1  0.4558210000000  0.4233170000000  0.4787660000000 1.0
C      1  0.4541230000000  0.5569450000000  0.4456520000000 1.0
C      1  0.5798130000000  0.4708570000000  0.4518290000000 1.0
C      1  0.5821030000000  0.4721890000000  0.5471310000000 1.0
C      1  0.5838940000000  0.5561290000000  0.5003510000000 1.0
C      1  0.5799570000000  0.5295900000000  0.4519200000000 1.0
C      1  0.5812770000000  0.5274700000000  0.5470580000000 1.0
C      1  0.5843710000000  0.4440100000000  0.5004220000000 1.0
C      1  0.4692560000000  0.4650550000000  0.4027440000000 1.0
C      1  0.4701660000000  0.4329700000000  0.5767670000000 1.0
C      1  0.4661090000000  0.5983940000000  0.5186400000000 1.0
C      1  0.4666640000000  0.5328780000000  0.4054050000000 1.0
C      1  0.4667480000000  0.5636030000000  0.5795360000000 1.0
C      1  0.4677240000000  0.4011430000000  0.5180940000000 1.0
C      1  0.5398620000000  0.4681630000000  0.5001030000000 1.0
C      1  0.5418370000000  0.5134920000000  0.5242650000000 1.0
C      1  0.5387490000000  0.5139240000000  0.4764220000000 1.0
C      1  0.5399780000000  0.5314240000000  0.5003800000000 1.0
C      1  0.5393070000000  0.4839740000000  0.5250100000000 1.0
C      1  0.5361380000000  0.4846120000000  0.4755810000000 1.0
C      1  0.4019740000000  0.5142430000000  0.5257270000000 1.0
C      1  0.4034790000000  0.5150410000000  0.4776440000000 1.0
C      1  0.4042490000000  0.4703360000000  0.5007300000000 1.0
C      1  0.4025120000000  0.4858850000000  0.5248670000000 1.0
C      1  0.4057140000000  0.4861310000000  0.4764450000000 1.0
C      1  0.4034800000000  0.5298970000000  0.5023960000000 1.0
C      1  0.5686020000000  0.5550680000000  0.4542990000000 1.0
C      1  0.5724710000000  0.4307290000000  0.4785790000000 1.0
C      1  0.5708870000000  0.5143300000000  0.5697550000000 1.0
C      1  0.5691000000000  0.4450950000000  0.4545650000000 1.0
C      1  0.5717710000000  0.5691410000000  0.4783840000000 1.0
C      1  0.5703250000000  0.4855250000000  0.5690150000000 1.0
C      1  0.4728710000000  0.5364160000000  0.4583060000000 1.0
C      1  0.4803600000000  0.4395140000000  0.4814800000000 1.0
C      1  0.4715540000000  0.5084390000000  0.5536630000000 1.0
C      1  0.4694640000000  0.4597850000000  0.4634470000000 1.0
C      1  0.4767910000000  0.5516840000000  0.4842410000000 1.0
C      1  0.4711140000000  0.4796020000000  0.5507150000000 1.0
C      1  0.4746930000000  0.5281870000000  0.5960250000000 1.0
C      1  0.4743470000000  0.5675340000000  0.4254660000000 1.0
C      1  0.4723570000000  0.3986830000000  0.4772320000000 1.0
C      1  0.4743800000000  0.4689320000000  0.5964200000000 1.0
C      1  0.4744290000000  0.4320160000000  0.4255210000000 1.0
C      1  0.4742630000000  0.5976560000000  0.4783520000000 1.0
C      1  0.5185660000000  0.5244500000000  0.4162760000000 1.0
C      1  0.5176690000000  0.4161280000000  0.5223570000000 1.0
C      1  0.5154280000000  0.5648650000000  0.5616790000000 1.0
C      1  0.5204590000000  0.4766920000000  0.4145620000000 1.0
C      1  0.5192440000000  0.5848840000000  0.5202690000000 1.0
C      1  0.5162300000000  0.4384300000000  0.5626800000000 1.0
C      1  0.4060810000000  0.5340950000000  0.4541290000000 1.0
C      1  0.4154930000000  0.4440480000000  0.5038080000000 1.0
C      1  0.4098190000000  0.5293140000000  0.5490450000000 1.0
C      1  0.4110750000000  0.4752820000000  0.4506740000000 1.0
C      1  0.4130970000000  0.5577790000000  0.5041090000000 1.0
C      1  0.4096560000000  0.4714650000000  0.5480510000000 1.0
C      1  0.5140480000000  0.5476730000000  0.4967610000000 1.0
C      1  0.5125300000000  0.4776810000000  0.4603080000000 1.0
C      1  0.5176050000000  0.4757700000000  0.5428240000000 1.0
C      1  0.5133560000000  0.4534790000000  0.4992680000000 1.0
C      1  0.5151110000000  0.5237940000000  0.4626670000000 1.0
C      1  0.5234250000000  0.5263870000000  0.5425150000000 1.0
C      1  0.4845440000000  0.5524460000000  0.4043950000000 1.0
C      1  0.4860660000000  0.3882170000000  0.5015210000000 1.0
C      1  0.4857180000000  0.5558610000000  0.5981640000000 1.0
C      1  0.4869850000000  0.4434670000000  0.4012820000000 1.0
C      1  0.4854900000000  0.6105780000000  0.5021670000000 1.0
C      1  0.4862370000000  0.4420330000000  0.5974780000000 1.0
C      1  0.5244070000000  0.5149010000000  0.5983800000000 1.0
C      1  0.5242100000000  0.5818330000000  0.4357060000000 1.0
C      1  0.5249540000000  0.4073810000000  0.4634730000000 1.0
C      1  0.5245220000000  0.4855620000000  0.6014570000000 1.0
C      1  0.5234950000000  0.4174070000000  0.4366410000000 1.0
C      1  0.5246670000000  0.5957370000000  0.4619480000000 1.0
C      1  0.4584770000000  0.5164570000000  0.4752130000000 1.0
C      1  0.4510480000000  0.4712130000000  0.5015290000000 1.0
C      1  0.4552140000000  0.5156650000000  0.5297920000000 1.0
C      1  0.4584040000000  0.4843340000000  0.4760580000000 1.0
C      1  0.4559080000000  0.5347130000000  0.4997070000000 1.0
C      1  0.4539150000000  0.4855410000000  0.5262800000000 1.0
C      1  0.5892930000000  0.4859310000000  0.5236370000000 1.0
C      1  0.5893140000000  0.5281500000000  0.4995410000000 1.0
C      1  0.5879790000000  0.4858820000000  0.4743480000000 1.0
C      1  0.5890130000000  0.5141430000000  0.5237960000000 1.0
C      1  0.5894420000000  0.4719990000000  0.4993690000000 1.0
C      1  0.5880570000000  0.5143860000000  0.4744550000000 1.0
C      1  0.4968630000000  0.4764360000000  0.5028680000000 1.0
C      1  0.5005280000000  0.5168440000000  0.5272340000000 1.0
C      1  0.4943350000000  0.5132170000000  0.4804690000000 1.0
C      1  0.4988920000000  0.5253550000000  0.5021840000000 1.0
C      1  0.5001110000000  0.4900570000000  0.5251370000000 1.0
C      1  0.4930680000000  0.4865460000000  0.4786580000000 1.0
C      1  0.4960830000000  0.4214270000000  0.4392550000000 1.0
C      1  0.4966280000000  0.4858340000000  0.5947780000000 1.0
C      1  0.4965710000000  0.5903860000000  0.4637350000000 1.0
C      1  0.4964450000000  0.5770050000000  0.4399920000000 1.0
C      1  0.4970200000000  0.5127800000000  0.5912000000000 1.0
C      1  0.4959850000000  0.4136090000000  0.4658550000000 1.0
C      1  0.5359800000000  0.5411900000000  0.5954820000000 1.0
C      1  0.5352020000000  0.5648240000000  0.4155260000000 1.0
C      1  0.5374860000000  0.3965060000000  0.4870340000000 1.0
C      1  0.5368330000000  0.4597500000000  0.5963520000000 1.0
C      1  0.5361480000000  0.4339610000000  0.4167200000000 1.0
C      1  0.5373820000000  0.6044810000000  0.4865110000000 1.0
C      1  0.4673930000000  0.5651860000000  0.5524830000000 1.0
C      1  0.4598130000000  0.5117530000000  0.4129750000000 1.0
C      1  0.4483600000000  0.4155790000000  0.5319170000000 1.0
C      1  0.4530840000000  0.4310890000000  0.5565130000000 1.0
C      1  0.4738880000000  0.4853530000000  0.4188150000000 1.0
C      1  0.4483960000000  0.5826410000000  0.5341300000000 1.0
C      1  0.4209200000000  0.5720990000000  0.5281270000000 1.0
C      1  0.4232400000000  0.4876590000000  0.4287980000000 1.0
C      1  0.4216690000000  0.4436630000000  0.5527480000000 1.0
C      1  0.4209630000000  0.4292560000000  0.5268060000000 1.0
C      1  0.4341780000000  0.5140500000000  0.4222020000000 1.0
C      1  0.4229740000000  0.5548350000000  0.5496190000000 1.0
C      1  0.5457110000000  0.4866690000000  0.4198740000000 1.0
C      1  0.5414760000000  0.4403640000000  0.5494560000000 1.0
C      1  0.5410640000000  0.5657440000000  0.5207140000000 1.0
C      1  0.5451010000000  0.5133100000000  0.4201620000000 1.0
C      1  0.5384300000000  0.5541080000000  0.5467030000000 1.0
C      1  0.5415990000000  0.4342300000000  0.5219930000000 1.0
END
