TITL C-2441158-471-350 0.0178951383420236 125000 -9347.61663842878 0 0 64 (Cs) n - 1
REM
REM in /home/bkarasulu/work/CARBON/AIRSS/Generating-Clusters/ReaxFF-fromJPCA2015/Units_Real/with-SteepDescent/Higher-Symm
REM
REM
REM
REM
REM
REM ./C.cell (1df0a924f5614ab8850e4351716899ee)
REM
REM compiler GCC version 9.2.1 20190827 (Red Hat 9.2.1-1)
REM options -cpp -mtune=generic -march=x86-64 -g -O0 -fpre-include=/usr/include/finclude/math-vector-fortran.h
REM seed -1463296800 -1327165582 -1032660341 1526370883 846474122 -597124542 104501027 429687559 1722922482 -1683758302 -369908248 -204917445 -503522339 979790192 804589437 -1656873165 -26193048 1067163355 1345726120 1143546225 -1829720110 -1922222081 -1374662522 32608319 -1736283534 699854865 1781440215 -1923635213 1850344156 -1541800391 -1487486064 -1742930400 602216403
REM
CELL 1.54180   50.00000   50.00000   50.00000   90.00000   90.00000   90.00000
LATT -1
SFAC C  
C      1  0.4694320000000  0.5689530000000  0.4687770000000 1.0
C      1  0.5307630000000  0.4314560000000  0.4688290000000 1.0
C      1  0.4703470000000  0.5686180000000  0.5305680000000 1.0
C      1  0.5308530000000  0.4312590000000  0.5315160000000 1.0
C      1  0.4695000000000  0.4312280000000  0.4687870000000 1.0
C      1  0.5306620000000  0.5688020000000  0.4689980000000 1.0
C      1  0.4694950000000  0.4313440000000  0.5314560000000 1.0
C      1  0.5308150000000  0.5688410000000  0.5314640000000 1.0
C      1  0.5528850000000  0.4430850000000  0.4847870000000 1.0
C      1  0.4475210000000  0.5570890000000  0.4846220000000 1.0
C      1  0.5528810000000  0.4431060000000  0.5156030000000 1.0
C      1  0.4480670000000  0.5570010000000  0.5153710000000 1.0
C      1  0.5527770000000  0.5570220000000  0.4848470000000 1.0
C      1  0.4474300000000  0.4430030000000  0.4846140000000 1.0
C      1  0.5528160000000  0.5570460000000  0.5156300000000 1.0
C      1  0.4473890000000  0.4431170000000  0.5154940000000 1.0
C      1  0.5566760000000  0.5283190000000  0.4855860000000 1.0
C      1  0.4440620000000  0.4717660000000  0.4851440000000 1.0
C      1  0.5561360000000  0.5282580000000  0.5149610000000 1.0
C      1  0.4437820000000  0.4717650000000  0.5145230000000 1.0
C      1  0.5567490000000  0.4717790000000  0.4855070000000 1.0
C      1  0.4440670000000  0.5282720000000  0.4852170000000 1.0
C      1  0.5562120000000  0.4718780000000  0.5148780000000 1.0
C      1  0.4439340000000  0.5284130000000  0.5145920000000 1.0
C      1  0.4848570000000  0.4435330000000  0.5538360000000 1.0
C      1  0.5155850000000  0.5566100000000  0.5537460000000 1.0
C      1  0.4846770000000  0.4435880000000  0.4464420000000 1.0
C      1  0.5154380000000  0.5565180000000  0.4465420000000 1.0
C      1  0.4850050000000  0.5566880000000  0.5531230000000 1.0
C      1  0.5155450000000  0.4435920000000  0.5538200000000 1.0
C      1  0.4846730000000  0.5566670000000  0.4465350000000 1.0
C      1  0.5154230000000  0.4437490000000  0.4464220000000 1.0
C      1  0.4656740000000  0.5156310000000  0.5346300000000 1.0
C      1  0.5334150000000  0.4842010000000  0.5331040000000 1.0
C      1  0.4643530000000  0.5149350000000  0.4649140000000 1.0
C      1  0.5348710000000  0.4844010000000  0.4662620000000 1.0
C      1  0.4657510000000  0.4842760000000  0.5345480000000 1.0
C      1  0.5333180000000  0.5159550000000  0.5331020000000 1.0
C      1  0.4643880000000  0.4851580000000  0.4648560000000 1.0
C      1  0.5348170000000  0.5157340000000  0.4663510000000 1.0
C      1  0.4859810000000  0.5852070000000  0.5144340000000 1.0
C      1  0.5150270000000  0.4132800000000  0.5151230000000 1.0
C      1  0.4851310000000  0.5864210000000  0.4855350000000 1.0
C      1  0.5150400000000  0.4133440000000  0.4851370000000 1.0
C      1  0.4852430000000  0.4132670000000  0.5151330000000 1.0
C      1  0.5144700000000  0.5859620000000  0.5150780000000 1.0
C      1  0.4852730000000  0.4131820000000  0.4851600000000 1.0
C      1  0.5147950000000  0.5865920000000  0.4853630000000 1.0
C      1  0.5144680000000  0.5277120000000  0.4440930000000 1.0
C      1  0.4851180000000  0.4724940000000  0.4442790000000 1.0
C      1  0.5148150000000  0.5276580000000  0.5560960000000 1.0
C      1  0.4854850000000  0.4723710000000  0.5565540000000 1.0
C      1  0.5144590000000  0.4725470000000  0.4440220000000 1.0
C      1  0.4851370000000  0.5277540000000  0.4444290000000 1.0
C      1  0.5148390000000  0.4725010000000  0.5560240000000 1.0
C      1  0.4854820000000  0.5279050000000  0.5563980000000 1.0
C      1  0.5127770000000  0.5238360000000  0.5130310000000 1.0
C      1  0.4854580000000  0.4765890000000  0.5140870000000 1.0
C      1  0.5139280000000  0.5236140000000  0.4855570000000 1.0
C      1  0.4858520000000  0.4845990000000  0.4858880000000 1.0
C      1  0.5129580000000  0.4760900000000  0.5130140000000 1.0
C      1  0.4853590000000  0.5229410000000  0.5140760000000 1.0
C      1  0.5140940000000  0.4764510000000  0.4855440000000 1.0
C      1  0.4857700000000  0.5150300000000  0.4859390000000 1.0
END
