TITL C-2441169-1362-664 0.0203509040735062 125000 -5000.35306705781 0 0 43 (C1) n - 1
REM
REM in /home/bkarasulu/work/CARBON/AIRSS/Generating-Clusters/ReaxFF-fromJPCA2015/Units_Real/with-SteepDescent/Higher-Symm
REM
REM
REM
REM
REM
REM ./C.cell (1df0a924f5614ab8850e4351716899ee)
REM
REM compiler GCC version 9.2.1 20190827 (Red Hat 9.2.1-1)
REM options -cpp -mtune=generic -march=x86-64 -g -O0 -fpre-include=/usr/include/finclude/math-vector-fortran.h
REM seed 36640534 -996129799 -76704866 -1184809052 331500180 -1851420177 1981026212 1021122716 338181989 -105581821 990475004 1705537912 -1474373173 1752607092 688776491 -1795316428 -1171886236 1939998581 -938398331 -932930028 462544298 423399866 -1146566688 -1920872737 -595144279 1361666152 -275103013 -1723693358 149806983 -1226855361 -131605872 -319837290 321575149
REM
CELL 1.54180   50.00000   50.00000   50.00000   90.00000   90.00000   90.00000
LATT -1
SFAC C  
C      1  0.5129290000000  0.4332710000000  0.5186460000000 1.0
C      1  0.4421990000000  0.4690630000000  0.5197910000000 1.0
C      1  0.4520670000000  0.5464920000000  0.5168790000000 1.0
C      1  0.5304110000000  0.5598850000000  0.5180340000000 1.0
C      1  0.5696140000000  0.4908540000000  0.5185120000000 1.0
C      1  0.5144250000000  0.4333980000000  0.4849810000000 1.0
C      1  0.4425710000000  0.4672140000000  0.4863860000000 1.0
C      1  0.4539620000000  0.5465370000000  0.4828780000000 1.0
C      1  0.5316710000000  0.5571370000000  0.4850390000000 1.0
C      1  0.5695870000000  0.4910000000000  0.4854620000000 1.0
C      1  0.4371090000000  0.4454970000000  0.5304920000000 1.0
C      1  0.4298870000000  0.5415270000000  0.5290730000000 1.0
C      1  0.5221970000000  0.5817650000000  0.5274510000000 1.0
C      1  0.5842010000000  0.5080180000000  0.5307360000000 1.0
C      1  0.5323310000000  0.4200760000000  0.5291920000000 1.0
C      1  0.4386350000000  0.4450430000000  0.4744820000000 1.0
C      1  0.4300190000000  0.5443040000000  0.4726040000000 1.0
C      1  0.5203820000000  0.5783490000000  0.4726700000000 1.0
C      1  0.5841200000000  0.5079460000000  0.4728020000000 1.0
C      1  0.5334990000000  0.4209570000000  0.4748880000000 1.0
C      1  0.5158010000000  0.4607550000000  0.5332420000000 1.0
C      1  0.4683500000000  0.4739450000000  0.5268770000000 1.0
C      1  0.4666920000000  0.5260660000000  0.5348130000000 1.0
C      1  0.5147220000000  0.5386740000000  0.5363720000000 1.0
C      1  0.5454920000000  0.4991900000000  0.5381650000000 1.0
C      1  0.5137460000000  0.4591870000000  0.4668870000000 1.0
C      1  0.4654940000000  0.4735240000000  0.4650210000000 1.0
C      1  0.4679810000000  0.5215880000000  0.4719060000000 1.0
C      1  0.5124080000000  0.5397660000000  0.4781060000000 1.0
C      1  0.5442720000000  0.4985480000000  0.4689630000000 1.0
C      1  0.4651760000000  0.4981310000000  0.5382570000000 1.0
C      1  0.4891670000000  0.5369670000000  0.5341730000000 1.0
C      1  0.5316100000000  0.5223860000000  0.5365650000000 1.0
C      1  0.5346560000000  0.4768760000000  0.5351530000000 1.0
C      1  0.4912260000000  0.4624150000000  0.5386200000000 1.0
C      1  0.4632750000000  0.4979780000000  0.4676300000000 1.0
C      1  0.4875960000000  0.5354250000000  0.4627440000000 1.0
C      1  0.5280200000000  0.5224030000000  0.4634410000000 1.0
C      1  0.5309630000000  0.4766510000000  0.4692750000000 1.0
C      1  0.4906750000000  0.4639270000000  0.4668630000000 1.0
C      1  0.5020790000000  0.5087510000000  0.4550010000000 1.0
C      1  0.4988960000000  0.4971460000000  0.5381100000000 1.0
C      1  0.5031010000000  0.5001340000000  0.5118940000000 1.0
END
