TITL C-2441158-471-386 0.15145976862706 125000 -22996.1098121209 0 0 175 (C1) n - 1
REM
REM in /home/bkarasulu/work/CARBON/AIRSS/Generating-Clusters/ReaxFF-fromJPCA2015/Units_Real/with-SteepDescent/Higher-Symm
REM
REM
REM
REM
REM
REM ./C.cell (1df0a924f5614ab8850e4351716899ee)
REM
REM compiler GCC version 9.2.1 20190827 (Red Hat 9.2.1-1)
REM options -cpp -mtune=generic -march=x86-64 -g -O0 -fpre-include=/usr/include/finclude/math-vector-fortran.h
REM seed 1495160301 -1405665902 1289033717 117276186 452227190 -1799964162 -1318242771 -538369555 -891483103 716340178 -2132051735 971857573 1161991798 842871364 -1838554835 775384771 -809488060 1879263009 824972906 -1842147648 696004837 523584095 -12360956 919787301 492119660 -713457047 556397740 -33029494 1649949510 1326061873 1081588477 -1607920350 -1296227375
REM
CELL 1.54180   50.00000   50.00000   50.00000   90.00000   90.00000   90.00000
LATT -1
SFAC C  
C      1  0.5345320000000  0.4374760000000  0.4249060000000 1.0
C      1  0.5682910000000  0.5356310000000  0.5737220000000 1.0
C      1  0.4621500000000  0.5694530000000  0.4289520000000 1.0
C      1  0.4314190000000  0.4657670000000  0.5724810000000 1.0
C      1  0.4307090000000  0.5648220000000  0.5221840000000 1.0
C      1  0.4340150000000  0.4288440000000  0.4766330000000 1.0
C      1  0.5630180000000  0.4329660000000  0.5253810000000 1.0
C      1  0.5656970000000  0.5697620000000  0.4783850000000 1.0
C      1  0.5133640000000  0.4302040000000  0.5877250000000 1.0
C      1  0.5856750000000  0.5195540000000  0.4308070000000 1.0
C      1  0.4820350000000  0.5817810000000  0.5754240000000 1.0
C      1  0.4259420000000  0.4735420000000  0.4161150000000 1.0
C      1  0.5675550000000  0.5097840000000  0.4104810000000 1.0
C      1  0.4897200000000  0.5602720000000  0.5932950000000 1.0
C      1  0.4501120000000  0.4761760000000  0.4021950000000 1.0
C      1  0.5207950000000  0.4541130000000  0.6006140000000 1.0
C      1  0.5778610000000  0.4626550000000  0.4259630000000 1.0
C      1  0.5420390000000  0.5691580000000  0.5745680000000 1.0
C      1  0.4206900000000  0.5440210000000  0.4304560000000 1.0
C      1  0.4612810000000  0.4248730000000  0.5677310000000 1.0
C      1  0.5414130000000  0.5202420000000  0.4508070000000 1.0
C      1  0.4750600000000  0.5449140000000  0.5462500000000 1.0
C      1  0.4602850000000  0.4773640000000  0.4549700000000 1.0
C      1  0.5254720000000  0.4573270000000  0.5493060000000 1.0
C      1  0.4929660000000  0.6046320000000  0.5294970000000 1.0
C      1  0.4076680000000  0.4736010000000  0.4698160000000 1.0
C      1  0.5180470000000  0.4124770000000  0.5345690000000 1.0
C      1  0.5995580000000  0.5140430000000  0.4817390000000 1.0
C      1  0.4480650000000  0.5245790000000  0.4855030000000 1.0
C      1  0.4769390000000  0.4515470000000  0.5235910000000 1.0
C      1  0.5618210000000  0.4846980000000  0.4810980000000 1.0
C      1  0.5158490000000  0.5478380000000  0.5150520000000 1.0
C      1  0.5889860000000  0.4676180000000  0.5482500000000 1.0
C      1  0.5313710000000  0.5884010000000  0.4522300000000 1.0
C      1  0.4091950000000  0.5328440000000  0.5494250000000 1.0
C      1  0.4689600000000  0.4087780000000  0.4519570000000 1.0
C      1  0.4670410000000  0.5257450000000  0.5943490000000 1.0
C      1  0.4743550000000  0.4599460000000  0.3970260000000 1.0
C      1  0.5394200000000  0.4765320000000  0.6033160000000 1.0
C      1  0.5213130000000  0.5311480000000  0.4034420000000 1.0
C      1  0.5020070000000  0.5596790000000  0.4310600000000 1.0
C      1  0.4438510000000  0.5039160000000  0.5645970000000 1.0
C      1  0.4931490000000  0.4476230000000  0.4422130000000 1.0
C      1  0.5560930000000  0.4956430000000  0.5641490000000 1.0
C      1  0.4423440000000  0.5092480000000  0.4301820000000 1.0
C      1  0.4889210000000  0.4574320000000  0.5694510000000 1.0
C      1  0.5372820000000  0.4829530000000  0.4220360000000 1.0
C      1  0.5109400000000  0.5408840000000  0.5670440000000 1.0
C      1  0.4665350000000  0.5719540000000  0.5525110000000 1.0
C      1  0.4293630000000  0.4667890000000  0.4475920000000 1.0
C      1  0.5275060000000  0.4289020000000  0.5589880000000 1.0
C      1  0.5671230000000  0.5328930000000  0.4497000000000 1.0
C      1  0.4816970000000  0.4573030000000  0.4683030000000 1.0
C      1  0.5576330000000  0.4925840000000  0.5313580000000 1.0
C      1  0.4994590000000  0.5621800000000  0.4710190000000 1.0
C      1  0.4398120000000  0.5070640000000  0.5330840000000 1.0
C      1  0.5929890000000  0.4760300000000  0.4471670000000 1.0
C      1  0.5281890000000  0.5842230000000  0.5539910000000 1.0
C      1  0.4182320000000  0.5191860000000  0.4476230000000 1.0
C      1  0.4704840000000  0.4070690000000  0.5476820000000 1.0
C      1  0.5224060000000  0.4766410000000  0.4582420000000 1.0
C      1  0.5251190000000  0.5238850000000  0.5546850000000 1.0
C      1  0.4764590000000  0.5273360000000  0.4525210000000 1.0
C      1  0.4748600000000  0.4693270000000  0.5498700000000 1.0
C      1  0.4182300000000  0.4921000000000  0.5707450000000 1.0
C      1  0.5150480000000  0.4244520000000  0.4431830000000 1.0
C      1  0.5812600000000  0.5098650000000  0.5698160000000 1.0
C      1  0.4868120000000  0.5848990000000  0.4315520000000 1.0
C      1  0.5306490000000  0.4987260000000  0.5173190000000 1.0
C      1  0.4969810000000  0.5353270000000  0.4699020000000 1.0
C      1  0.4667150000000  0.5055430000000  0.5248910000000 1.0
C      1  0.5145040000000  0.4612580000000  0.4806540000000 1.0
C      1  0.4378470000000  0.5290830000000  0.4090460000000 1.0
C      1  0.4842340000000  0.4344760000000  0.5844390000000 1.0
C      1  0.5631260000000  0.4815500000000  0.4089960000000 1.0
C      1  0.5188070000000  0.5567760000000  0.5892140000000 1.0
C      1  0.4544390000000  0.4258510000000  0.4332580000000 1.0
C      1  0.5728700000000  0.4546430000000  0.5684780000000 1.0
C      1  0.5444310000000  0.5711060000000  0.4333730000000 1.0
C      1  0.4272120000000  0.5460380000000  0.5675610000000 1.0
C      1  0.5416430000000  0.5183600000000  0.5762610000000 1.0
C      1  0.4776240000000  0.5424290000000  0.4249280000000 1.0
C      1  0.4574030000000  0.4799050000000  0.5756370000000 1.0
C      1  0.5211440000000  0.4611560000000  0.4162800000000 1.0
C      1  0.4963950000000  0.4021000000000  0.4554390000000 1.0
C      1  0.5987630000000  0.4949430000000  0.5511780000000 1.0
C      1  0.5044110000000  0.5995520000000  0.4506240000000 1.0
C      1  0.4008470000000  0.5053740000000  0.5506900000000 1.0
C      1  0.6102090000000  0.5051460000000  0.5264750000000 1.0
C      1  0.4924360000000  0.6091940000000  0.4751780000000 1.0
C      1  0.3941700000000  0.4947030000000  0.5240510000000 1.0
C      1  0.5066630000000  0.3930690000000  0.4809260000000 1.0
C      1  0.5798050000000  0.5615530000000  0.5032400000000 1.0
C      1  0.4289630000000  0.5787540000000  0.4963950000000 1.0
C      1  0.4215860000000  0.4361610000000  0.5016240000000 1.0
C      1  0.5704210000000  0.4221780000000  0.4853240000000 1.0
C      1  0.4376790000000  0.5674520000000  0.5505260000000 1.0
C      1  0.4334100000000  0.4376830000000  0.4493150000000 1.0
C      1  0.5585390000000  0.4332800000000  0.5540000000000 1.0
C      1  0.5657000000000  0.5613950000000  0.4509120000000 1.0
C      1  0.4582820000000  0.5039340000000  0.4656850000000 1.0
C      1  0.5090860000000  0.4561950000000  0.5250360000000 1.0
C      1  0.5421650000000  0.4949870000000  0.4645820000000 1.0
C      1  0.4911200000000  0.5374080000000  0.5245080000000 1.0
C      1  0.4459180000000  0.4740360000000  0.5008710000000 1.0
C      1  0.5262200000000  0.4392230000000  0.4878770000000 1.0
C      1  0.5567490000000  0.5280330000000  0.5006330000000 1.0
C      1  0.4719840000000  0.5697260000000  0.5026370000000 1.0
C      1  0.5352580000000  0.4000660000000  0.4847730000000 1.0
C      1  0.5948910000000  0.5306070000000  0.5267900000000 1.0
C      1  0.4649100000000  0.5996810000000  0.4746520000000 1.0
C      1  0.4055020000000  0.4675200000000  0.5235030000000 1.0
C      1  0.4645720000000  0.4893950000000  0.4286930000000 1.0
C      1  0.5122280000000  0.4689260000000  0.5731180000000 1.0
C      1  0.5386180000000  0.5117320000000  0.4204570000000 1.0
C      1  0.4840370000000  0.5369290000000  0.5727260000000 1.0
C      1  0.4271010000000  0.5665580000000  0.4701680000000 1.0
C      1  0.4315740000000  0.4347600000000  0.5295600000000 1.0
C      1  0.5739670000000  0.4349680000000  0.4610380000000 1.0
C      1  0.5653130000000  0.5675120000000  0.5293460000000 1.0
C      1  0.5561990000000  0.4112580000000  0.5060290000000 1.0
C      1  0.5988830000000  0.5404870000000  0.5001490000000 1.0
C      1  0.4532870000000  0.5937400000000  0.5017910000000 1.0
C      1  0.4048390000000  0.4582400000000  0.4948800000000 1.0
C      1  0.5985090000000  0.5031760000000  0.4508960000000 1.0
C      1  0.5008440000000  0.5958940000000  0.5566760000000 1.0
C      1  0.4021950000000  0.5008260000000  0.4694040000000 1.0
C      1  0.4944500000000  0.3965470000000  0.5340620000000 1.0
C      1  0.4659790000000  0.4072810000000  0.5019060000000 1.0
C      1  0.5938660000000  0.4674280000000  0.4997590000000 1.0
C      1  0.5314030000000  0.5943690000000  0.5030620000000 1.0
C      1  0.4064280000000  0.5338690000000  0.4989500000000 1.0
C      1  0.4696060000000  0.4586950000000  0.4963450000000 1.0
C      1  0.5132840000000  0.4775780000000  0.5041380000000 1.0
C      1  0.5292610000000  0.5255380000000  0.5042390000000 1.0
C      1  0.4789520000000  0.5201970000000  0.5039520000000 1.0
C      1  0.5052600000000  0.6069310000000  0.5027210000000 1.0
C      1  0.3946760000000  0.5085380000000  0.4968110000000 1.0
C      1  0.4896160000000  0.3926260000000  0.5050970000000 1.0
C      1  0.6075590000000  0.4923900000000  0.5007720000000 1.0
C      1  0.4937100000000  0.5240350000000  0.4051070000000 1.0
C      1  0.4746360000000  0.4978070000000  0.5940250000000 1.0
C      1  0.4998780000000  0.4731490000000  0.4001710000000 1.0
C      1  0.5273750000000  0.5027860000000  0.5991570000000 1.0
C      1  0.4375660000000  0.4411170000000  0.5575230000000 1.0
C      1  0.5614230000000  0.4398910000000  0.4347060000000 1.0
C      1  0.5652280000000  0.5594230000000  0.5579250000000 1.0
C      1  0.4360030000000  0.5666360000000  0.4422960000000 1.0
C      1  0.5014710000000  0.4941530000000  0.4644890000000 1.0
C      1  0.5134980000000  0.5035530000000  0.5400770000000 1.0
C      1  0.5042280000000  0.5173690000000  0.4511980000000 1.0
C      1  0.4864290000000  0.4944320000000  0.5412700000000 1.0
C      1  0.4327760000000  0.4794060000000  0.5264380000000 1.0
C      1  0.5324680000000  0.4229070000000  0.4678030000000 1.0
C      1  0.5670350000000  0.5195420000000  0.5264010000000 1.0
C      1  0.4710060000000  0.5705280000000  0.4731610000000 1.0
C      1  0.5718310000000  0.5098320000000  0.4861610000000 1.0
C      1  0.5012040000000  0.5664530000000  0.4994450000000 1.0
C      1  0.4406170000000  0.4978910000000  0.4865390000000 1.0
C      1  0.5171840000000  0.4316430000000  0.5130560000000 1.0
C      1  0.4226550000000  0.5390970000000  0.4756820000000 1.0
C      1  0.4585010000000  0.4224940000000  0.5251900000000 1.0
C      1  0.5817070000000  0.4632920000000  0.4735740000000 1.0
C      1  0.5414630000000  0.5828800000000  0.5277890000000 1.0
C      1  0.4752840000000  0.4415220000000  0.4198200000000 1.0
C      1  0.5620460000000  0.4764740000000  0.5846580000000 1.0
C      1  0.5263780000000  0.5571860000000  0.4144910000000 1.0
C      1  0.4398990000000  0.5247990000000  0.5834700000000 1.0
C      1  0.5748530000000  0.4627300000000  0.5223280000000 1.0
C      1  0.5431160000000  0.5856700000000  0.4786230000000 1.0
C      1  0.4209570000000  0.5370420000000  0.5231220000000 1.0
C      1  0.4570020000000  0.4144690000000  0.4773080000000 1.0
C      1  0.4905000000000  0.4971190000000  0.4134650000000 1.0
C      1  0.5022540000000  0.4957860000000  0.5878190000000 1.0
C      1  0.4941840000000  0.4972340000000  0.4917090000000 1.0
END
