TITL C-2441166-8118-1210 0.195401570311551 125000 -19022.3253502646 0 0 163 (C1) n - 1
REM
REM in /home/bkarasulu/work/CARBON/AIRSS/Generating-Clusters/ReaxFF-fromJPCA2015/Units_Real/with-SteepDescent/Higher-Symm
REM
REM
REM
REM
REM
REM ./C.cell (1df0a924f5614ab8850e4351716899ee)
REM
REM compiler GCC version 9.2.1 20190827 (Red Hat 9.2.1-1)
REM options -cpp -mtune=generic -march=x86-64 -g -O0 -fpre-include=/usr/include/finclude/math-vector-fortran.h
REM seed 1948664504 1895062442 -1884372795 -109958296 1638471259 -1330261499 -496782314 847703527 -1814805428 -286485179 670634504 300115388 -1729960949 -1400682735 -998671364 -1978154456 1279802437 -23845420 791918732 -1400418339 1910611394 -200347689 -1901870141 -1857656419 1197275790 -673752894 -147340419 -1015566579 457553900 767806516 -956523227 -981935042 -1699114190
REM
CELL 1.54180   50.00000   50.00000   50.00000   90.00000   90.00000   90.00000
LATT -1
SFAC C  
C      1  0.4826480000000  0.5828830000000  0.5661890000000 1.0
C      1  0.5801540000000  0.5581920000000  0.4827500000000 1.0
C      1  0.5611970000000  0.4862530000000  0.5809440000000 1.0
C      1  0.4824470000000  0.4176210000000  0.4411740000000 1.0
C      1  0.5168510000000  0.5823940000000  0.4384300000000 1.0
C      1  0.5152490000000  0.4183930000000  0.5615220000000 1.0
C      1  0.5811410000000  0.4397880000000  0.5155270000000 1.0
C      1  0.4180760000000  0.5612880000000  0.5154330000000 1.0
C      1  0.4200240000000  0.4395120000000  0.4831540000000 1.0
C      1  0.5641730000000  0.5179650000000  0.4191060000000 1.0
C      1  0.4394950000000  0.4830860000000  0.4175880000000 1.0
C      1  0.4406260000000  0.5156210000000  0.5809200000000 1.0
C      1  0.4830170000000  0.5589570000000  0.5827080000000 1.0
C      1  0.5820490000000  0.4843050000000  0.5604510000000 1.0
C      1  0.5626740000000  0.5827590000000  0.4802330000000 1.0
C      1  0.4811630000000  0.4364280000000  0.4186750000000 1.0
C      1  0.5143790000000  0.4388180000000  0.5818580000000 1.0
C      1  0.5164430000000  0.5628190000000  0.4163710000000 1.0
C      1  0.5830940000000  0.5177400000000  0.4424090000000 1.0
C      1  0.4201090000000  0.5157390000000  0.5606740000000 1.0
C      1  0.4172390000000  0.4834680000000  0.4374930000000 1.0
C      1  0.5601420000000  0.4192840000000  0.5150230000000 1.0
C      1  0.4412480000000  0.4191100000000  0.4816920000000 1.0
C      1  0.4399630000000  0.5824110000000  0.5141370000000 1.0
C      1  0.5607810000000  0.4595560000000  0.5223580000000 1.0
C      1  0.4621630000000  0.5157880000000  0.5592480000000 1.0
C      1  0.5163460000000  0.5605050000000  0.4571300000000 1.0
C      1  0.5561170000000  0.5398660000000  0.4847060000000 1.0
C      1  0.4410760000000  0.4596990000000  0.4783950000000 1.0
C      1  0.4388790000000  0.5412000000000  0.5218280000000 1.0
C      1  0.4595730000000  0.4840080000000  0.4397820000000 1.0
C      1  0.5423520000000  0.5232520000000  0.4387270000000 1.0
C      1  0.5416770000000  0.4794550000000  0.5606710000000 1.0
C      1  0.5224470000000  0.4388400000000  0.5423360000000 1.0
C      1  0.4794540000000  0.5640220000000  0.5407170000000 1.0
C      1  0.4850780000000  0.4416140000000  0.4599870000000 1.0
C      1  0.5595170000000  0.5168680000000  0.4616330000000 1.0
C      1  0.4582990000000  0.5607450000000  0.5220180000000 1.0
C      1  0.5230040000000  0.4582340000000  0.5619200000000 1.0
C      1  0.5605250000000  0.4823890000000  0.5395940000000 1.0
C      1  0.4382320000000  0.4783740000000  0.4580110000000 1.0
C      1  0.4401990000000  0.5204060000000  0.5403290000000 1.0
C      1  0.4609530000000  0.4401540000000  0.4770950000000 1.0
C      1  0.5411790000000  0.4400370000000  0.5219700000000 1.0
C      1  0.5371380000000  0.5635850000000  0.4779500000000 1.0
C      1  0.5217240000000  0.5419520000000  0.4371860000000 1.0
C      1  0.4856990000000  0.5389500000000  0.5600110000000 1.0
C      1  0.4803410000000  0.4625710000000  0.4359520000000 1.0
C      1  0.5639370000000  0.4929110000000  0.4058860000000 1.0
C      1  0.4899280000000  0.4051190000000  0.5561560000000 1.0
C      1  0.4025870000000  0.5561350000000  0.4904580000000 1.0
C      1  0.5519410000000  0.5114790000000  0.5921780000000 1.0
C      1  0.4470570000000  0.4909000000000  0.5949960000000 1.0
C      1  0.4427610000000  0.5079920000000  0.4015690000000 1.0
C      1  0.4925380000000  0.5977690000000  0.4445640000000 1.0
C      1  0.5069770000000  0.4014980000000  0.4421850000000 1.0
C      1  0.5091180000000  0.5957260000000  0.5668070000000 1.0
C      1  0.4035530000000  0.4452580000000  0.5063950000000 1.0
C      1  0.5943590000000  0.5494970000000  0.5063730000000 1.0
C      1  0.5947530000000  0.4490240000000  0.4914410000000 1.0
C      1  0.5497250000000  0.4061520000000  0.4913850000000 1.0
C      1  0.4902490000000  0.5624670000000  0.4056540000000 1.0
C      1  0.4047720000000  0.4914690000000  0.5543690000000 1.0
C      1  0.5656120000000  0.5918310000000  0.5066420000000 1.0
C      1  0.4462880000000  0.5964290000000  0.4896850000000 1.0
C      1  0.4471550000000  0.4041700000000  0.5062990000000 1.0
C      1  0.4884510000000  0.4453700000000  0.5948450000000 1.0
C      1  0.5064790000000  0.4340600000000  0.4024070000000 1.0
C      1  0.5088880000000  0.5568400000000  0.5969620000000 1.0
C      1  0.4021390000000  0.5090630000000  0.4373450000000 1.0
C      1  0.5967460000000  0.5098480000000  0.5575000000000 1.0
C      1  0.5981810000000  0.4927100000000  0.4449130000000 1.0
C      1  0.5578420000000  0.4183250000000  0.4657640000000 1.0
C      1  0.4200100000000  0.4663110000000  0.5600590000000 1.0
C      1  0.4635230000000  0.5615890000000  0.4154800000000 1.0
C      1  0.5641710000000  0.5836080000000  0.5337270000000 1.0
C      1  0.4388000000000  0.4173210000000  0.5313650000000 1.0
C      1  0.4412510000000  0.5824270000000  0.4633460000000 1.0
C      1  0.4153650000000  0.5358720000000  0.4376970000000 1.0
C      1  0.5821050000000  0.4673100000000  0.4403060000000 1.0
C      1  0.5774280000000  0.5346350000000  0.5591900000000 1.0
C      1  0.4619240000000  0.4412650000000  0.5838450000000 1.0
C      1  0.5362180000000  0.5583290000000  0.5813040000000 1.0
C      1  0.5328240000000  0.4354890000000  0.4154050000000 1.0
C      1  0.5651930000000  0.4665890000000  0.4152380000000 1.0
C      1  0.4182470000000  0.5597810000000  0.4644370000000 1.0
C      1  0.4655130000000  0.4212590000000  0.5626710000000 1.0
C      1  0.5584510000000  0.5375380000000  0.5818950000000 1.0
C      1  0.4392440000000  0.5335630000000  0.4185330000000 1.0
C      1  0.4419570000000  0.4643460000000  0.5818730000000 1.0
C      1  0.4182970000000  0.4396980000000  0.5316950000000 1.0
C      1  0.5816640000000  0.4417320000000  0.4651370000000 1.0
C      1  0.5808440000000  0.5570060000000  0.5312940000000 1.0
C      1  0.4666850000000  0.5815520000000  0.4394900000000 1.0
C      1  0.5357720000000  0.5826740000000  0.5627180000000 1.0
C      1  0.5336320000000  0.4180450000000  0.4398600000000 1.0
C      1  0.5302650000000  0.5176840000000  0.5482220000000 1.0
C      1  0.5224910000000  0.5652330000000  0.5414740000000 1.0
C      1  0.5567820000000  0.5415340000000  0.5183760000000 1.0
C      1  0.5413570000000  0.4766550000000  0.4326180000000 1.0
C      1  0.4544500000000  0.5187270000000  0.4397540000000 1.0
C      1  0.4623520000000  0.4846300000000  0.5578710000000 1.0
C      1  0.5205870000000  0.4399330000000  0.4561790000000 1.0
C      1  0.4811420000000  0.5583360000000  0.4552910000000 1.0
C      1  0.4771330000000  0.4413050000000  0.5440750000000 1.0
C      1  0.5604110000000  0.4600260000000  0.4733030000000 1.0
C      1  0.4402370000000  0.5437530000000  0.4771440000000 1.0
C      1  0.4403140000000  0.4575750000000  0.5231830000000 1.0
C      1  0.5415610000000  0.5658770000000  0.5228530000000 1.0
C      1  0.5161570000000  0.5398340000000  0.5591040000000 1.0
C      1  0.5571870000000  0.5218740000000  0.5398590000000 1.0
C      1  0.5410110000000  0.4414910000000  0.4753700000000 1.0
C      1  0.4587550000000  0.4377060000000  0.5236980000000 1.0
C      1  0.4597380000000  0.5617450000000  0.4739210000000 1.0
C      1  0.5232140000000  0.4572620000000  0.4347160000000 1.0
C      1  0.4831020000000  0.4682950000000  0.5493270000000 1.0
C      1  0.4757200000000  0.5370960000000  0.4346330000000 1.0
C      1  0.5590810000000  0.4818170000000  0.4562580000000 1.0
C      1  0.4400130000000  0.4775980000000  0.5411990000000 1.0
C      1  0.4355260000000  0.5212330000000  0.4614530000000 1.0
C      1  0.5203600000000  0.4048310000000  0.4927450000000 1.0
C      1  0.4016830000000  0.4937940000000  0.5254310000000 1.0
C      1  0.4900420000000  0.5234260000000  0.4113670000000 1.0
C      1  0.5270670000000  0.5809920000000  0.4992250000000 1.0
C      1  0.4758630000000  0.4045280000000  0.5060450000000 1.0
C      1  0.4750710000000  0.5963420000000  0.4953750000000 1.0
C      1  0.4155700000000  0.5082180000000  0.4802740000000 1.0
C      1  0.6006510000000  0.4950260000000  0.4728020000000 1.0
C      1  0.6006860000000  0.5055100000000  0.5303400000000 1.0
C      1  0.4942610000000  0.4731250000000  0.6015940000000 1.0
C      1  0.5057800000000  0.5298480000000  0.6009520000000 1.0
C      1  0.5029390000000  0.4737130000000  0.4204180000000 1.0
C      1  0.5255670000000  0.4928940000000  0.4138080000000 1.0
C      1  0.4033340000000  0.5284200000000  0.4944670000000 1.0
C      1  0.4931390000000  0.4023990000000  0.5279030000000 1.0
C      1  0.5225320000000  0.5077580000000  0.5976590000000 1.0
C      1  0.4704680000000  0.5051170000000  0.4019570000000 1.0
C      1  0.4753540000000  0.4951190000000  0.5991540000000 1.0
C      1  0.3995990000000  0.4738150000000  0.5053960000000 1.0
C      1  0.5958060000000  0.4775080000000  0.4938640000000 1.0
C      1  0.5957220000000  0.5181470000000  0.5045290000000 1.0
C      1  0.4894160000000  0.6002710000000  0.4722220000000 1.0
C      1  0.5007190000000  0.5768920000000  0.5291410000000 1.0
C      1  0.5074770000000  0.4009640000000  0.4691270000000 1.0
C      1  0.5139490000000  0.5120990000000  0.5241860000000 1.0
C      1  0.5415860000000  0.5035440000000  0.5066410000000 1.0
C      1  0.5028180000000  0.5357170000000  0.5121760000000 1.0
C      1  0.5321160000000  0.4858380000000  0.4877950000000 1.0
C      1  0.4619170000000  0.5149650000000  0.4928470000000 1.0
C      1  0.4718240000000  0.4899980000000  0.5055680000000 1.0
C      1  0.5098830000000  0.4849450000000  0.4720670000000 1.0
C      1  0.4839880000000  0.5145310000000  0.4735760000000 1.0
C      1  0.5160250000000  0.4628860000000  0.4896360000000 1.0
C      1  0.4966850000000  0.4568350000000  0.5092630000000 1.0
C      1  0.4931150000000  0.4813950000000  0.5256060000000 1.0
C      1  0.4821890000000  0.5363820000000  0.4940180000000 1.0
C      1  0.4988700000000  0.4236750000000  0.5079710000000 1.0
C      1  0.4200070000000  0.4932080000000  0.5037880000000 1.0
C      1  0.4981200000000  0.5735800000000  0.5012800000000 1.0
C      1  0.5695520000000  0.5022270000000  0.5037900000000 1.0
C      1  0.5004230000000  0.4947010000000  0.5824410000000 1.0
C      1  0.5025570000000  0.5023400000000  0.4261970000000 1.0
C      1  0.4929960000000  0.4937280000000  0.4869320000000 1.0
END
