TITL C-2441157-2117-1056 0.00305534887686063 125000 -5862.80783100092 0 0 42 (C1) n - 1
REM
REM in /home/bkarasulu/work/CARBON/AIRSS/Generating-Clusters/ReaxFF-fromJPCA2015/Units_Real/with-SteepDescent/Higher-Symm
REM
REM
REM
REM
REM
REM ./C.cell (1df0a924f5614ab8850e4351716899ee)
REM
REM compiler GCC version 9.2.1 20190827 (Red Hat 9.2.1-1)
REM options -cpp -mtune=generic -march=x86-64 -g -O0 -fpre-include=/usr/include/finclude/math-vector-fortran.h
REM seed -329887864 2005061715 -689961072 956617066 -1044903212 127461018 -979934499 1131623863 1856699559 -1116810613 1990955980 -563417994 -1769199410 -332576917 1685598352 1121698558 1907972620 1781622056 -1859722628 1247681769 -677409621 -845369957 1760599425 -1615320466 -123298416 -1143779446 -1910394581 -1307520523 -1379517223 1503919497 2060728982 905935795 1402283285
REM
CELL 1.54180   50.00000   50.00000   50.00000   90.00000   90.00000   90.00000
LATT -1
SFAC C  
C      1  0.4881890000000  0.5430920000000  0.5539570000000 1.0
C      1  0.5137690000000  0.4645240000000  0.5518060000000 1.0
C      1  0.4791990000000  0.5368270000000  0.4521180000000 1.0
C      1  0.5028040000000  0.4647050000000  0.4415420000000 1.0
C      1  0.5334710000000  0.5500220000000  0.4770990000000 1.0
C      1  0.4649390000000  0.4462240000000  0.4727310000000 1.0
C      1  0.4415700000000  0.4814150000000  0.5046890000000 1.0
C      1  0.5570540000000  0.5156740000000  0.5084170000000 1.0
C      1  0.5124090000000  0.5301760000000  0.5576370000000 1.0
C      1  0.4906630000000  0.4778690000000  0.5599800000000 1.0
C      1  0.4442470000000  0.5194240000000  0.5188330000000 1.0
C      1  0.5548050000000  0.4843730000000  0.5112530000000 1.0
C      1  0.4745870000000  0.4626530000000  0.4482690000000 1.0
C      1  0.5429020000000  0.5299620000000  0.4568100000000 1.0
C      1  0.4488810000000  0.4635760000000  0.4884880000000 1.0
C      1  0.5551940000000  0.5320010000000  0.4839930000000 1.0
C      1  0.5239480000000  0.4895410000000  0.4705240000000 1.0
C      1  0.4785720000000  0.5100050000000  0.4661550000000 1.0
C      1  0.4365690000000  0.5332800000000  0.5444640000000 1.0
C      1  0.5640400000000  0.4723380000000  0.5357460000000 1.0
C      1  0.5216700000000  0.4600750000000  0.4630420000000 1.0
C      1  0.4850290000000  0.5607250000000  0.4683500000000 1.0
C      1  0.5329430000000  0.5048530000000  0.4478020000000 1.0
C      1  0.4628600000000  0.4899780000000  0.4500260000000 1.0
C      1  0.5360510000000  0.4568230000000  0.5373990000000 1.0
C      1  0.4633150000000  0.5499050000000  0.5434520000000 1.0
C      1  0.4529510000000  0.4914710000000  0.5273010000000 1.0
C      1  0.5394070000000  0.5244580000000  0.5281990000000 1.0
C      1  0.4903040000000  0.4434020000000  0.4844970000000 1.0
C      1  0.5084570000000  0.5615050000000  0.4867350000000 1.0
C      1  0.4812270000000  0.5576100000000  0.4975950000000 1.0
C      1  0.5169630000000  0.4484080000000  0.4899020000000 1.0
C      1  0.5167990000000  0.5169850000000  0.5314370000000 1.0
C      1  0.4807150000000  0.4834730000000  0.5324140000000 1.0
C      1  0.5271490000000  0.4692990000000  0.5112730000000 1.0
C      1  0.4662480000000  0.5401410000000  0.5152480000000 1.0
C      1  0.5016720000000  0.5038150000000  0.5742330000000 1.0
C      1  0.5002700000000  0.5001880000000  0.4847990000000 1.0
C      1  0.5033780000000  0.5014110000000  0.4057020000000 1.0
C      1  0.5136950000000  0.4903340000000  0.4268540000000 1.0
C      1  0.4962730000000  0.4961480000000  0.5970810000000 1.0
C      1  0.5025010000000  0.4925450000000  0.5136550000000 1.0
END
