TITL C-2441167-4473-340 0.000801929958849946 125000 -3162.46837867855 0 0 24 (C1) n - 1
REM
REM in /home/bkarasulu/work/CARBON/AIRSS/Generating-Clusters/ReaxFF-fromJPCA2015/Units_Real/with-SteepDescent/Higher-Symm
REM
REM
REM
REM
REM
REM ./C.cell (1df0a924f5614ab8850e4351716899ee)
REM
REM compiler GCC version 9.2.1 20190827 (Red Hat 9.2.1-1)
REM options -cpp -mtune=generic -march=x86-64 -g -O0 -fpre-include=/usr/include/finclude/math-vector-fortran.h
REM seed -465537768 -615467808 524328635 1189028005 1847700790 70214512 -1018672325 952269877 921968199 -1526622723 -755129558 -2131228089 192101200 1337996846 -1001310724 222108171 972648939 1882951656 2109268019 828949507 1570966355 -744097363 1069331498 -1328612400 1216816217 244893352 -818151830 -1192712392 -156067856 1758183336 708899658 1362455669 2091423291
REM
CELL 1.54180   50.00000   50.00000   50.00000   90.00000   90.00000   90.00000
LATT -1
SFAC C  
C      1  0.4595180000000  0.5180800000000  0.5416620000000 1.0
C      1  0.4959050000000  0.4660770000000  0.5435270000000 1.0
C      1  0.5114760000000  0.4974860000000  0.5049870000000 1.0
C      1  0.4749310000000  0.5151200000000  0.5646250000000 1.0
C      1  0.4844970000000  0.4845170000000  0.4505740000000 1.0
C      1  0.5233620000000  0.5369900000000  0.4914060000000 1.0
C      1  0.4644840000000  0.5520880000000  0.4617640000000 1.0
C      1  0.4924120000000  0.5126160000000  0.5170850000000 1.0
C      1  0.5158270000000  0.4559330000000  0.5289980000000 1.0
C      1  0.5365070000000  0.4575090000000  0.5143230000000 1.0
C      1  0.5452640000000  0.4944930000000  0.4792500000000 1.0
C      1  0.4820070000000  0.4597240000000  0.4440060000000 1.0
C      1  0.4468210000000  0.5209400000000  0.5153460000000 1.0
C      1  0.4974470000000  0.5365390000000  0.5013660000000 1.0
C      1  0.4978190000000  0.5004230000000  0.5451950000000 1.0
C      1  0.4812190000000  0.4357950000000  0.4394300000000 1.0
C      1  0.5359370000000  0.4978650000000  0.5197420000000 1.0
C      1  0.5418130000000  0.5223160000000  0.4822010000000 1.0
C      1  0.4468020000000  0.5259340000000  0.4866030000000 1.0
C      1  0.5279820000000  0.5018770000000  0.5487350000000 1.0
C      1  0.4935400000000  0.5060540000000  0.4620080000000 1.0
C      1  0.4781920000000  0.5314170000000  0.4761240000000 1.0
C      1  0.5145630000000  0.4920400000000  0.4778810000000 1.0
C      1  0.5516740000000  0.4781670000000  0.5031610000000 1.0
END
