TITL C-2441158-471-1222 0.12520100792255 125000 -11891.2992466404 0 0 106 (C1) n - 1
REM
REM in /home/bkarasulu/work/CARBON/AIRSS/Generating-Clusters/ReaxFF-fromJPCA2015/Units_Real/with-SteepDescent/Higher-Symm
REM
REM
REM
REM
REM
REM ./C.cell (1df0a924f5614ab8850e4351716899ee)
REM
REM compiler GCC version 9.2.1 20190827 (Red Hat 9.2.1-1)
REM options -cpp -mtune=generic -march=x86-64 -g -O0 -fpre-include=/usr/include/finclude/math-vector-fortran.h
REM seed 416721810 2088651469 -1982189191 73858785 -1571771185 524201565 1432637383 351602101 -1014438778 496690525 -1352253591 -1623339443 -2139843119 1046634823 440523563 1298021448 -1715163488 -1215164387 1719315580 1323462758 1975108870 1845394170 -1056169932 2050397518 981750747 -625835912 98081579 -900133159 830322823 -2052829700 -1423594401 667108312 -593935428
REM
CELL 1.54180   50.00000   50.00000   50.00000   90.00000   90.00000   90.00000
LATT -1
SFAC C  
C      1  0.4849700000000  0.4324100000000  0.4959680000000 1.0
C      1  0.4872880000000  0.5318870000000  0.5555270000000 1.0
C      1  0.4892800000000  0.5363860000000  0.4425640000000 1.0
C      1  0.5121990000000  0.4389150000000  0.4989160000000 1.0
C      1  0.5157550000000  0.5326140000000  0.4546790000000 1.0
C      1  0.5138340000000  0.5345530000000  0.5525430000000 1.0
C      1  0.4689830000000  0.4563960000000  0.4623880000000 1.0
C      1  0.4654760000000  0.4861220000000  0.5602300000000 1.0
C      1  0.4650870000000  0.5552740000000  0.4804400000000 1.0
C      1  0.5349690000000  0.4564190000000  0.5388350000000 1.0
C      1  0.5337920000000  0.4901400000000  0.4428790000000 1.0
C      1  0.5368870000000  0.5588990000000  0.5175840000000 1.0
C      1  0.5336250000000  0.4453330000000  0.5672940000000 1.0
C      1  0.5344540000000  0.5882070000000  0.5146350000000 1.0
C      1  0.5337800000000  0.4673800000000  0.4256910000000 1.0
C      1  0.4668990000000  0.4489770000000  0.4351980000000 1.0
C      1  0.4640960000000  0.5854850000000  0.4845470000000 1.0
C      1  0.4704500000000  0.4697940000000  0.5842910000000 1.0
C      1  0.4685870000000  0.4905430000000  0.4413760000000 1.0
C      1  0.4643730000000  0.4517670000000  0.5414030000000 1.0
C      1  0.4646090000000  0.5583210000000  0.5208410000000 1.0
C      1  0.5345320000000  0.4886920000000  0.5654410000000 1.0
C      1  0.5355090000000  0.4540790000000  0.4632920000000 1.0
C      1  0.5370740000000  0.5594570000000  0.4783320000000 1.0
C      1  0.4560940000000  0.4946050000000  0.5137640000000 1.0
C      1  0.4523510000000  0.5158300000000  0.4978920000000 1.0
C      1  0.4524120000000  0.4885230000000  0.4875650000000 1.0
C      1  0.5478630000000  0.4953100000000  0.4854830000000 1.0
C      1  0.5489100000000  0.5174940000000  0.5048800000000 1.0
C      1  0.5487960000000  0.4914300000000  0.5130630000000 1.0
C      1  0.5806310000000  0.5411580000000  0.4754940000000 1.0
C      1  0.5785520000000  0.4590280000000  0.4776170000000 1.0
C      1  0.5769490000000  0.5021410000000  0.5437420000000 1.0
C      1  0.4201780000000  0.5384650000000  0.5254650000000 1.0
C      1  0.4233160000000  0.4620350000000  0.5183990000000 1.0
C      1  0.4226790000000  0.5009840000000  0.4515410000000 1.0
C      1  0.5630900000000  0.4352810000000  0.4859440000000 1.0
C      1  0.5622850000000  0.5190600000000  0.5627740000000 1.0
C      1  0.5647860000000  0.5450270000000  0.4507150000000 1.0
C      1  0.4382870000000  0.4369190000000  0.5140340000000 1.0
C      1  0.4398650000000  0.5195760000000  0.4361500000000 1.0
C      1  0.4369010000000  0.5454510000000  0.5487870000000 1.0
C      1  0.5248540000000  0.4789850000000  0.5218670000000 1.0
C      1  0.5222220000000  0.5240840000000  0.5059880000000 1.0
C      1  0.5226260000000  0.4935740000000  0.4687920000000 1.0
C      1  0.4775330000000  0.4772770000000  0.4796920000000 1.0
C      1  0.4756540000000  0.5299660000000  0.4896120000000 1.0
C      1  0.4806800000000  0.4944760000000  0.5252290000000 1.0
C      1  0.5600830000000  0.5182260000000  0.4436210000000 1.0
C      1  0.5595750000000  0.4416590000000  0.5131130000000 1.0
C      1  0.5602280000000  0.5385630000000  0.5421850000000 1.0
C      1  0.4427120000000  0.5177350000000  0.5554720000000 1.0
C      1  0.4413170000000  0.4440290000000  0.4869240000000 1.0
C      1  0.4395230000000  0.5391410000000  0.4560330000000 1.0
C      1  0.5071230000000  0.5824220000000  0.5277680000000 1.0
C      1  0.5077430000000  0.4831870000000  0.4154620000000 1.0
C      1  0.5075510000000  0.4358130000000  0.5560740000000 1.0
C      1  0.4920200000000  0.5814950000000  0.4734220000000 1.0
C      1  0.4980080000000  0.4837810000000  0.5824240000000 1.0
C      1  0.4911590000000  0.4342810000000  0.4407600000000 1.0
C      1  0.4888730000000  0.4212850000000  0.4668250000000 1.0
C      1  0.4915490000000  0.5128580000000  0.5786150000000 1.0
C      1  0.4856530000000  0.5650350000000  0.4490170000000 1.0
C      1  0.5088820000000  0.4265940000000  0.5273540000000 1.0
C      1  0.5091330000000  0.5114070000000  0.4209300000000 1.0
C      1  0.5153340000000  0.5637690000000  0.5500480000000 1.0
C      1  0.5142830000000  0.4880120000000  0.5464040000000 1.0
C      1  0.5170780000000  0.5393730000000  0.4832950000000 1.0
C      1  0.5145340000000  0.4672700000000  0.4746780000000 1.0
C      1  0.4887930000000  0.4941760000000  0.4600310000000 1.0
C      1  0.4887610000000  0.5443100000000  0.5101340000000 1.0
C      1  0.4850810000000  0.4671210000000  0.5324440000000 1.0
C      1  0.5727960000000  0.4636940000000  0.5265210000000 1.0
C      1  0.5706570000000  0.5384730000000  0.5150970000000 1.0
C      1  0.5738450000000  0.4968510000000  0.4588070000000 1.0
C      1  0.4301420000000  0.4659240000000  0.4722610000000 1.0
C      1  0.4267130000000  0.5361390000000  0.4829780000000 1.0
C      1  0.4277280000000  0.4955130000000  0.5454620000000 1.0
C      1  0.4358880000000  0.4664750000000  0.5430190000000 1.0
C      1  0.4366520000000  0.5532700000000  0.5081180000000 1.0
C      1  0.4395550000000  0.4770810000000  0.4467340000000 1.0
C      1  0.5628770000000  0.4682090000000  0.4551720000000 1.0
C      1  0.5649430000000  0.5586640000000  0.4938900000000 1.0
C      1  0.5633550000000  0.4792570000000  0.5516210000000 1.0
C      1  0.4658630000000  0.5515130000000  0.5485230000000 1.0
C      1  0.4689450000000  0.5166050000000  0.4298780000000 1.0
C      1  0.4674670000000  0.4313270000000  0.5220700000000 1.0
C      1  0.5367280000000  0.5540740000000  0.4501850000000 1.0
C      1  0.5323160000000  0.5171950000000  0.5692360000000 1.0
C      1  0.5343090000000  0.4309940000000  0.4804740000000 1.0
C      1  0.5888680000000  0.5030010000000  0.5109460000000 1.0
C      1  0.5859800000000  0.5129870000000  0.4834230000000 1.0
C      1  0.5871360000000  0.4754320000000  0.5033850000000 1.0
C      1  0.4154570000000  0.5079800000000  0.4807090000000 1.0
C      1  0.4138130000000  0.5081470000000  0.5232150000000 1.0
C      1  0.4126020000000  0.4881240000000  0.5023950000000 1.0
C      1  0.5379880000000  0.5122330000000  0.4254480000000 1.0
C      1  0.5388580000000  0.4301450000000  0.5286500000000 1.0
C      1  0.5432310000000  0.5609660000000  0.5447530000000 1.0
C      1  0.4612980000000  0.5092390000000  0.5756650000000 1.0
C      1  0.4640300000000  0.4325930000000  0.4738380000000 1.0
C      1  0.4579770000000  0.5599700000000  0.4542200000000 1.0
C      1  0.4980800000000  0.5706470000000  0.5019410000000 1.0
C      1  0.5067390000000  0.4592520000000  0.4327380000000 1.0
C      1  0.4992980000000  0.4666910000000  0.5567230000000 1.0
C      1  0.4997520000000  0.5067480000000  0.5063790000000 1.0
END
