TITL C-2441162-9305-23 0.0082584595330093 125000 -7815.81773346285 0 0 57 (C1) n - 1
REM
REM in /home/bkarasulu/work/CARBON/AIRSS/Generating-Clusters/ReaxFF-fromJPCA2015/Units_Real/with-SteepDescent/Higher-Symm
REM
REM
REM
REM
REM
REM ./C.cell (1df0a924f5614ab8850e4351716899ee)
REM
REM compiler GCC version 9.2.1 20190827 (Red Hat 9.2.1-1)
REM options -cpp -mtune=generic -march=x86-64 -g -O0 -fpre-include=/usr/include/finclude/math-vector-fortran.h
REM seed -83397667 -1826161844 -824985115 1649848330 28328034 460840323 1811433984 1679738853 -697197054 1553006529 -1260146881 -1092557484 -1463767449 600303407 693201652 771415338 -2049848180 -1918151979 1638589462 -195004853 2056879722 1240785731 -735350978 1732950307 1471951025 -1821888148 -134015924 2067147260 924069914 -2074946926 1889372919 -601190499 -80000545
REM
CELL 1.54180   50.00000   50.00000   50.00000   90.00000   90.00000   90.00000
LATT -1
SFAC C  
C      1  0.4628810000000  0.4681690000000  0.5459430000000 1.0
C      1  0.5334870000000  0.5450760000000  0.5441640000000 1.0
C      1  0.4647550000000  0.5297800000000  0.5487440000000 1.0
C      1  0.5407050000000  0.4616910000000  0.5457710000000 1.0
C      1  0.5386460000000  0.5615370000000  0.5224100000000 1.0
C      1  0.4619490000000  0.4464150000000  0.5268150000000 1.0
C      1  0.5432010000000  0.4412260000000  0.5238230000000 1.0
C      1  0.4599330000000  0.5541620000000  0.5322650000000 1.0
C      1  0.4877910000000  0.4705940000000  0.5619610000000 1.0
C      1  0.5203080000000  0.5305080000000  0.5630780000000 1.0
C      1  0.4895210000000  0.5238630000000  0.5618590000000 1.0
C      1  0.5149080000000  0.4628740000000  0.5573340000000 1.0
C      1  0.5299120000000  0.5145800000000  0.4359020000000 1.0
C      1  0.4621920000000  0.4904790000000  0.4434930000000 1.0
C      1  0.5374380000000  0.4849650000000  0.4387930000000 1.0
C      1  0.4735670000000  0.5169250000000  0.4388980000000 1.0
C      1  0.5407310000000  0.4649360000000  0.4583510000000 1.0
C      1  0.4772050000000  0.5357740000000  0.4614660000000 1.0
C      1  0.5325370000000  0.5337380000000  0.4546980000000 1.0
C      1  0.4649450000000  0.4664860000000  0.4549990000000 1.0
C      1  0.4481840000000  0.4775430000000  0.4974440000000 1.0
C      1  0.5509720000000  0.5208540000000  0.5000050000000 1.0
C      1  0.4512670000000  0.5245870000000  0.4992730000000 1.0
C      1  0.5506800000000  0.4780090000000  0.4982270000000 1.0
C      1  0.4700520000000  0.5590430000000  0.4789500000000 1.0
C      1  0.5282880000000  0.4446240000000  0.4733910000000 1.0
C      1  0.4709590000000  0.4448260000000  0.4734530000000 1.0
C      1  0.5294360000000  0.5528450000000  0.4731590000000 1.0
C      1  0.4741490000000  0.4817830000000  0.5047320000000 1.0
C      1  0.5214810000000  0.5191970000000  0.4965780000000 1.0
C      1  0.4791360000000  0.5218900000000  0.5082450000000 1.0
C      1  0.5204060000000  0.4763610000000  0.4998970000000 1.0
C      1  0.5093300000000  0.5664030000000  0.5155600000000 1.0
C      1  0.4872870000000  0.4345240000000  0.5170580000000 1.0
C      1  0.5159630000000  0.4309000000000  0.5252220000000 1.0
C      1  0.4829600000000  0.5687490000000  0.5249880000000 1.0
C      1  0.5498950000000  0.4484630000000  0.4960600000000 1.0
C      1  0.4522660000000  0.5533310000000  0.5022680000000 1.0
C      1  0.5480420000000  0.5499790000000  0.4967640000000 1.0
C      1  0.4518760000000  0.4484900000000  0.4988350000000 1.0
C      1  0.4501990000000  0.4983990000000  0.5410180000000 1.0
C      1  0.5527390000000  0.4900920000000  0.5434540000000 1.0
C      1  0.4987740000000  0.4437780000000  0.4732170000000 1.0
C      1  0.4976350000000  0.5543450000000  0.4695130000000 1.0
C      1  0.5096020000000  0.4771080000000  0.4346640000000 1.0
C      1  0.5011060000000  0.5181240000000  0.4242380000000 1.0
C      1  0.4464950000000  0.4995160000000  0.5680930000000 1.0
C      1  0.5419240000000  0.5090110000000  0.5634360000000 1.0
C      1  0.4318500000000  0.5022840000000  0.5111040000000 1.0
C      1  0.5611140000000  0.4985560000000  0.5164800000000 1.0
C      1  0.5032310000000  0.5378990000000  0.5073900000000 1.0
C      1  0.5059580000000  0.4567990000000  0.5149820000000 1.0
C      1  0.4946130000000  0.4975150000000  0.5504200000000 1.0
C      1  0.4893090000000  0.4981030000000  0.5211770000000 1.0
C      1  0.5076580000000  0.4964270000000  0.4845530000000 1.0
C      1  0.4997590000000  0.4932860000000  0.4092940000000 1.0
C      1  0.4981530000000  0.4904290000000  0.4580160000000 1.0
END
