TITL C-2441162-9305-66 0.0561928763898408 125000 -15832.3421969408 0 0 117 (C1) n - 1
REM
REM in /home/bkarasulu/work/CARBON/AIRSS/Generating-Clusters/ReaxFF-fromJPCA2015/Units_Real/with-SteepDescent/Higher-Symm
REM
REM
REM
REM
REM
REM ./C.cell (1df0a924f5614ab8850e4351716899ee)
REM
REM compiler GCC version 9.2.1 20190827 (Red Hat 9.2.1-1)
REM options -cpp -mtune=generic -march=x86-64 -g -O0 -fpre-include=/usr/include/finclude/math-vector-fortran.h
REM seed 414332205 -423728635 -720453338 6869213 1154384105 1786328585 -1244038298 -1049795350 -1032022505 1956494263 862342354 1730820442 -988053741 -1887689894 122728479 -2017801849 -1242886020 -1378053803 759782131 1193070144 1515259826 -893657806 1831427102 1287461564 -1938694710 1369714985 -1425044873 410157232 -873765279 -1562456590 1442522065 -1393352420 1533178591
REM
CELL 1.54180   50.00000   50.00000   50.00000   90.00000   90.00000   90.00000
LATT -1
SFAC C  
C      1  0.5694310000000  0.4942250000000  0.5177400000000 1.0
C      1  0.5049060000000  0.5555520000000  0.5140850000000 1.0
C      1  0.4446960000000  0.5419510000000  0.5115130000000 1.0
C      1  0.4433560000000  0.4583130000000  0.5165950000000 1.0
C      1  0.5172270000000  0.4344110000000  0.5174870000000 1.0
C      1  0.4616840000000  0.4482240000000  0.5650950000000 1.0
C      1  0.5372170000000  0.4451880000000  0.5655000000000 1.0
C      1  0.5582210000000  0.5214030000000  0.5641310000000 1.0
C      1  0.5012720000000  0.5618090000000  0.5645800000000 1.0
C      1  0.4392060000000  0.5215330000000  0.5649820000000 1.0
C      1  0.5108200000000  0.5684380000000  0.5383540000000 1.0
C      1  0.4360910000000  0.5246560000000  0.5348420000000 1.0
C      1  0.4625290000000  0.4487190000000  0.5338810000000 1.0
C      1  0.5385210000000  0.4421710000000  0.5359000000000 1.0
C      1  0.5632520000000  0.5178130000000  0.5342590000000 1.0
C      1  0.4918740000000  0.4079800000000  0.4963990000000 1.0
C      1  0.5857000000000  0.4620720000000  0.4977020000000 1.0
C      1  0.5480210000000  0.5724390000000  0.4936330000000 1.0
C      1  0.4576420000000  0.5818680000000  0.4964580000000 1.0
C      1  0.4132000000000  0.4688690000000  0.4926080000000 1.0
C      1  0.4818420000000  0.5420040000000  0.4372510000000 1.0
C      1  0.4609920000000  0.5016230000000  0.4377710000000 1.0
C      1  0.4911710000000  0.4499570000000  0.4376940000000 1.0
C      1  0.5329840000000  0.4755680000000  0.4332620000000 1.0
C      1  0.5296830000000  0.5277010000000  0.4331020000000 1.0
C      1  0.4540480000000  0.4253650000000  0.4958720000000 1.0
C      1  0.5581580000000  0.4309200000000  0.4974970000000 1.0
C      1  0.5797850000000  0.5315010000000  0.4963110000000 1.0
C      1  0.4978080000000  0.5889990000000  0.4903060000000 1.0
C      1  0.4124420000000  0.5195860000000  0.4958570000000 1.0
C      1  0.5096100000000  0.4502990000000  0.5752120000000 1.0
C      1  0.5469300000000  0.4889590000000  0.5728880000000 1.0
C      1  0.5236650000000  0.5433480000000  0.5766200000000 1.0
C      1  0.4642680000000  0.5332400000000  0.5762440000000 1.0
C      1  0.4551080000000  0.4753590000000  0.5760720000000 1.0
C      1  0.5422020000000  0.4756560000000  0.5217870000000 1.0
C      1  0.5317330000000  0.5236470000000  0.5275360000000 1.0
C      1  0.4838380000000  0.5196430000000  0.5273510000000 1.0
C      1  0.4591350000000  0.5026370000000  0.5260030000000 1.0
C      1  0.4931510000000  0.4571950000000  0.5225980000000 1.0
C      1  0.5217190000000  0.4356090000000  0.4645940000000 1.0
C      1  0.5689720000000  0.4935590000000  0.4652230000000 1.0
C      1  0.5204190000000  0.5578690000000  0.4601590000000 1.0
C      1  0.4447250000000  0.5425360000000  0.4654050000000 1.0
C      1  0.4481110000000  0.4669670000000  0.4607940000000 1.0
C      1  0.5662930000000  0.4637690000000  0.4549770000000 1.0
C      1  0.5531820000000  0.5390670000000  0.4484670000000 1.0
C      1  0.4663550000000  0.5602720000000  0.4552910000000 1.0
C      1  0.4309050000000  0.4902800000000  0.4551580000000 1.0
C      1  0.4928590000000  0.4300710000000  0.4537240000000 1.0
C      1  0.4655520000000  0.4791350000000  0.4211100000000 1.0
C      1  0.5083780000000  0.4666300000000  0.4236240000000 1.0
C      1  0.5448970000000  0.5033390000000  0.4278220000000 1.0
C      1  0.5073710000000  0.5402930000000  0.4219060000000 1.0
C      1  0.4613230000000  0.5259400000000  0.4256340000000 1.0
C      1  0.4922160000000  0.5389290000000  0.4949010000000 1.0
C      1  0.4557550000000  0.5006820000000  0.4943080000000 1.0
C      1  0.4892810000000  0.4626710000000  0.4947810000000 1.0
C      1  0.5335250000000  0.4754170000000  0.4936260000000 1.0
C      1  0.5363530000000  0.5242070000000  0.4888330000000 1.0
C      1  0.4852500000000  0.4327050000000  0.5651340000000 1.0
C      1  0.5604930000000  0.4618770000000  0.5658240000000 1.0
C      1  0.5544940000000  0.5503040000000  0.5691660000000 1.0
C      1  0.4718690000000  0.5618640000000  0.5625420000000 1.0
C      1  0.4301350000000  0.4943760000000  0.5653670000000 1.0
C      1  0.5295830000000  0.5224470000000  0.5560420000000 1.0
C      1  0.4869890000000  0.5242840000000  0.5558040000000 1.0
C      1  0.4658520000000  0.4859920000000  0.5499450000000 1.0
C      1  0.5056150000000  0.4728950000000  0.5487940000000 1.0
C      1  0.5317360000000  0.4834710000000  0.5472950000000 1.0
C      1  0.5043760000000  0.4068590000000  0.5217940000000 1.0
C      1  0.5902830000000  0.4746170000000  0.5223860000000 1.0
C      1  0.5527050000000  0.5721240000000  0.5202580000000 1.0
C      1  0.4425430000000  0.5704850000000  0.5173730000000 1.0
C      1  0.4176780000000  0.4688450000000  0.5212210000000 1.0
C      1  0.5822470000000  0.5030090000000  0.4931700000000 1.0
C      1  0.5229720000000  0.5798810000000  0.4797080000000 1.0
C      1  0.4259910000000  0.5443210000000  0.4898420000000 1.0
C      1  0.4367760000000  0.4502610000000  0.4883530000000 1.0
C      1  0.5303480000000  0.4233750000000  0.4924540000000 1.0
C      1  0.4139820000000  0.4904690000000  0.5409550000000 1.0
C      1  0.4829810000000  0.4147930000000  0.5413460000000 1.0
C      1  0.5769690000000  0.4560690000000  0.5420710000000 1.0
C      1  0.5639270000000  0.5599930000000  0.5423680000000 1.0
C      1  0.4645320000000  0.5739340000000  0.5372190000000 1.0
C      1  0.4742860000000  0.5822140000000  0.4738040000000 1.0
C      1  0.4232500000000  0.4950790000000  0.4825540000000 1.0
C      1  0.4757470000000  0.4194360000000  0.4766060000000 1.0
C      1  0.5698650000000  0.4500570000000  0.4789320000000 1.0
C      1  0.5577360000000  0.5445550000000  0.4806490000000 1.0
C      1  0.5114780000000  0.5200960000000  0.5953570000000 1.0
C      1  0.4830800000000  0.5154730000000  0.5967810000000 1.0
C      1  0.4784920000000  0.4872410000000  0.5959830000000 1.0
C      1  0.5040950000000  0.4738830000000  0.5949460000000 1.0
C      1  0.5243350000000  0.4944180000000  0.5940420000000 1.0
C      1  0.4917250000000  0.5818260000000  0.5207190000000 1.0
C      1  0.4120050000000  0.5139190000000  0.5241030000000 1.0
C      1  0.4612010000000  0.4219710000000  0.5238020000000 1.0
C      1  0.5637680000000  0.4364880000000  0.5256800000000 1.0
C      1  0.5774960000000  0.5400800000000  0.5239610000000 1.0
C      1  0.5423350000000  0.4523210000000  0.4465220000000 1.0
C      1  0.5673420000000  0.5144070000000  0.4425650000000 1.0
C      1  0.5032760000000  0.5630200000000  0.4375320000000 1.0
C      1  0.4386690000000  0.5210600000000  0.4424960000000 1.0
C      1  0.4637080000000  0.4549630000000  0.4373530000000 1.0
C      1  0.5113800000000  0.5312450000000  0.4739840000000 1.0
C      1  0.4645070000000  0.5291400000000  0.4898350000000 1.0
C      1  0.4734270000000  0.4820640000000  0.4777420000000 1.0
C      1  0.5135700000000  0.4594850000000  0.4808240000000 1.0
C      1  0.5428010000000  0.4982030000000  0.4790860000000 1.0
C      1  0.5028410000000  0.5000750000000  0.4964050000000 1.0
C      1  0.4922510000000  0.4855650000000  0.4136530000000 1.0
C      1  0.4990660000000  0.4973830000000  0.3903920000000 1.0
C      1  0.5086610000000  0.5068490000000  0.5203090000000 1.0
C      1  0.5045090000000  0.5078290000000  0.3696000000000 1.0
C      1  0.4896180000000  0.4950270000000  0.5582620000000 1.0
C      1  0.4979850000000  0.4999950000000  0.4717520000000 1.0
END
