TITL C-2441156-4686-800 0.0430987045804683 125000 -17097.8198399733 0 0 123 (C1) n - 1
REM
REM in /home/bkarasulu/work/CARBON/AIRSS/Generating-Clusters/ReaxFF-fromJPCA2015/Units_Real/with-SteepDescent/Higher-Symm
REM
REM
REM
REM
REM
REM ./C.cell (1df0a924f5614ab8850e4351716899ee)
REM
REM compiler GCC version 9.2.1 20190827 (Red Hat 9.2.1-1)
REM options -cpp -mtune=generic -march=x86-64 -g -O0 -fpre-include=/usr/include/finclude/math-vector-fortran.h
REM seed 981345614 -2066043365 -1060337566 1733192141 1043735619 -1589386123 437877365 -1908835412 1229631268 -1444447647 1407406085 71219744 -1373458420 1451060176 -2111939183 900527273 -1393495 337759989 -919343424 -2100987983 2114705791 686969971 415154179 714251599 -426100116 1656699849 292025463 677095307 -1804248377 -1937312803 -1022942805 -880246731 -2087190470
REM
CELL 1.54180   50.00000   50.00000   50.00000   90.00000   90.00000   90.00000
LATT -1
SFAC C  
C      1  0.5681910000000  0.4834670000000  0.5793630000000 1.0
C      1  0.4591300000000  0.4395450000000  0.5792890000000 1.0
C      1  0.4663430000000  0.5522640000000  0.5732770000000 1.0
C      1  0.5323470000000  0.4979740000000  0.4669710000000 1.0
C      1  0.4762740000000  0.4534420000000  0.4621670000000 1.0
C      1  0.4899390000000  0.5307890000000  0.4724560000000 1.0
C      1  0.4656630000000  0.4071080000000  0.5255690000000 1.0
C      1  0.4367940000000  0.5794460000000  0.5268300000000 1.0
C      1  0.6002980000000  0.5145970000000  0.5230490000000 1.0
C      1  0.4135170000000  0.4624540000000  0.5169140000000 1.0
C      1  0.5156760000000  0.5880750000000  0.5156500000000 1.0
C      1  0.5726140000000  0.4419240000000  0.5146000000000 1.0
C      1  0.5743750000000  0.5609140000000  0.5367490000000 1.0
C      1  0.5202480000000  0.4012350000000  0.5390230000000 1.0
C      1  0.4107950000000  0.5269450000000  0.5276760000000 1.0
C      1  0.5555950000000  0.4906810000000  0.4841080000000 1.0
C      1  0.4625570000000  0.4572770000000  0.4873500000000 1.0
C      1  0.4810790000000  0.5619790000000  0.4829490000000 1.0
C      1  0.4346150000000  0.4462000000000  0.5636570000000 1.0
C      1  0.4796800000000  0.5755300000000  0.5622000000000 1.0
C      1  0.5745610000000  0.4759800000000  0.5588920000000 1.0
C      1  0.5187110000000  0.4538160000000  0.5111320000000 1.0
C      1  0.4477120000000  0.5045250000000  0.5166930000000 1.0
C      1  0.5313500000000  0.5389840000000  0.5140410000000 1.0
C      1  0.5050230000000  0.5219210000000  0.4038420000000 1.0
C      1  0.5163800000000  0.4734250000000  0.4033100000000 1.0
C      1  0.4959770000000  0.4940260000000  0.4016830000000 1.0
C      1  0.4982550000000  0.6020960000000  0.5006220000000 1.0
C      1  0.5910130000000  0.4503560000000  0.4963380000000 1.0
C      1  0.3969150000000  0.4438660000000  0.5077960000000 1.0
C      1  0.5624970000000  0.5771750000000  0.4865640000000 1.0
C      1  0.5403570000000  0.4059960000000  0.4922000000000 1.0
C      1  0.4045450000000  0.5264450000000  0.4975940000000 1.0
C      1  0.4387240000000  0.4500250000000  0.5340510000000 1.0
C      1  0.4882790000000  0.5753860000000  0.5323150000000 1.0
C      1  0.5750560000000  0.4702100000000  0.5296770000000 1.0
C      1  0.4854380000000  0.4920760000000  0.4991130000000 1.0
C      1  0.4959710000000  0.5170700000000  0.4979840000000 1.0
C      1  0.5126700000000  0.4908790000000  0.4943310000000 1.0
C      1  0.5371250000000  0.3900100000000  0.5169330000000 1.0
C      1  0.3821000000000  0.5153820000000  0.5008600000000 1.0
C      1  0.5762820000000  0.5784630000000  0.5122140000000 1.0
C      1  0.4634940000000  0.5907590000000  0.5210540000000 1.0
C      1  0.5988770000000  0.4853600000000  0.5178310000000 1.0
C      1  0.4398300000000  0.4211010000000  0.5243250000000 1.0
C      1  0.4665180000000  0.5166140000000  0.4282160000000 1.0
C      1  0.5309070000000  0.5272230000000  0.4190440000000 1.0
C      1  0.5064080000000  0.4529880000000  0.4215750000000 1.0
C      1  0.5565300000000  0.5228890000000  0.5159230000000 1.0
C      1  0.4935520000000  0.4382880000000  0.5128670000000 1.0
C      1  0.4548550000000  0.5379750000000  0.5154340000000 1.0
C      1  0.4230630000000  0.5411470000000  0.4739960000000 1.0
C      1  0.5686920000000  0.5502290000000  0.4700930000000 1.0
C      1  0.5130880000000  0.4050270000000  0.4775410000000 1.0
C      1  0.5134960000000  0.5381530000000  0.5757430000000 1.0
C      1  0.5217210000000  0.4734240000000  0.5730140000000 1.0
C      1  0.4570470000000  0.4936820000000  0.5780470000000 1.0
C      1  0.4689860000000  0.5823180000000  0.4686610000000 1.0
C      1  0.5811260000000  0.4899710000000  0.4720650000000 1.0
C      1  0.4368460000000  0.4465910000000  0.4770710000000 1.0
C      1  0.5294850000000  0.5525170000000  0.4880400000000 1.0
C      1  0.5333660000000  0.4520750000000  0.4867640000000 1.0
C      1  0.4373240000000  0.4947350000000  0.4905190000000 1.0
C      1  0.5543720000000  0.4324690000000  0.4929200000000 1.0
C      1  0.4214530000000  0.4712500000000  0.4896400000000 1.0
C      1  0.5329040000000  0.5818770000000  0.4929270000000 1.0
C      1  0.5311640000000  0.5044190000000  0.4373150000000 1.0
C      1  0.4953670000000  0.4676950000000  0.4444770000000 1.0
C      1  0.4715320000000  0.5155630000000  0.4572540000000 1.0
C      1  0.5047690000000  0.5313650000000  0.5217560000000 1.0
C      1  0.5248320000000  0.4806240000000  0.5192640000000 1.0
C      1  0.4698860000000  0.4862690000000  0.5209600000000 1.0
C      1  0.5624090000000  0.4775360000000  0.4329320000000 1.0
C      1  0.4499940000000  0.4716850000000  0.4293920000000 1.0
C      1  0.4852910000000  0.5602330000000  0.4312680000000 1.0
C      1  0.4255170000000  0.5046100000000  0.5384710000000 1.0
C      1  0.5528990000000  0.5679180000000  0.5548000000000 1.0
C      1  0.5301010000000  0.4226460000000  0.5556140000000 1.0
C      1  0.4819210000000  0.5057310000000  0.5714080000000 1.0
C      1  0.5359390000000  0.5211630000000  0.5705270000000 1.0
C      1  0.4950710000000  0.4811110000000  0.5700980000000 1.0
C      1  0.5785080000000  0.5316600000000  0.5339910000000 1.0
C      1  0.4924540000000  0.4176530000000  0.5363560000000 1.0
C      1  0.4317700000000  0.5483280000000  0.5368280000000 1.0
C      1  0.5306020000000  0.5620610000000  0.5727760000000 1.0
C      1  0.5251730000000  0.4456470000000  0.5715040000000 1.0
C      1  0.4361870000000  0.5101860000000  0.5650170000000 1.0
C      1  0.6017320000000  0.4756930000000  0.4904610000000 1.0
C      1  0.4405140000000  0.4203520000000  0.4952540000000 1.0
C      1  0.4705650000000  0.6012390000000  0.4947560000000 1.0
C      1  0.5529010000000  0.5442180000000  0.5689980000000 1.0
C      1  0.5030200000000  0.4317020000000  0.5611160000000 1.0
C      1  0.4413510000000  0.5388750000000  0.5631380000000 1.0
C      1  0.4496890000000  0.5006050000000  0.4657510000000 1.0
C      1  0.5136890000000  0.5443670000000  0.4652050000000 1.0
C      1  0.5269030000000  0.4671380000000  0.4622710000000 1.0
C      1  0.5597010000000  0.5337840000000  0.4486150000000 1.0
C      1  0.5147320000000  0.4202240000000  0.4551430000000 1.0
C      1  0.4366470000000  0.5437340000000  0.4489010000000 1.0
C      1  0.4392650000000  0.5530250000000  0.4941590000000 1.0
C      1  0.5774200000000  0.5315300000000  0.4907030000000 1.0
C      1  0.4901490000000  0.4202140000000  0.4881160000000 1.0
C      1  0.5470390000000  0.4551420000000  0.4442010000000 1.0
C      1  0.4342430000000  0.4935600000000  0.4408330000000 1.0
C      1  0.5132520000000  0.5612970000000  0.4424070000000 1.0
C      1  0.4705520000000  0.4677590000000  0.5788640000000 1.0
C      1  0.4872420000000  0.5316070000000  0.5777030000000 1.0
C      1  0.5408940000000  0.4936460000000  0.5792210000000 1.0
C      1  0.5396460000000  0.5502090000000  0.4340960000000 1.0
C      1  0.5266230000000  0.4351350000000  0.4343260000000 1.0
C      1  0.4364370000000  0.5205590000000  0.4311960000000 1.0
C      1  0.4673700000000  0.4579030000000  0.5166440000000 1.0
C      1  0.4817660000000  0.5473310000000  0.5235640000000 1.0
C      1  0.5522620000000  0.4899100000000  0.5147030000000 1.0
C      1  0.4658000000000  0.4053430000000  0.4958300000000 1.0
C      1  0.4242590000000  0.5796640000000  0.5002400000000 1.0
C      1  0.6062720000000  0.5263440000000  0.4952690000000 1.0
C      1  0.4511020000000  0.4499420000000  0.4486810000000 1.0
C      1  0.4599420000000  0.5642410000000  0.4462760000000 1.0
C      1  0.5716500000000  0.5023050000000  0.4476560000000 1.0
C      1  0.4832440000000  0.5377790000000  0.4133010000000 1.0
C      1  0.5396970000000  0.4860860000000  0.4165120000000 1.0
C      1  0.4764340000000  0.4848130000000  0.4225430000000 1.0
END
