TITL C-2441158-471-588 0.0122696245636529 125000 -4348.36089201386 0 0 35 (C1) n - 1
REM
REM in /home/bkarasulu/work/CARBON/AIRSS/Generating-Clusters/ReaxFF-fromJPCA2015/Units_Real/with-SteepDescent/Higher-Symm
REM
REM
REM
REM
REM
REM ./C.cell (1df0a924f5614ab8850e4351716899ee)
REM
REM compiler GCC version 9.2.1 20190827 (Red Hat 9.2.1-1)
REM options -cpp -mtune=generic -march=x86-64 -g -O0 -fpre-include=/usr/include/finclude/math-vector-fortran.h
REM seed 2114680632 1460776387 158700556 -2090623577 -207093119 -1185958852 1929065362 -74565144 -891967714 1103894926 85589798 -1726803334 -291146022 1845731 -1829051069 1546852516 -1575097216 -299560777 812751813 -1225829791 2095143938 -647970106 455560028 -188553810 1621668418 354278196 324916478 -78139618 -1461145170 -714610223 -1239696135 972608647 1005794948
REM
CELL 1.54180   50.00000   50.00000   50.00000   90.00000   90.00000   90.00000
LATT -1
SFAC C  
C      1  0.4950580000000  0.4949780000000  0.4790280000000 1.0
C      1  0.4949670000000  0.4389700000000  0.4825470000000 1.0
C      1  0.4951110000000  0.4821300000000  0.5061050000000 1.0
C      1  0.5305240000000  0.5556420000000  0.5126330000000 1.0
C      1  0.4900210000000  0.5407800000000  0.4439670000000 1.0
C      1  0.5358510000000  0.4931010000000  0.4836730000000 1.0
C      1  0.4557210000000  0.4698760000000  0.4649120000000 1.0
C      1  0.4608140000000  0.5528420000000  0.5360070000000 1.0
C      1  0.5628460000000  0.5078900000000  0.5155120000000 1.0
C      1  0.4790450000000  0.5548910000000  0.5150230000000 1.0
C      1  0.5160600000000  0.5138640000000  0.4866780000000 1.0
C      1  0.5513360000000  0.4921610000000  0.4601710000000 1.0
C      1  0.5391980000000  0.5107810000000  0.5188210000000 1.0
C      1  0.5246800000000  0.5337550000000  0.5309970000000 1.0
C      1  0.4664490000000  0.4966400000000  0.4698120000000 1.0
C      1  0.5279480000000  0.4741530000000  0.4652580000000 1.0
C      1  0.4579300000000  0.4989290000000  0.5208030000000 1.0
C      1  0.5535300000000  0.5196510000000  0.4593510000000 1.0
C      1  0.4765920000000  0.4615760000000  0.5585690000000 1.0
C      1  0.4871590000000  0.5440020000000  0.4676600000000 1.0
C      1  0.5229220000000  0.5435470000000  0.4845570000000 1.0
C      1  0.4977050000000  0.4713250000000  0.5481270000000 1.0
C      1  0.4585560000000  0.5121760000000  0.4930070000000 1.0
C      1  0.5228720000000  0.4489200000000  0.4798630000000 1.0
C      1  0.5456880000000  0.5423030000000  0.4670250000000 1.0
C      1  0.5263860000000  0.4496570000000  0.5080240000000 1.0
C      1  0.4398160000000  0.4822920000000  0.5280970000000 1.0
C      1  0.4701670000000  0.4439700000000  0.4663160000000 1.0
C      1  0.4871950000000  0.5495370000000  0.5437420000000 1.0
C      1  0.4827490000000  0.4550290000000  0.5046580000000 1.0
C      1  0.4564730000000  0.4544920000000  0.4899930000000 1.0
C      1  0.4896690000000  0.4968230000000  0.5323080000000 1.0
C      1  0.5232430000000  0.4553080000000  0.5339790000000 1.0
C      1  0.5015990000000  0.5216720000000  0.5507340000000 1.0
C      1  0.4741220000000  0.5363390000000  0.4920430000000 1.0
END
