TITL C-2441163-1170-162 0.00212837221963052 125000 -4253.98923497414 0 0 31 (C1) n - 1
REM
REM in /home/bkarasulu/work/CARBON/AIRSS/Generating-Clusters/ReaxFF-fromJPCA2015/Units_Real/with-SteepDescent/Higher-Symm
REM
REM
REM
REM
REM
REM ./C.cell (1df0a924f5614ab8850e4351716899ee)
REM
REM compiler GCC version 9.2.1 20190827 (Red Hat 9.2.1-1)
REM options -cpp -mtune=generic -march=x86-64 -g -O0 -fpre-include=/usr/include/finclude/math-vector-fortran.h
REM seed -698560468 1521188755 -50521114 1369031767 291343906 -1049819512 2053440574 709840869 11928856 1190002047 425828786 1281631642 1475364172 -1099896139 1058676614 2051437479 2072256566 918162290 1718547949 488487260 871950327 -1937731897 -1429628865 -1244555678 -857570478 560174812 610317897 -1090283947 829856447 2091824133 -35445668 -1456535423 1952044643
REM
CELL 1.54180   50.00000   50.00000   50.00000   90.00000   90.00000   90.00000
LATT -1
SFAC C  
C      1  0.5217930000000  0.4504370000000  0.5268790000000 1.0
C      1  0.4823120000000  0.5485570000000  0.5351740000000 1.0
C      1  0.4775580000000  0.4508280000000  0.4677240000000 1.0
C      1  0.5073580000000  0.5429170000000  0.4660190000000 1.0
C      1  0.4556450000000  0.5191570000000  0.5372470000000 1.0
C      1  0.5422540000000  0.4865830000000  0.5311840000000 1.0
C      1  0.4569000000000  0.4931960000000  0.4709070000000 1.0
C      1  0.5457690000000  0.5257840000000  0.4664930000000 1.0
C      1  0.5000490000000  0.4653860000000  0.5118850000000 1.0
C      1  0.4999600000000  0.5422300000000  0.5136390000000 1.0
C      1  0.5020550000000  0.4607650000000  0.4829080000000 1.0
C      1  0.4901760000000  0.5479280000000  0.4863400000000 1.0
C      1  0.4615470000000  0.5008380000000  0.5163250000000 1.0
C      1  0.5375690000000  0.5076030000000  0.5122850000000 1.0
C      1  0.4527480000000  0.5112930000000  0.4900390000000 1.0
C      1  0.5402550000000  0.5005700000000  0.4824500000000 1.0
C      1  0.4624330000000  0.5407110000000  0.5483990000000 1.0
C      1  0.5253070000000  0.5374030000000  0.4502900000000 1.0
C      1  0.5411130000000  0.4659380000000  0.5416690000000 1.0
C      1  0.4626150000000  0.4733190000000  0.4598850000000 1.0
C      1  0.4416000000000  0.5599860000000  0.4875590000000 1.0
C      1  0.5592320000000  0.4351260000000  0.4927860000000 1.0
C      1  0.4409430000000  0.4351400000000  0.5018090000000 1.0
C      1  0.5600180000000  0.5575380000000  0.5060920000000 1.0
C      1  0.4591660000000  0.5418860000000  0.4835650000000 1.0
C      1  0.5542590000000  0.5393980000000  0.4908730000000 1.0
C      1  0.5422160000000  0.4403600000000  0.5093590000000 1.0
C      1  0.4563380000000  0.4411860000000  0.4838040000000 1.0
C      1  0.5224950000000  0.4794290000000  0.4721870000000 1.0
C      1  0.4903910000000  0.4922660000000  0.5184500000000 1.0
C      1  0.5092130000000  0.5142730000000  0.5170550000000 1.0
END
