TITL C-2441160-1326-462 6.99773215935001e-09 125000 -3674.50518748659 0 0 24 (Oh) n - 1
REM
REM in /home/bkarasulu/work/CARBON/AIRSS/Generating-Clusters/ReaxFF-fromJPCA2015/Units_Real/with-SteepDescent/Higher-Symm
REM
REM
REM
REM
REM
REM ./C.cell (1df0a924f5614ab8850e4351716899ee)
REM
REM compiler GCC version 9.2.1 20190827 (Red Hat 9.2.1-1)
REM options -cpp -mtune=generic -march=x86-64 -g -O0 -fpre-include=/usr/include/finclude/math-vector-fortran.h
REM seed -1374549855 -1081299842 -2013442160 -1159169087 1922489729 -1154918716 832329676 -1970650202 -456625831 -1997891470 192205227 -501104712 939189989 224052089 680770437 1259333373 1793691845 -396172385 901950632 1770992529 -4467151 -1835796116 -972400316 1448057684 1106770964 -1654720207 -778959341 868180104 1985735574 1471580403 1027741055 -515852165 1283077156
REM
CELL 1.54180   50.00000   50.00000   50.00000   90.00000   90.00000   90.00000
LATT -1
SFAC C  
C      1  0.5000000000000  0.4580590000000  0.4789830000000 1.0
C      1  0.4789830000000  0.5000000000000  0.4580590000000 1.0
C      1  0.4580590000000  0.4789830000000  0.5000000000000 1.0
C      1  0.5000000000000  0.5419410000000  0.4789830000000 1.0
C      1  0.5000000000000  0.4580590000000  0.5210170000000 1.0
C      1  0.5000000000000  0.5419410000000  0.5210170000000 1.0
C      1  0.5210170000000  0.5000000000000  0.4580590000000 1.0
C      1  0.5210170000000  0.5000000000000  0.5419410000000 1.0
C      1  0.4789830000000  0.5000000000000  0.5419410000000 1.0
C      1  0.5419410000000  0.5210170000000  0.5000000000000 1.0
C      1  0.5419410000000  0.4789830000000  0.5000000000000 1.0
C      1  0.4580590000000  0.5210170000000  0.5000000000000 1.0
C      1  0.4580590000000  0.5000000000000  0.4789830000000 1.0
C      1  0.5000000000000  0.4789830000000  0.4580590000000 1.0
C      1  0.4789830000000  0.4580590000000  0.5000000000000 1.0
C      1  0.5419410000000  0.5000000000000  0.4789830000000 1.0
C      1  0.4580590000000  0.5000000000000  0.5210170000000 1.0
C      1  0.5419410000000  0.5000000000000  0.5210170000000 1.0
C      1  0.5000000000000  0.5210170000000  0.4580590000000 1.0
C      1  0.5000000000000  0.5210170000000  0.5419410000000 1.0
C      1  0.5000000000000  0.4789830000000  0.5419410000000 1.0
C      1  0.5210170000000  0.5419410000000  0.5000000000000 1.0
C      1  0.4789830000000  0.5419410000000  0.5000000000000 1.0
C      1  0.5210170000000  0.4580590000000  0.5000000000000 1.0
END
