TITL C-2441162-9305-815 0.00230898558694016 125000 -10064.3283145466 0 0 67 (C1) n - 1
REM
REM in /home/bkarasulu/work/CARBON/AIRSS/Generating-Clusters/ReaxFF-fromJPCA2015/Units_Real/with-SteepDescent/Higher-Symm
REM
REM
REM
REM
REM
REM ./C.cell (1df0a924f5614ab8850e4351716899ee)
REM
REM compiler GCC version 9.2.1 20190827 (Red Hat 9.2.1-1)
REM options -cpp -mtune=generic -march=x86-64 -g -O0 -fpre-include=/usr/include/finclude/math-vector-fortran.h
REM seed -803795967 1739110666 1318590410 -798747350 -723137961 -913187373 1748090961 -1616923235 -2033615110 825697827 -1723964759 -1384785730 1229758065 -1726387260 -640801724 -1121472110 -395385717 1351533572 772212226 -547760937 -664583225 -505517819 -892566746 -1137834409 935800966 -166363631 936023221 -505043757 172670367 1473025327 812601974 -1306029000 1561860061
REM
CELL 1.54180   50.00000   50.00000   50.00000   90.00000   90.00000   90.00000
LATT -1
SFAC C  
C      1  0.4611600000000  0.4781070000000  0.4813140000000 1.0
C      1  0.4831490000000  0.4561600000000  0.5280110000000 1.0
C      1  0.4806590000000  0.4854450000000  0.5218630000000 1.0
C      1  0.4559840000000  0.5560200000000  0.5201900000000 1.0
C      1  0.4840080000000  0.5070900000000  0.5682480000000 1.0
C      1  0.4306730000000  0.5151860000000  0.4842910000000 1.0
C      1  0.5315270000000  0.4568210000000  0.5508110000000 1.0
C      1  0.4338740000000  0.4605590000000  0.5492140000000 1.0
C      1  0.4804420000000  0.5193800000000  0.4356230000000 1.0
C      1  0.5256410000000  0.5516480000000  0.5515230000000 1.0
C      1  0.4790650000000  0.5722940000000  0.5267480000000 1.0
C      1  0.4582260000000  0.4886250000000  0.5064410000000 1.0
C      1  0.5103890000000  0.4442780000000  0.5368130000000 1.0
C      1  0.5022270000000  0.4236880000000  0.4942380000000 1.0
C      1  0.5222730000000  0.4964330000000  0.4978420000000 1.0
C      1  0.5493160000000  0.5339220000000  0.4620370000000 1.0
C      1  0.4934750000000  0.4787700000000  0.4747420000000 1.0
C      1  0.4628180000000  0.4729070000000  0.4386050000000 1.0
C      1  0.5475740000000  0.4399460000000  0.5059100000000 1.0
C      1  0.5024710000000  0.5044920000000  0.5184390000000 1.0
C      1  0.5047250000000  0.5360930000000  0.4408640000000 1.0
C      1  0.5325910000000  0.4836440000000  0.5625230000000 1.0
C      1  0.4635330000000  0.4853560000000  0.5675020000000 1.0
C      1  0.4475390000000  0.4906640000000  0.4555620000000 1.0
C      1  0.5635260000000  0.4922290000000  0.4696120000000 1.0
C      1  0.5639000000000  0.4742860000000  0.5208100000000 1.0
C      1  0.4510980000000  0.5354340000000  0.5411650000000 1.0
C      1  0.4947490000000  0.4315970000000  0.4469990000000 1.0
C      1  0.5142030000000  0.4682490000000  0.4929180000000 1.0
C      1  0.4543430000000  0.5183870000000  0.4496620000000 1.0
C      1  0.5706060000000  0.5179440000000  0.4758960000000 1.0
C      1  0.5761720000000  0.5223260000000  0.5052250000000 1.0
C      1  0.5313810000000  0.5230990000000  0.4414710000000 1.0
C      1  0.4334860000000  0.5022050000000  0.5096280000000 1.0
C      1  0.5425380000000  0.5588520000000  0.5284270000000 1.0
C      1  0.5552300000000  0.4509290000000  0.5318430000000 1.0
C      1  0.4384680000000  0.5367640000000  0.4683960000000 1.0
C      1  0.4629460000000  0.4587900000000  0.5537760000000 1.0
C      1  0.5093630000000  0.4788550000000  0.4250770000000 1.0
C      1  0.4827320000000  0.4915960000000  0.4265880000000 1.0
C      1  0.4920300000000  0.5797900000000  0.4738990000000 1.0
C      1  0.5090440000000  0.5582110000000  0.4596660000000 1.0
C      1  0.4517730000000  0.5549260000000  0.4903200000000 1.0
C      1  0.5639240000000  0.5433460000000  0.5184470000000 1.0
C      1  0.5328330000000  0.5260150000000  0.5629660000000 1.0
C      1  0.5484000000000  0.4730610000000  0.4598370000000 1.0
C      1  0.4678180000000  0.5655660000000  0.4713510000000 1.0
C      1  0.5102650000000  0.5021670000000  0.4706330000000 1.0
C      1  0.4619910000000  0.4466610000000  0.4801830000000 1.0
C      1  0.4685160000000  0.4466310000000  0.4517510000000 1.0
C      1  0.4886370000000  0.5812820000000  0.5023830000000 1.0
C      1  0.5356790000000  0.4505180000000  0.4783590000000 1.0
C      1  0.5147540000000  0.4297700000000  0.4685170000000 1.0
C      1  0.5064730000000  0.4526860000000  0.4337770000000 1.0
C      1  0.5670350000000  0.5010670000000  0.5261120000000 1.0
C      1  0.4332300000000  0.5126880000000  0.5378560000000 1.0
C      1  0.5285720000000  0.4928090000000  0.4455270000000 1.0
C      1  0.5503670000000  0.5047010000000  0.5515760000000 1.0
C      1  0.4956890000000  0.5505070000000  0.5446420000000 1.0
C      1  0.5225590000000  0.4284940000000  0.5154760000000 1.0
C      1  0.5036610000000  0.5334490000000  0.5190870000000 1.0
C      1  0.4779580000000  0.4378600000000  0.5020690000000 1.0
C      1  0.5244540000000  0.5493020000000  0.5060660000000 1.0
C      1  0.4365860000000  0.4911060000000  0.5572300000000 1.0
C      1  0.5314810000000  0.5514990000000  0.4767430000000 1.0
C      1  0.4749530000000  0.5321510000000  0.5574700000000 1.0
C      1  0.5132370000000  0.5046670000000  0.5712090000000 1.0
END
