TITL C-2441167-4473-194 0.199494529061155 125000 -23203.0850506833 0 0 188 (C1) n - 1
REM
REM in /home/bkarasulu/work/CARBON/AIRSS/Generating-Clusters/ReaxFF-fromJPCA2015/Units_Real/with-SteepDescent/Higher-Symm
REM
REM
REM
REM
REM
REM ./C.cell (1df0a924f5614ab8850e4351716899ee)
REM
REM compiler GCC version 9.2.1 20190827 (Red Hat 9.2.1-1)
REM options -cpp -mtune=generic -march=x86-64 -g -O0 -fpre-include=/usr/include/finclude/math-vector-fortran.h
REM seed 1307947673 -982099498 -491434648 -1777991532 1548089950 -1701372262 -2103422758 1322684889 398642758 1108035027 521146994 1723637758 -92795168 -503843078 -1693330874 -1780887454 -1158281908 -1099434155 -1278102065 -1304772767 -113561690 -1153888504 -232003819 1145938129 -1384208817 1072689514 656323803 1874500015 -1427077480 -1700851368 -2027624675 -1552774765 -8565007
REM
CELL 1.54180   50.00000   50.00000   50.00000   90.00000   90.00000   90.00000
LATT -1
SFAC C  
C      1  0.4908050000000  0.5260830000000  0.5646470000000 1.0
C      1  0.4561500000000  0.4914140000000  0.5808850000000 1.0
C      1  0.4930130000000  0.4571510000000  0.5703950000000 1.0
C      1  0.5269970000000  0.4865830000000  0.5666110000000 1.0
C      1  0.5285260000000  0.5415060000000  0.5763580000000 1.0
C      1  0.4889730000000  0.3985900000000  0.4815380000000 1.0
C      1  0.5920730000000  0.4580420000000  0.4835900000000 1.0
C      1  0.5775770000000  0.5785590000000  0.4812990000000 1.0
C      1  0.4493880000000  0.5884070000000  0.4837220000000 1.0
C      1  0.4074360000000  0.4696900000000  0.4885800000000 1.0
C      1  0.3920690000000  0.4806020000000  0.5132950000000 1.0
C      1  0.4801790000000  0.3863860000000  0.5066080000000 1.0
C      1  0.5991130000000  0.4509040000000  0.5110030000000 1.0
C      1  0.5816870000000  0.5785030000000  0.5111620000000 1.0
C      1  0.4480720000000  0.5973170000000  0.5118480000000 1.0
C      1  0.4218600000000  0.5648810000000  0.5489690000000 1.0
C      1  0.4139430000000  0.4498070000000  0.5463220000000 1.0
C      1  0.5284120000000  0.4179870000000  0.5511040000000 1.0
C      1  0.5849360000000  0.5056130000000  0.5464990000000 1.0
C      1  0.5297100000000  0.5854610000000  0.5553290000000 1.0
C      1  0.4701320000000  0.5946170000000  0.5318360000000 1.0
C      1  0.4018760000000  0.5010320000000  0.5320760000000 1.0
C      1  0.4525250000000  0.4169610000000  0.5352840000000 1.0
C      1  0.5784520000000  0.4406470000000  0.5315160000000 1.0
C      1  0.5849760000000  0.5564360000000  0.5292430000000 1.0
C      1  0.4810270000000  0.5321210000000  0.5910290000000 1.0
C      1  0.4760570000000  0.4810170000000  0.5975740000000 1.0
C      1  0.4970280000000  0.4627550000000  0.5993620000000 1.0
C      1  0.5376020000000  0.4926110000000  0.5925780000000 1.0
C      1  0.5111840000000  0.5367530000000  0.5985240000000 1.0
C      1  0.5304770000000  0.5923040000000  0.4563200000000 1.0
C      1  0.4182620000000  0.5548630000000  0.4634650000000 1.0
C      1  0.4231660000000  0.4438150000000  0.4494900000000 1.0
C      1  0.5328280000000  0.4099820000000  0.4517120000000 1.0
C      1  0.5924150000000  0.5022780000000  0.4509450000000 1.0
C      1  0.4443190000000  0.5102680000000  0.4693970000000 1.0
C      1  0.4663840000000  0.4491570000000  0.4602720000000 1.0
C      1  0.5387290000000  0.4618220000000  0.4671240000000 1.0
C      1  0.5545880000000  0.5194720000000  0.4571740000000 1.0
C      1  0.5016320000000  0.5625940000000  0.4581900000000 1.0
C      1  0.4237810000000  0.5033070000000  0.4086780000000 1.0
C      1  0.4843530000000  0.4283670000000  0.4142200000000 1.0
C      1  0.5664470000000  0.4578550000000  0.4154670000000 1.0
C      1  0.5511750000000  0.5464700000000  0.4129240000000 1.0
C      1  0.4704750000000  0.5668810000000  0.4164900000000 1.0
C      1  0.4845890000000  0.4584820000000  0.4096600000000 1.0
C      1  0.5374960000000  0.4650630000000  0.4110630000000 1.0
C      1  0.5318880000000  0.5238760000000  0.4102110000000 1.0
C      1  0.4896530000000  0.5437230000000  0.4068130000000 1.0
C      1  0.4665630000000  0.5035470000000  0.4077320000000 1.0
C      1  0.5566720000000  0.5765970000000  0.5527430000000 1.0
C      1  0.4482300000000  0.5596970000000  0.5618610000000 1.0
C      1  0.4248150000000  0.4715290000000  0.5603470000000 1.0
C      1  0.5007850000000  0.4099800000000  0.5490360000000 1.0
C      1  0.5747420000000  0.4820730000000  0.5620540000000 1.0
C      1  0.5790740000000  0.4603630000000  0.4422230000000 1.0
C      1  0.5398740000000  0.5540140000000  0.4392400000000 1.0
C      1  0.4470320000000  0.5635840000000  0.4340740000000 1.0
C      1  0.4212450000000  0.4867770000000  0.4384780000000 1.0
C      1  0.4884550000000  0.4158650000000  0.4411050000000 1.0
C      1  0.5964400000000  0.4747870000000  0.4603830000000 1.0
C      1  0.5571360000000  0.5957960000000  0.4677910000000 1.0
C      1  0.4347160000000  0.5764700000000  0.4604750000000 1.0
C      1  0.4093690000000  0.4670050000000  0.4572360000000 1.0
C      1  0.5063330000000  0.3999860000000  0.4576620000000 1.0
C      1  0.5122950000000  0.5475390000000  0.4797000000000 1.0
C      1  0.4611380000000  0.5320480000000  0.4750090000000 1.0
C      1  0.4645410000000  0.4701990000000  0.4785000000000 1.0
C      1  0.5154740000000  0.4485700000000  0.4734880000000 1.0
C      1  0.5503790000000  0.5063140000000  0.4832120000000 1.0
C      1  0.6020850000000  0.4738370000000  0.5271870000000 1.0
C      1  0.5620570000000  0.5903620000000  0.5275690000000 1.0
C      1  0.4272470000000  0.5828450000000  0.5256920000000 1.0
C      1  0.3945740000000  0.4547140000000  0.5254170000000 1.0
C      1  0.5014930000000  0.3920040000000  0.5256690000000 1.0
C      1  0.4874240000000  0.5865740000000  0.4275530000000 1.0
C      1  0.4090500000000  0.5237410000000  0.4233020000000 1.0
C      1  0.4554290000000  0.4213800000000  0.4174120000000 1.0
C      1  0.5634060000000  0.4290330000000  0.4196100000000 1.0
C      1  0.5784430000000  0.5397610000000  0.4241680000000 1.0
C      1  0.4947750000000  0.5198660000000  0.5209320000000 1.0
C      1  0.4728380000000  0.5078510000000  0.5328350000000 1.0
C      1  0.4957730000000  0.4655490000000  0.5281520000000 1.0
C      1  0.5364310000000  0.4941310000000  0.5372070000000 1.0
C      1  0.5198560000000  0.5155110000000  0.5240890000000 1.0
C      1  0.5431630000000  0.4074770000000  0.5284770000000 1.0
C      1  0.6001310000000  0.5134060000000  0.5223180000000 1.0
C      1  0.5205200000000  0.5987400000000  0.5307770000000 1.0
C      1  0.4060300000000  0.5478520000000  0.5296340000000 1.0
C      1  0.4349370000000  0.4408060000000  0.5264240000000 1.0
C      1  0.5565470000000  0.4304570000000  0.4924190000000 1.0
C      1  0.5778740000000  0.5348650000000  0.4855450000000 1.0
C      1  0.4940710000000  0.5867070000000  0.4908440000000 1.0
C      1  0.4115520000000  0.5181020000000  0.4923380000000 1.0
C      1  0.4553180000000  0.4246330000000  0.4926330000000 1.0
C      1  0.4748570000000  0.4236500000000  0.5511160000000 1.0
C      1  0.5649720000000  0.4565310000000  0.5516930000000 1.0
C      1  0.5698620000000  0.5513560000000  0.5539400000000 1.0
C      1  0.4709280000000  0.5732900000000  0.5511510000000 1.0
C      1  0.4224280000000  0.4979270000000  0.5521660000000 1.0
C      1  0.4933630000000  0.5418830000000  0.5060760000000 1.0
C      1  0.4562780000000  0.5118700000000  0.5088040000000 1.0
C      1  0.4814930000000  0.4658950000000  0.5019680000000 1.0
C      1  0.5329180000000  0.4776230000000  0.5117860000000 1.0
C      1  0.5422680000000  0.5271160000000  0.5088850000000 1.0
C      1  0.5080870000000  0.5569490000000  0.5250140000000 1.0
C      1  0.4460350000000  0.5395400000000  0.5136720000000 1.0
C      1  0.4561490000000  0.4640350000000  0.5236340000000 1.0
C      1  0.5217770000000  0.4529030000000  0.5248970000000 1.0
C      1  0.5580030000000  0.5144570000000  0.5354180000000 1.0
C      1  0.5922670000000  0.5377280000000  0.5095750000000 1.0
C      1  0.4948650000000  0.5996610000000  0.5168790000000 1.0
C      1  0.4014950000000  0.5238120000000  0.5177300000000 1.0
C      1  0.4555170000000  0.4018310000000  0.5111640000000 1.0
C      1  0.5640010000000  0.4214290000000  0.5167370000000 1.0
C      1  0.4947880000000  0.4547190000000  0.4544090000000 1.0
C      1  0.5337690000000  0.4864150000000  0.4577880000000 1.0
C      1  0.5227830000000  0.5252770000000  0.4639390000000 1.0
C      1  0.4793970000000  0.5423310000000  0.4558900000000 1.0
C      1  0.4644680000000  0.4922530000000  0.4579430000000 1.0
C      1  0.4452040000000  0.5221760000000  0.4020490000000 1.0
C      1  0.4563120000000  0.4624720000000  0.4167910000000 1.0
C      1  0.5204390000000  0.4420710000000  0.4122230000000 1.0
C      1  0.5538190000000  0.5056360000000  0.4174920000000 1.0
C      1  0.5129000000000  0.5609240000000  0.4085010000000 1.0
C      1  0.5350660000000  0.4205120000000  0.4236070000000 1.0
C      1  0.5812370000000  0.5112100000000  0.4258950000000 1.0
C      1  0.5261400000000  0.5778810000000  0.4285020000000 1.0
C      1  0.4330290000000  0.5422630000000  0.4216940000000 1.0
C      1  0.4370360000000  0.4429810000000  0.4237480000000 1.0
C      1  0.4861550000000  0.6000120000000  0.4494600000000 1.0
C      1  0.4028050000000  0.5083770000000  0.4475710000000 1.0
C      1  0.4599700000000  0.4118270000000  0.4442020000000 1.0
C      1  0.5742440000000  0.4314320000000  0.4468110000000 1.0
C      1  0.5850110000000  0.5514130000000  0.4504850000000 1.0
C      1  0.4538770000000  0.5355430000000  0.5782090000000 1.0
C      1  0.4487040000000  0.4642300000000  0.5724460000000 1.0
C      1  0.5171380000000  0.4481690000000  0.5808390000000 1.0
C      1  0.5621800000000  0.5016060000000  0.5806360000000 1.0
C      1  0.5158020000000  0.5661420000000  0.5703520000000 1.0
C      1  0.4271870000000  0.4939510000000  0.4882450000000 1.0
C      1  0.4833920000000  0.4258450000000  0.4893620000000 1.0
C      1  0.5625360000000  0.4571300000000  0.4834990000000 1.0
C      1  0.5620120000000  0.5551190000000  0.4712430000000 1.0
C      1  0.4715710000000  0.5687840000000  0.4844820000000 1.0
C      1  0.5356190000000  0.4463560000000  0.5565930000000 1.0
C      1  0.5524410000000  0.5284890000000  0.5629140000000 1.0
C      1  0.4962280000000  0.5545040000000  0.5512290000000 1.0
C      1  0.4480330000000  0.5121730000000  0.5598070000000 1.0
C      1  0.4691870000000  0.4517150000000  0.5558040000000 1.0
C      1  0.5612820000000  0.4836810000000  0.4985260000000 1.0
C      1  0.5317760000000  0.5571690000000  0.5093570000000 1.0
C      1  0.4685660000000  0.5540790000000  0.5073680000000 1.0
C      1  0.4433030000000  0.4868660000000  0.5120840000000 1.0
C      1  0.5108810000000  0.4324350000000  0.4998890000000 1.0
C      1  0.5565130000000  0.4177610000000  0.4664660000000 1.0
C      1  0.5944120000000  0.5271830000000  0.4645730000000 1.0
C      1  0.5054310000000  0.6022090000000  0.4693960000000 1.0
C      1  0.4032080000000  0.5311540000000  0.4672550000000 1.0
C      1  0.4428790000000  0.4253840000000  0.4651720000000 1.0
C      1  0.4533640000000  0.4864990000000  0.4310260000000 1.0
C      1  0.4973350000000  0.4731800000000  0.4316910000000 1.0
C      1  0.5382160000000  0.4868820000000  0.4305670000000 1.0
C      1  0.5202590000000  0.5331680000000  0.4386340000000 1.0
C      1  0.4918460000000  0.5279120000000  0.4350030000000 1.0
C      1  0.4130240000000  0.4454990000000  0.5051880000000 1.0
C      1  0.5213980000000  0.4055500000000  0.5096800000000 1.0
C      1  0.5885400000000  0.4904200000000  0.5086830000000 1.0
C      1  0.5383960000000  0.5863070000000  0.5120530000000 1.0
C      1  0.4234000000000  0.5581250000000  0.5090100000000 1.0
C      1  0.5063050000000  0.4870820000000  0.4956570000000 1.0
C      1  0.4948820000000  0.5083670000000  0.4000890000000 1.0
C      1  0.4977920000000  0.4990880000000  0.6773480000000 1.0
C      1  0.5003440000000  0.5005830000000  0.7503330000000 1.0
C      1  0.4978530000000  0.4994280000000  0.6523190000000 1.0
C      1  0.5022620000000  0.4994880000000  0.3512950000000 1.0
C      1  0.5016750000000  0.4993520000000  0.5627670000000 1.0
C      1  0.5006590000000  0.5000430000000  0.3020220000000 1.0
C      1  0.5034580000000  0.5027110000000  0.6298270000000 1.0
C      1  0.5001260000000  0.5002650000000  0.7262560000000 1.0
C      1  0.5018380000000  0.4993720000000  0.3277370000000 1.0
C      1  0.4991290000000  0.5035600000000  0.3754910000000 1.0
C      1  0.4891910000000  0.4868620000000  0.5420190000000 1.0
C      1  0.5128230000000  0.5079480000000  0.6045960000000 1.0
C      1  0.4997370000000  0.5004910000000  0.2777950000000 1.0
C      1  0.4991860000000  0.4997250000000  0.7007650000000 1.0
C      1  0.4904920000000  0.4988660000000  0.4451360000000 1.0
C      1  0.5102150000000  0.4992840000000  0.4670780000000 1.0
END
