TITL C-2441162-9305-926 0.0296351390767496 125000 -18529.7217663168 0 0 127 (C1) n - 1
REM
REM in /home/bkarasulu/work/CARBON/AIRSS/Generating-Clusters/ReaxFF-fromJPCA2015/Units_Real/with-SteepDescent/Higher-Symm
REM
REM
REM
REM
REM
REM ./C.cell (1df0a924f5614ab8850e4351716899ee)
REM
REM compiler GCC version 9.2.1 20190827 (Red Hat 9.2.1-1)
REM options -cpp -mtune=generic -march=x86-64 -g -O0 -fpre-include=/usr/include/finclude/math-vector-fortran.h
REM seed 539263828 1019429688 1622263508 921578657 -1931320957 -204023254 20122382 566744801 -540376229 497055027 1080051613 -768675579 1193617427 -1500393073 -780918209 1709637651 1349831721 894976345 772695019 344993836 1128225365 -1532523447 788098623 -722546590 1612300316 520877587 -757546137 1125949663 -1882570882 1000450577 -1451352551 -1699653990 1913224435
REM
CELL 1.54180   50.00000   50.00000   50.00000   90.00000   90.00000   90.00000
LATT -1
SFAC C  
C      1  0.4597000000000  0.5357740000000  0.5778710000000 1.0
C      1  0.5465920000000  0.5370160000000  0.5781790000000 1.0
C      1  0.5953010000000  0.5367580000000  0.5037850000000 1.0
C      1  0.5385960000000  0.5417760000000  0.4203170000000 1.0
C      1  0.4549520000000  0.5422800000000  0.4217090000000 1.0
C      1  0.4094200000000  0.5406620000000  0.4895860000000 1.0
C      1  0.5768890000000  0.4905080000000  0.4918260000000 1.0
C      1  0.5275710000000  0.4886570000000  0.4328630000000 1.0
C      1  0.4594060000000  0.4833160000000  0.4482780000000 1.0
C      1  0.4255000000000  0.4921630000000  0.5090300000000 1.0
C      1  0.4735520000000  0.4826740000000  0.5779870000000 1.0
C      1  0.5474910000000  0.4856650000000  0.5607290000000 1.0
C      1  0.4778320000000  0.5542340000000  0.5138820000000 1.0
C      1  0.5024360000000  0.5601040000000  0.5290850000000 1.0
C      1  0.5283880000000  0.5650720000000  0.5156470000000 1.0
C      1  0.5293990000000  0.5594850000000  0.4863600000000 1.0
C      1  0.4910650000000  0.5461470000000  0.4662260000000 1.0
C      1  0.4744250000000  0.5565760000000  0.4863640000000 1.0
C      1  0.5905290000000  0.4673070000000  0.5074980000000 1.0
C      1  0.5503930000000  0.4692600000000  0.4270680000000 1.0
C      1  0.4536950000000  0.4708140000000  0.4217500000000 1.0
C      1  0.4106370000000  0.4696270000000  0.4951120000000 1.0
C      1  0.4491900000000  0.4674390000000  0.5739210000000 1.0
C      1  0.5396940000000  0.4639080000000  0.5806050000000 1.0
C      1  0.5613750000000  0.4466880000000  0.4620510000000 1.0
C      1  0.4951930000000  0.4450710000000  0.4307270000000 1.0
C      1  0.4345240000000  0.4422380000000  0.4677880000000 1.0
C      1  0.4386580000000  0.4463360000000  0.5379550000000 1.0
C      1  0.5019360000000  0.4392780000000  0.5712110000000 1.0
C      1  0.5653930000000  0.4414850000000  0.5348950000000 1.0
C      1  0.4390340000000  0.5208340000000  0.4672620000000 1.0
C      1  0.4398270000000  0.5387820000000  0.5377060000000 1.0
C      1  0.5065050000000  0.5220100000000  0.5705510000000 1.0
C      1  0.5615700000000  0.5218100000000  0.5321120000000 1.0
C      1  0.5552100000000  0.5265230000000  0.4601680000000 1.0
C      1  0.4946170000000  0.5190000000000  0.4287790000000 1.0
C      1  0.5969520000000  0.5140240000000  0.4843370000000 1.0
C      1  0.5212830000000  0.5147010000000  0.4139210000000 1.0
C      1  0.4413780000000  0.5198070000000  0.4361720000000 1.0
C      1  0.4149600000000  0.5245280000000  0.5172820000000 1.0
C      1  0.4778110000000  0.5116040000000  0.5861710000000 1.0
C      1  0.5631540000000  0.5145630000000  0.5654320000000 1.0
C      1  0.5305940000000  0.4388230000000  0.5676720000000 1.0
C      1  0.5768050000000  0.4415540000000  0.5076980000000 1.0
C      1  0.5438610000000  0.4428350000000  0.4382600000000 1.0
C      1  0.4659860000000  0.4440460000000  0.4333570000000 1.0
C      1  0.4217880000000  0.4425590000000  0.4942750000000 1.0
C      1  0.4544480000000  0.4408120000000  0.5621330000000 1.0
C      1  0.3970050000000  0.5173740000000  0.5396420000000 1.0
C      1  0.4892050000000  0.5093380000000  0.6156560000000 1.0
C      1  0.5925050000000  0.5089990000000  0.5724350000000 1.0
C      1  0.6033650000000  0.5165340000000  0.4561420000000 1.0
C      1  0.5109950000000  0.5085920000000  0.3849160000000 1.0
C      1  0.4274900000000  0.4959950000000  0.4281840000000 1.0
C      1  0.5839040000000  0.5121210000000  0.4330620000000 1.0
C      1  0.4823850000000  0.5054960000000  0.3903400000000 1.0
C      1  0.4073320000000  0.4991490000000  0.4491480000000 1.0
C      1  0.4136150000000  0.5093490000000  0.5639250000000 1.0
C      1  0.5173470000000  0.5035650000000  0.6107380000000 1.0
C      1  0.6034400000000  0.5044040000000  0.5452550000000 1.0
C      1  0.4795260000000  0.4266390000000  0.5572120000000 1.0
C      1  0.5424550000000  0.4255110000000  0.5439670000000 1.0
C      1  0.5606520000000  0.4296000000000  0.4864100000000 1.0
C      1  0.5181550000000  0.4304530000000  0.4433250000000 1.0
C      1  0.4570210000000  0.4279570000000  0.4558410000000 1.0
C      1  0.4386000000000  0.4290300000000  0.5138840000000 1.0
C      1  0.5298710000000  0.4926780000000  0.5063360000000 1.0
C      1  0.5180530000000  0.5090900000000  0.4797920000000 1.0
C      1  0.4919800000000  0.4997670000000  0.4749420000000 1.0
C      1  0.4732930000000  0.4932080000000  0.4964450000000 1.0
C      1  0.4818250000000  0.5070120000000  0.5253550000000 1.0
C      1  0.5099280000000  0.5001960000000  0.5295840000000 1.0
C      1  0.5912100000000  0.5274780000000  0.5311760000000 1.0
C      1  0.5646310000000  0.5341730000000  0.4334820000000 1.0
C      1  0.4778290000000  0.5298500000000  0.4079360000000 1.0
C      1  0.4095300000000  0.5243100000000  0.4649180000000 1.0
C      1  0.4329370000000  0.5313710000000  0.5663310000000 1.0
C      1  0.5243480000000  0.5273380000000  0.5940530000000 1.0
C      1  0.4266420000000  0.5600670000000  0.4773180000000 1.0
C      1  0.4740320000000  0.5572840000000  0.5645730000000 1.0
C      1  0.5356010000000  0.5539200000000  0.5577710000000 1.0
C      1  0.5712060000000  0.5524330000000  0.5041750000000 1.0
C      1  0.5205970000000  0.5599600000000  0.4295920000000 1.0
C      1  0.4625170000000  0.5641150000000  0.4386270000000 1.0
C      1  0.5168200000000  0.5947010000000  0.5105850000000 1.0
C      1  0.5168890000000  0.5898620000000  0.4824250000000 1.0
C      1  0.4936660000000  0.5905380000000  0.4664720000000 1.0
C      1  0.4682670000000  0.5850320000000  0.4799630000000 1.0
C      1  0.4667340000000  0.5807900000000  0.5208770000000 1.0
C      1  0.4938570000000  0.5904060000000  0.5264810000000 1.0
C      1  0.4383940000000  0.4700970000000  0.4637360000000 1.0
C      1  0.4313260000000  0.4746110000000  0.5353830000000 1.0
C      1  0.4969930000000  0.4661870000000  0.5828500000000 1.0
C      1  0.5681600000000  0.4687490000000  0.5439440000000 1.0
C      1  0.5713340000000  0.4737930000000  0.4640710000000 1.0
C      1  0.5010950000000  0.4722410000000  0.4231670000000 1.0
C      1  0.5201470000000  0.4761460000000  0.5977410000000 1.0
C      1  0.5938510000000  0.4776750000000  0.5343780000000 1.0
C      1  0.5739020000000  0.4836940000000  0.4376800000000 1.0
C      1  0.4785470000000  0.4803440000000  0.4077340000000 1.0
C      1  0.4105340000000  0.4765770000000  0.4670830000000 1.0
C      1  0.4255320000000  0.4824890000000  0.5617110000000 1.0
C      1  0.4891710000000  0.4507540000000  0.5232120000000 1.0
C      1  0.5175780000000  0.4484550000000  0.5206820000000 1.0
C      1  0.5267890000000  0.4652980000000  0.4992090000000 1.0
C      1  0.5114910000000  0.4525450000000  0.4788530000000 1.0
C      1  0.4837180000000  0.4493320000000  0.4815760000000 1.0
C      1  0.4749580000000  0.4651110000000  0.5033600000000 1.0
C      1  0.5565810000000  0.5021610000000  0.5108280000000 1.0
C      1  0.5353230000000  0.5056830000000  0.4570460000000 1.0
C      1  0.4823650000000  0.5018450000000  0.4497130000000 1.0
C      1  0.4451580000000  0.5029540000000  0.4893210000000 1.0
C      1  0.4623780000000  0.5202550000000  0.5391760000000 1.0
C      1  0.5211740000000  0.5013120000000  0.5541360000000 1.0
C      1  0.5146700000000  0.4240260000000  0.4718570000000 1.0
C      1  0.4744980000000  0.4212210000000  0.4793050000000 1.0
C      1  0.4638720000000  0.4161220000000  0.5067380000000 1.0
C      1  0.4826540000000  0.4224470000000  0.5282500000000 1.0
C      1  0.5267370000000  0.4203110000000  0.5197510000000 1.0
C      1  0.5354110000000  0.4164280000000  0.4921100000000 1.0
C      1  0.4553730000000  0.5671060000000  0.5449460000000 1.0
C      1  0.5052890000000  0.5518850000000  0.5582550000000 1.0
C      1  0.5497930000000  0.5530900000000  0.5319910000000 1.0
C      1  0.5567640000000  0.5490390000000  0.4805280000000 1.0
C      1  0.4935910000000  0.5677300000000  0.4444730000000 1.0
C      1  0.4469450000000  0.5739680000000  0.4614440000000 1.0
C      1  0.5128720000000  0.5372470000000  0.4809270000000 1.0
END
