TITL C-2441161-5029-379 0.234303084962754 125000 -23368.9495923601 0 0 193 (C1) n - 1
REM
REM in /home/bkarasulu/work/CARBON/AIRSS/Generating-Clusters/ReaxFF-fromJPCA2015/Units_Real/with-SteepDescent/Higher-Symm
REM
REM
REM
REM
REM
REM ./C.cell (1df0a924f5614ab8850e4351716899ee)
REM
REM compiler GCC version 9.2.1 20190827 (Red Hat 9.2.1-1)
REM options -cpp -mtune=generic -march=x86-64 -g -O0 -fpre-include=/usr/include/finclude/math-vector-fortran.h
REM seed 2009645578 -284927231 -1727317778 -314423009 1204910491 -1059624514 52248953 -787069494 -402393190 -639243383 1731201627 -902919796 1168392358 -674523015 -203212390 -771121235 2124485572 2092929063 -1399662991 -655538170 -385194753 -1254999863 1843959123 762415939 -1288541166 -644752620 666686336 1982680690 1908886523 1563213065 -160631352 1763120885 1517876612
REM
CELL 1.54180   50.00000   50.00000   50.00000   90.00000   90.00000   90.00000
LATT -1
SFAC C  
C      1  0.4732360000000  0.4698710000000  0.4366280000000 1.0
C      1  0.5398520000000  0.4971100000000  0.4335630000000 1.0
C      1  0.4844630000000  0.5371210000000  0.4340490000000 1.0
C      1  0.5420450000000  0.4635960000000  0.4617070000000 1.0
C      1  0.5137740000000  0.5531670000000  0.4637670000000 1.0
C      1  0.4401190000000  0.4867320000000  0.4613990000000 1.0
C      1  0.4640970000000  0.4774710000000  0.5000190000000 1.0
C      1  0.5358140000000  0.4854440000000  0.4992340000000 1.0
C      1  0.4966240000000  0.5381650000000  0.5016030000000 1.0
C      1  0.4258340000000  0.5825770000000  0.5259410000000 1.0
C      1  0.4649730000000  0.3967550000000  0.5261710000000 1.0
C      1  0.6082020000000  0.5217820000000  0.5265020000000 1.0
C      1  0.4802800000000  0.5373170000000  0.5945930000000 1.0
C      1  0.4793380000000  0.4639180000000  0.5935130000000 1.0
C      1  0.5426920000000  0.4996800000000  0.5981400000000 1.0
C      1  0.4573200000000  0.4644670000000  0.4117820000000 1.0
C      1  0.5481680000000  0.4843820000000  0.4092140000000 1.0
C      1  0.4867240000000  0.5519460000000  0.4093670000000 1.0
C      1  0.5170640000000  0.6044070000000  0.5109310000000 1.0
C      1  0.4033780000000  0.4655800000000  0.5097040000000 1.0
C      1  0.5718360000000  0.4262230000000  0.4956120000000 1.0
C      1  0.4772290000000  0.5097100000000  0.5865640000000 1.0
C      1  0.5039630000000  0.4775230000000  0.5805120000000 1.0
C      1  0.5194340000000  0.5144150000000  0.5868500000000 1.0
C      1  0.4511600000000  0.5909020000000  0.4547320000000 1.0
C      1  0.4496920000000  0.4104170000000  0.4546310000000 1.0
C      1  0.6029690000000  0.4970760000000  0.4550800000000 1.0
C      1  0.4907760000000  0.4908300000000  0.5138600000000 1.0
C      1  0.5168660000000  0.4789790000000  0.5133830000000 1.0
C      1  0.4961060000000  0.5169610000000  0.5187900000000 1.0
C      1  0.4000380000000  0.5003660000000  0.5317420000000 1.0
C      1  0.5467370000000  0.4239370000000  0.5261880000000 1.0
C      1  0.5476790000000  0.5857920000000  0.5281270000000 1.0
C      1  0.5572200000000  0.4834790000000  0.5341250000000 1.0
C      1  0.4825220000000  0.5691930000000  0.5381490000000 1.0
C      1  0.4472660000000  0.4450040000000  0.5381400000000 1.0
C      1  0.4311900000000  0.4485530000000  0.4300780000000 1.0
C      1  0.5743780000000  0.4610290000000  0.4306540000000 1.0
C      1  0.4980970000000  0.5835140000000  0.4335010000000 1.0
C      1  0.4639360000000  0.4861810000000  0.5558010000000 1.0
C      1  0.5255410000000  0.4732940000000  0.5591370000000 1.0
C      1  0.5085220000000  0.5424700000000  0.5531530000000 1.0
C      1  0.5158660000000  0.4924780000000  0.6061150000000 1.0
C      1  0.5070410000000  0.5318070000000  0.6065490000000 1.0
C      1  0.4682720000000  0.4891690000000  0.6051230000000 1.0
C      1  0.5166880000000  0.5717030000000  0.4147980000000 1.0
C      1  0.4334760000000  0.4834660000000  0.4078090000000 1.0
C      1  0.5523820000000  0.4551720000000  0.4120260000000 1.0
C      1  0.4854140000000  0.5506970000000  0.4608900000000 1.0
C      1  0.4611700000000  0.4614560000000  0.4613400000000 1.0
C      1  0.5514720000000  0.4900750000000  0.4587120000000 1.0
C      1  0.5448550000000  0.3981680000000  0.4811230000000 1.0
C      1  0.5642340000000  0.5849280000000  0.4794380000000 1.0
C      1  0.3972470000000  0.5123130000000  0.4858930000000 1.0
C      1  0.4952720000000  0.4832240000000  0.3934210000000 1.0
C      1  0.5158050000000  0.5034660000000  0.3911570000000 1.0
C      1  0.4888070000000  0.5106060000000  0.3950830000000 1.0
C      1  0.5439620000000  0.4349670000000  0.4982670000000 1.0
C      1  0.5221460000000  0.5758250000000  0.5053140000000 1.0
C      1  0.4141980000000  0.4887960000000  0.4946180000000 1.0
C      1  0.4382230000000  0.4505500000000  0.5643020000000 1.0
C      1  0.5742500000000  0.4720010000000  0.5714700000000 1.0
C      1  0.4889680000000  0.5792980000000  0.5642650000000 1.0
C      1  0.5363980000000  0.5061910000000  0.4805060000000 1.0
C      1  0.4773970000000  0.5300350000000  0.4806230000000 1.0
C      1  0.4825570000000  0.4641110000000  0.4809700000000 1.0
C      1  0.4446750000000  0.4966260000000  0.5362830000000 1.0
C      1  0.5217140000000  0.4602930000000  0.5340350000000 1.0
C      1  0.5313310000000  0.5456680000000  0.5382910000000 1.0
C      1  0.5401390000000  0.3963740000000  0.5092790000000 1.0
C      1  0.5700570000000  0.5843340000000  0.5081460000000 1.0
C      1  0.3900610000000  0.5208150000000  0.5131860000000 1.0
C      1  0.4581670000000  0.4664900000000  0.5740060000000 1.0
C      1  0.5485910000000  0.4744820000000  0.5845590000000 1.0
C      1  0.4963050000000  0.5543140000000  0.5755340000000 1.0
C      1  0.4019130000000  0.5401090000000  0.5316650000000 1.0
C      1  0.5179280000000  0.3941730000000  0.5279800000000 1.0
C      1  0.5820820000000  0.5659530000000  0.5269510000000 1.0
C      1  0.4937460000000  0.4491430000000  0.5371550000000 1.0
C      1  0.5379180000000  0.5228890000000  0.5237700000000 1.0
C      1  0.4574540000000  0.5240770000000  0.5359380000000 1.0
C      1  0.5154960000000  0.4293730000000  0.4708990000000 1.0
C      1  0.5582770000000  0.5436630000000  0.4619930000000 1.0
C      1  0.4344280000000  0.5303240000000  0.4634170000000 1.0
C      1  0.4095730000000  0.4391250000000  0.5008460000000 1.0
C      1  0.5938780000000  0.4438140000000  0.4978630000000 1.0
C      1  0.4899750000000  0.6093310000000  0.5028880000000 1.0
C      1  0.5315240000000  0.5755700000000  0.5806330000000 1.0
C      1  0.4196440000000  0.4899100000000  0.5816940000000 1.0
C      1  0.5503200000000  0.4320530000000  0.5807840000000 1.0
C      1  0.4159300000000  0.4684490000000  0.5625340000000 1.0
C      1  0.5705060000000  0.4447460000000  0.5627860000000 1.0
C      1  0.5153940000000  0.5901100000000  0.5613120000000 1.0
C      1  0.4120920000000  0.4933180000000  0.4259400000000 1.0
C      1  0.5455690000000  0.4206160000000  0.4338240000000 1.0
C      1  0.5425580000000  0.5792340000000  0.4313040000000 1.0
C      1  0.4064900000000  0.5357540000000  0.4704690000000 1.0
C      1  0.5173240000000  0.3996780000000  0.4713920000000 1.0
C      1  0.5797870000000  0.5628110000000  0.4686250000000 1.0
C      1  0.4435940000000  0.4154320000000  0.5365080000000 1.0
C      1  0.6029670000000  0.4965510000000  0.5398000000000 1.0
C      1  0.4494580000000  0.5919150000000  0.5417220000000 1.0
C      1  0.5598420000000  0.4175940000000  0.4573770000000 1.0
C      1  0.5416490000000  0.5886370000000  0.4592560000000 1.0
C      1  0.4092380000000  0.4868800000000  0.4542560000000 1.0
C      1  0.5834660000000  0.4869750000000  0.4739300000000 1.0
C      1  0.4708160000000  0.5777490000000  0.4741560000000 1.0
C      1  0.4471270000000  0.4346370000000  0.4724600000000 1.0
C      1  0.4452090000000  0.5587170000000  0.4293950000000 1.0
C      1  0.4807190000000  0.4231270000000  0.4304520000000 1.0
C      1  0.5773280000000  0.5176060000000  0.4298940000000 1.0
C      1  0.5327190000000  0.5424170000000  0.4480590000000 1.0
C      1  0.4463150000000  0.5106600000000  0.4469460000000 1.0
C      1  0.5205270000000  0.4493580000000  0.4492630000000 1.0
C      1  0.5125160000000  0.5939590000000  0.4573550000000 1.0
C      1  0.4129470000000  0.4575560000000  0.4511120000000 1.0
C      1  0.5770200000000  0.4421470000000  0.4530130000000 1.0
C      1  0.5013020000000  0.4829870000000  0.4663160000000 1.0
C      1  0.5111510000000  0.5101750000000  0.4645600000000 1.0
C      1  0.4838100000000  0.5058780000000  0.4654730000000 1.0
C      1  0.5885830000000  0.4582010000000  0.4743860000000 1.0
C      1  0.4923760000000  0.5961430000000  0.4776430000000 1.0
C      1  0.4197880000000  0.4431990000000  0.4748320000000 1.0
C      1  0.5281920000000  0.4143080000000  0.5452430000000 1.0
C      1  0.5566930000000  0.5631750000000  0.5438100000000 1.0
C      1  0.4151050000000  0.5178120000000  0.5453110000000 1.0
C      1  0.4682630000000  0.3976200000000  0.4972720000000 1.0
C      1  0.6057420000000  0.5224320000000  0.4971640000000 1.0
C      1  0.4269890000000  0.5781810000000  0.4971910000000 1.0
C      1  0.4517650000000  0.5419190000000  0.5617580000000 1.0
C      1  0.4876840000000  0.4332370000000  0.5667580000000 1.0
C      1  0.5625650000000  0.5167230000000  0.5661730000000 1.0
C      1  0.4259710000000  0.5538760000000  0.5295060000000 1.0
C      1  0.4916280000000  0.4066600000000  0.5294260000000 1.0
C      1  0.5842310000000  0.5380330000000  0.5283590000000 1.0
C      1  0.5218240000000  0.5503420000000  0.4900440000000 1.0
C      1  0.4419680000000  0.4927310000000  0.4896550000000 1.0
C      1  0.5433700000000  0.4613480000000  0.4893110000000 1.0
C      1  0.5971280000000  0.4777410000000  0.5176680000000 1.0
C      1  0.4662220000000  0.5982350000000  0.5168660000000 1.0
C      1  0.4284550000000  0.4196640000000  0.5114030000000 1.0
C      1  0.4500200000000  0.5340360000000  0.4867500000000 1.0
C      1  0.4953450000000  0.4394400000000  0.4881460000000 1.0
C      1  0.5561300000000  0.5272550000000  0.4844120000000 1.0
C      1  0.4287860000000  0.5722360000000  0.4513150000000 1.0
C      1  0.4773250000000  0.4024440000000  0.4520150000000 1.0
C      1  0.5976900000000  0.5256840000000  0.4510100000000 1.0
C      1  0.4276030000000  0.5122820000000  0.4091220000000 1.0
C      1  0.5308100000000  0.4334880000000  0.4134670000000 1.0
C      1  0.5463780000000  0.5572860000000  0.4132330000000 1.0
C      1  0.4953110000000  0.5678650000000  0.5145260000000 1.0
C      1  0.4458270000000  0.4680360000000  0.5216420000000 1.0
C      1  0.5713150000000  0.4650230000000  0.5235890000000 1.0
C      1  0.4730610000000  0.5102670000000  0.4384220000000 1.0
C      1  0.5021620000000  0.4697760000000  0.4396400000000 1.0
C      1  0.5207480000000  0.5184530000000  0.4375030000000 1.0
C      1  0.5097120000000  0.4356840000000  0.5877280000000 1.0
C      1  0.5540650000000  0.5366550000000  0.5852870000000 1.0
C      1  0.4410920000000  0.5269590000000  0.5850670000000 1.0
C      1  0.5423010000000  0.5030090000000  0.5452820000000 1.0
C      1  0.4932030000000  0.5206550000000  0.5452140000000 1.0
C      1  0.4831590000000  0.4771160000000  0.5385490000000 1.0
C      1  0.4446730000000  0.5378370000000  0.5140200000000 1.0
C      1  0.4913750000000  0.4307130000000  0.5140500000000 1.0
C      1  0.5623400000000  0.5290060000000  0.5113770000000 1.0
C      1  0.4988130000000  0.4361020000000  0.4123480000000 1.0
C      1  0.5568350000000  0.5299960000000  0.4119120000000 1.0
C      1  0.4450910000000  0.5358870000000  0.4108630000000 1.0
C      1  0.4491970000000  0.4266750000000  0.4311600000000 1.0
C      1  0.5869310000000  0.4893670000000  0.4321510000000 1.0
C      1  0.4662130000000  0.5802620000000  0.4323590000000 1.0
C      1  0.4841450000000  0.4573570000000  0.3989640000000 1.0
C      1  0.5437120000000  0.5091940000000  0.3951920000000 1.0
C      1  0.4702820000000  0.5335130000000  0.3949610000000 1.0
C      1  0.4516470000000  0.4204790000000  0.4955880000000 1.0
C      1  0.5926750000000  0.4973500000000  0.4973970000000 1.0
C      1  0.4553440000000  0.5789310000000  0.4980980000000 1.0
C      1  0.5707770000000  0.4379120000000  0.5350570000000 1.0
C      1  0.5260090000000  0.6030720000000  0.5379710000000 1.0
C      1  0.4010140000000  0.4727100000000  0.5375640000000 1.0
C      1  0.4153960000000  0.5176210000000  0.5734820000000 1.0
C      1  0.5271660000000  0.4160660000000  0.5735140000000 1.0
C      1  0.5576060000000  0.5635830000000  0.5747600000000 1.0
C      1  0.5258110000000  0.5529360000000  0.5987630000000 1.0
C      1  0.4415700000000  0.4992960000000  0.5992950000000 1.0
C      1  0.5342990000000  0.4502600000000  0.5954840000000 1.0
C      1  0.4514970000000  0.5708110000000  0.5623260000000 1.0
C      1  0.4626260000000  0.4212550000000  0.5711700000000 1.0
C      1  0.5851050000000  0.4973970000000  0.5632250000000 1.0
C      1  0.4893660000000  0.3922590000000  0.4765760000000 1.0
C      1  0.5998460000000  0.5420780000000  0.4752870000000 1.0
C      1  0.4132170000000  0.5642220000000  0.4750700000000 1.0
C      1  0.4976430000000  0.5040830000000  0.5698020000000 1.0
END
