TITL C-2441163-1170-98 0.0889218967833799 125000 -24664.355059694 0 0 178 (C1) n - 1
REM
REM in /home/bkarasulu/work/CARBON/AIRSS/Generating-Clusters/ReaxFF-fromJPCA2015/Units_Real/with-SteepDescent/Higher-Symm
REM
REM
REM
REM
REM
REM ./C.cell (1df0a924f5614ab8850e4351716899ee)
REM
REM compiler GCC version 9.2.1 20190827 (Red Hat 9.2.1-1)
REM options -cpp -mtune=generic -march=x86-64 -g -O0 -fpre-include=/usr/include/finclude/math-vector-fortran.h
REM seed -1706389344 281275922 1379467294 662022796 417299355 -822983402 1726941989 413245360 8910348 1872974076 -85676013 1232327242 1634757239 1755154497 1032418168 -1615998970 1477910649 -1938229199 -136413929 899929688 1356555127 1783888280 370321632 1885970870 181632245 1375167776 825642302 1537842376 109883660 -576279523 1106750127 -1144357511 1347523782
REM
CELL 1.54180   50.00000   50.00000   50.00000   90.00000   90.00000   90.00000
LATT -1
SFAC C  
C      1  0.5905270000000  0.5425100000000  0.4691560000000 1.0
C      1  0.5571320000000  0.5439130000000  0.5797170000000 1.0
C      1  0.4416420000000  0.5437670000000  0.5774220000000 1.0
C      1  0.4083380000000  0.5421780000000  0.4698760000000 1.0
C      1  0.4965390000000  0.5446430000000  0.3993120000000 1.0
C      1  0.4926610000000  0.5039410000000  0.6021850000000 1.0
C      1  0.3994550000000  0.5040480000000  0.5160210000000 1.0
C      1  0.4478700000000  0.5064100000000  0.4069820000000 1.0
C      1  0.5665720000000  0.5034830000000  0.4304860000000 1.0
C      1  0.5869590000000  0.5045260000000  0.5426610000000 1.0
C      1  0.4281220000000  0.5035060000000  0.4789720000000 1.0
C      1  0.4899860000000  0.5138910000000  0.4282880000000 1.0
C      1  0.5659720000000  0.5038800000000  0.4790610000000 1.0
C      1  0.5368100000000  0.5089560000000  0.5586000000000 1.0
C      1  0.4576430000000  0.5033180000000  0.5598780000000 1.0
C      1  0.4563830000000  0.5816880000000  0.5534860000000 1.0
C      1  0.4341060000000  0.5815550000000  0.4752770000000 1.0
C      1  0.5043620000000  0.5786810000000  0.4338410000000 1.0
C      1  0.5669960000000  0.5874150000000  0.4766120000000 1.0
C      1  0.5382570000000  0.5818120000000  0.5540060000000 1.0
C      1  0.4560850000000  0.5690920000000  0.5125840000000 1.0
C      1  0.4750400000000  0.5662890000000  0.4651180000000 1.0
C      1  0.5286930000000  0.5615340000000  0.4799320000000 1.0
C      1  0.5410540000000  0.5650150000000  0.5074450000000 1.0
C      1  0.5016780000000  0.5685800000000  0.5487620000000 1.0
C      1  0.4686710000000  0.4760350000000  0.5248020000000 1.0
C      1  0.4609900000000  0.4785600000000  0.4749730000000 1.0
C      1  0.5296220000000  0.4771220000000  0.4588200000000 1.0
C      1  0.5526730000000  0.4640560000000  0.5051940000000 1.0
C      1  0.5180790000000  0.4746120000000  0.5424640000000 1.0
C      1  0.5408510000000  0.5293710000000  0.4040430000000 1.0
C      1  0.6061510000000  0.5315960000000  0.5105930000000 1.0
C      1  0.5224030000000  0.5326720000000  0.6058640000000 1.0
C      1  0.4108700000000  0.5312660000000  0.5532550000000 1.0
C      1  0.4203780000000  0.5329920000000  0.4316950000000 1.0
C      1  0.5375520000000  0.4354420000000  0.5694560000000 1.0
C      1  0.4446200000000  0.4374280000000  0.5584430000000 1.0
C      1  0.4300470000000  0.4354600000000  0.4653320000000 1.0
C      1  0.5155710000000  0.4380060000000  0.4239350000000 1.0
C      1  0.5790050000000  0.4329590000000  0.4836750000000 1.0
C      1  0.4914630000000  0.5155760000000  0.3991140000000 1.0
C      1  0.5941490000000  0.5119910000000  0.4690150000000 1.0
C      1  0.5597390000000  0.5140100000000  0.5834020000000 1.0
C      1  0.4509600000000  0.5175160000000  0.5849320000000 1.0
C      1  0.4004490000000  0.5131660000000  0.4676650000000 1.0
C      1  0.5873470000000  0.4409320000000  0.5257400000000 1.0
C      1  0.5007200000000  0.4413480000000  0.5868070000000 1.0
C      1  0.4159750000000  0.4414070000000  0.5278540000000 1.0
C      1  0.4498130000000  0.4421990000000  0.4296250000000 1.0
C      1  0.5487650000000  0.4388540000000  0.4203320000000 1.0
C      1  0.4472300000000  0.4409190000000  0.5291280000000 1.0
C      1  0.4577540000000  0.4415040000000  0.4588700000000 1.0
C      1  0.5204390000000  0.4475350000000  0.4517960000000 1.0
C      1  0.5640840000000  0.4373200000000  0.5076240000000 1.0
C      1  0.5107490000000  0.4381180000000  0.5597200000000 1.0
C      1  0.4973670000000  0.5431110000000  0.5384660000000 1.0
C      1  0.4695100000000  0.5450950000000  0.5094680000000 1.0
C      1  0.4838360000000  0.5401700000000  0.4716120000000 1.0
C      1  0.5269800000000  0.5347580000000  0.4699470000000 1.0
C      1  0.5283810000000  0.5417100000000  0.5149400000000 1.0
C      1  0.5994300000000  0.4656010000000  0.5210010000000 1.0
C      1  0.5126700000000  0.4628140000000  0.6010410000000 1.0
C      1  0.4036050000000  0.4641900000000  0.5373340000000 1.0
C      1  0.4335460000000  0.4649690000000  0.4248160000000 1.0
C      1  0.5534400000000  0.4633070000000  0.4099190000000 1.0
C      1  0.5277490000000  0.5119880000000  0.4882100000000 1.0
C      1  0.5067960000000  0.4995700000000  0.5305510000000 1.0
C      1  0.4653100000000  0.5031190000000  0.5162500000000 1.0
C      1  0.4704110000000  0.5034210000000  0.4876830000000 1.0
C      1  0.5052900000000  0.4917000000000  0.4629070000000 1.0
C      1  0.4611650000000  0.5647780000000  0.5762730000000 1.0
C      1  0.4144220000000  0.5638940000000  0.4877240000000 1.0
C      1  0.4843980000000  0.5638130000000  0.4173930000000 1.0
C      1  0.5731350000000  0.5626170000000  0.4592080000000 1.0
C      1  0.5599290000000  0.5628160000000  0.5584330000000 1.0
C      1  0.4704680000000  0.4036880000000  0.4733800000000 1.0
C      1  0.5146000000000  0.4036010000000  0.4652410000000 1.0
C      1  0.5392420000000  0.4044260000000  0.5041400000000 1.0
C      1  0.5067070000000  0.4022070000000  0.5370760000000 1.0
C      1  0.4645010000000  0.4036000000000  0.5201400000000 1.0
C      1  0.4787370000000  0.4640800000000  0.3969400000000 1.0
C      1  0.5865150000000  0.4642270000000  0.4481020000000 1.0
C      1  0.5747940000000  0.4652840000000  0.5694130000000 1.0
C      1  0.4620560000000  0.4664160000000  0.5895080000000 1.0
C      1  0.3972900000000  0.4643570000000  0.4861800000000 1.0
C      1  0.5389520000000  0.5093520000000  0.6050320000000 1.0
C      1  0.4086690000000  0.5034970000000  0.5623000000000 1.0
C      1  0.4071520000000  0.5085560000000  0.4378510000000 1.0
C      1  0.5310040000000  0.5029070000000  0.3979140000000 1.0
C      1  0.6101650000000  0.5077810000000  0.4954220000000 1.0
C      1  0.4434840000000  0.5350230000000  0.4134300000000 1.0
C      1  0.5613470000000  0.5322220000000  0.4224140000000 1.0
C      1  0.5953560000000  0.5326040000000  0.5375610000000 1.0
C      1  0.4927520000000  0.5331380000000  0.6034330000000 1.0
C      1  0.4018740000000  0.5339200000000  0.5257730000000 1.0
C      1  0.5288690000000  0.4826520000000  0.5690410000000 1.0
C      1  0.4327260000000  0.4877300000000  0.5620130000000 1.0
C      1  0.4351120000000  0.4819960000000  0.4615350000000 1.0
C      1  0.5149580000000  0.4846020000000  0.4148310000000 1.0
C      1  0.5728450000000  0.4788460000000  0.4904590000000 1.0
C      1  0.5181000000000  0.4893440000000  0.6091520000000 1.0
C      1  0.3929010000000  0.4878450000000  0.5431620000000 1.0
C      1  0.4248780000000  0.4916050000000  0.4214430000000 1.0
C      1  0.5560370000000  0.4887970000000  0.4031360000000 1.0
C      1  0.6070750000000  0.4906710000000  0.5186350000000 1.0
C      1  0.5749240000000  0.4396550000000  0.5521350000000 1.0
C      1  0.4734530000000  0.4385400000000  0.5877760000000 1.0
C      1  0.4080290000000  0.4390130000000  0.4999260000000 1.0
C      1  0.4728250000000  0.4378480000000  0.4116510000000 1.0
C      1  0.5676240000000  0.4405880000000  0.4424760000000 1.0
C      1  0.5907140000000  0.5496180000000  0.4956160000000 1.0
C      1  0.5318620000000  0.5520650000000  0.5884600000000 1.0
C      1  0.4370850000000  0.5419610000000  0.5492630000000 1.0
C      1  0.4330950000000  0.5415700000000  0.4567360000000 1.0
C      1  0.5233280000000  0.5496210000000  0.4068420000000 1.0
C      1  0.5245570000000  0.4292810000000  0.5049870000000 1.0
C      1  0.5036970000000  0.4302010000000  0.5275370000000 1.0
C      1  0.4725600000000  0.4310250000000  0.5142540000000 1.0
C      1  0.4768790000000  0.4317480000000  0.4802600000000 1.0
C      1  0.5100930000000  0.4318090000000  0.4751730000000 1.0
C      1  0.5099150000000  0.5201550000000  0.5492320000000 1.0
C      1  0.4583340000000  0.5267390000000  0.5284660000000 1.0
C      1  0.4601240000000  0.5245110000000  0.4697090000000 1.0
C      1  0.5040570000000  0.5209780000000  0.4544190000000 1.0
C      1  0.5468890000000  0.5195480000000  0.5083350000000 1.0
C      1  0.4473440000000  0.4687750000000  0.5068110000000 1.0
C      1  0.4837340000000  0.4732840000000  0.4560430000000 1.0
C      1  0.5290150000000  0.4661180000000  0.4865170000000 1.0
C      1  0.5436820000000  0.4759080000000  0.5287640000000 1.0
C      1  0.4864470000000  0.4652690000000  0.5452650000000 1.0
C      1  0.4865410000000  0.5564760000000  0.5867100000000 1.0
C      1  0.4128970000000  0.5577770000000  0.5160020000000 1.0
C      1  0.4576140000000  0.5578020000000  0.4236980000000 1.0
C      1  0.5557390000000  0.5561640000000  0.4370450000000 1.0
C      1  0.5780110000000  0.5556440000000  0.5370760000000 1.0
C      1  0.5512390000000  0.4970470000000  0.4551160000000 1.0
C      1  0.5537450000000  0.5025350000000  0.5329040000000 1.0
C      1  0.4760060000000  0.4814280000000  0.5665880000000 1.0
C      1  0.4287920000000  0.4912450000000  0.5053190000000 1.0
C      1  0.4889260000000  0.4853770000000  0.4288990000000 1.0
C      1  0.5338250000000  0.5902300000000  0.5274200000000 1.0
C      1  0.4816050000000  0.5901150000000  0.5429250000000 1.0
C      1  0.4528740000000  0.5917230000000  0.4944020000000 1.0
C      1  0.4922820000000  0.5882970000000  0.4583140000000 1.0
C      1  0.5367980000000  0.5891770000000  0.4748120000000 1.0
C      1  0.5795120000000  0.4937560000000  0.5689360000000 1.0
C      1  0.4648760000000  0.4993060000000  0.6020250000000 1.0
C      1  0.3902850000000  0.4926230000000  0.4902670000000 1.0
C      1  0.4703760000000  0.4936230000000  0.3947840000000 1.0
C      1  0.5903270000000  0.4925660000000  0.4443760000000 1.0
C      1  0.4911460000000  0.4198410000000  0.4263720000000 1.0
C      1  0.5634230000000  0.4198850000000  0.4633390000000 1.0
C      1  0.5534360000000  0.4196830000000  0.5514590000000 1.0
C      1  0.4665170000000  0.4201220000000  0.5668450000000 1.0
C      1  0.4262760000000  0.4188740000000  0.4887130000000 1.0
C      1  0.5476470000000  0.4624820000000  0.5792070000000 1.0
C      1  0.4375130000000  0.4617150000000  0.5736610000000 1.0
C      1  0.4157120000000  0.4607240000000  0.4645250000000 1.0
C      1  0.5061690000000  0.4605210000000  0.4030780000000 1.0
C      1  0.5887580000000  0.4596540000000  0.4764000000000 1.0
C      1  0.4753470000000  0.6105350000000  0.4962780000000 1.0
C      1  0.4951380000000  0.6100140000000  0.4760140000000 1.0
C      1  0.5206670000000  0.6108260000000  0.4869590000000 1.0
C      1  0.5170330000000  0.6108150000000  0.5158560000000 1.0
C      1  0.4883820000000  0.6094810000000  0.5220830000000 1.0
C      1  0.5111250000000  0.5687190000000  0.5764380000000 1.0
C      1  0.4366430000000  0.5690110000000  0.5339000000000 1.0
C      1  0.4483510000000  0.5672190000000  0.4527990000000 1.0
C      1  0.5298420000000  0.5669120000000  0.4281820000000 1.0
C      1  0.5714150000000  0.5635910000000  0.5102830000000 1.0
C      1  0.5365760000000  0.4013170000000  0.5339110000000 1.0
C      1  0.4785590000000  0.4014000000000  0.5465430000000 1.0
C      1  0.4496590000000  0.4006680000000  0.4942000000000 1.0
C      1  0.4894880000000  0.4018820000000  0.4495840000000 1.0
C      1  0.5423830000000  0.4017080000000  0.4740230000000 1.0
C      1  0.5045340000000  0.4993680000000  0.5019020000000 1.0
C      1  0.5029610000000  0.4676840000000  0.4977460000000 1.0
C      1  0.4991330000000  0.5423760000000  0.5091410000000 1.0
END
