TITL C-2441159-1093-881 0.00156057557056761 125000 -4236.51127287188 0 0 30 (C1) n - 1
REM
REM in /home/bkarasulu/work/CARBON/AIRSS/Generating-Clusters/ReaxFF-fromJPCA2015/Units_Real/with-SteepDescent/Higher-Symm
REM
REM
REM
REM
REM
REM ./C.cell (1df0a924f5614ab8850e4351716899ee)
REM
REM compiler GCC version 9.2.1 20190827 (Red Hat 9.2.1-1)
REM options -cpp -mtune=generic -march=x86-64 -g -O0 -fpre-include=/usr/include/finclude/math-vector-fortran.h
REM seed 68967839 -1896151360 1818816720 1974416504 214300664 -619151559 1280413744 1260007416 1678873239 286873765 363534536 1010480202 -374382385 -1041734750 2121804776 932085892 1673420176 -386498712 -1026093605 895291809 293677540 -175468824 -598972223 -382431601 1824567701 -577248840 1438196733 -1289536145 2061819833 -1074928179 473304740 1059804036 1334824492
REM
CELL 1.54180   50.00000   50.00000   50.00000   90.00000   90.00000   90.00000
LATT -1
SFAC C  
C      1  0.4570930000000  0.5257470000000  0.5307180000000 1.0
C      1  0.5075760000000  0.5047420000000  0.5006170000000 1.0
C      1  0.5316890000000  0.5588380000000  0.4792780000000 1.0
C      1  0.4540310000000  0.5512980000000  0.5287270000000 1.0
C      1  0.5153610000000  0.4305080000000  0.5141440000000 1.0
C      1  0.4838890000000  0.5432290000000  0.4603980000000 1.0
C      1  0.4499550000000  0.5121900000000  0.4795110000000 1.0
C      1  0.4863230000000  0.4586640000000  0.4809340000000 1.0
C      1  0.5255850000000  0.4567650000000  0.5285360000000 1.0
C      1  0.5485840000000  0.4819670000000  0.4864790000000 1.0
C      1  0.4859610000000  0.4859510000000  0.4970240000000 1.0
C      1  0.5434110000000  0.5328400000000  0.5221610000000 1.0
C      1  0.4668640000000  0.5213990000000  0.4567310000000 1.0
C      1  0.5424960000000  0.5349250000000  0.4919650000000 1.0
C      1  0.4655160000000  0.4820640000000  0.5171520000000 1.0
C      1  0.5381250000000  0.4687000000000  0.5079210000000 1.0
C      1  0.5048500000000  0.5159730000000  0.5524560000000 1.0
C      1  0.5023270000000  0.4373930000000  0.4896470000000 1.0
C      1  0.5291680000000  0.5085010000000  0.4795940000000 1.0
C      1  0.5115570000000  0.5470290000000  0.4583830000000 1.0
C      1  0.5166210000000  0.5192060000000  0.5247310000000 1.0
C      1  0.4490790000000  0.5045580000000  0.5075160000000 1.0
C      1  0.4912830000000  0.5064180000000  0.4431730000000 1.0
C      1  0.5160680000000  0.5185970000000  0.4535580000000 1.0
C      1  0.5076810000000  0.4717560000000  0.5478710000000 1.0
C      1  0.4955160000000  0.4786990000000  0.4457570000000 1.0
C      1  0.4983940000000  0.4563760000000  0.4560430000000 1.0
C      1  0.4765040000000  0.5106430000000  0.5497250000000 1.0
C      1  0.5191180000000  0.4921410000000  0.5659620000000 1.0
C      1  0.4793760000000  0.4828830000000  0.5432870000000 1.0
END
