TITL C-2441161-5029-1209 0.0478522631406272 125000 -22598.8654205426 0 0 159 (C1) n - 1
REM
REM in /home/bkarasulu/work/CARBON/AIRSS/Generating-Clusters/ReaxFF-fromJPCA2015/Units_Real/with-SteepDescent/Higher-Symm
REM
REM
REM
REM
REM
REM ./C.cell (1df0a924f5614ab8850e4351716899ee)
REM
REM compiler GCC version 9.2.1 20190827 (Red Hat 9.2.1-1)
REM options -cpp -mtune=generic -march=x86-64 -g -O0 -fpre-include=/usr/include/finclude/math-vector-fortran.h
REM seed 500499248 1006091 -1226163662 866473054 1376004358 177851215 1561433396 1783112221 1060668105 -1268510358 -639317542 960456674 -1014724578 -892447452 1379127925 -2114907884 169804810 -458677515 2011686786 -669587328 -1958467424 -1919756100 434801037 -567238104 1499898271 -753875608 -1025958943 707058366 1992916243 -1566212882 1729163794 1339437126 170294740
REM
CELL 1.54180   50.00000   50.00000   50.00000   90.00000   90.00000   90.00000
LATT -1
SFAC C  
C      1  0.6020180000000  0.5293550000000  0.4971980000000 1.0
C      1  0.4019950000000  0.5223360000000  0.5021250000000 1.0
C      1  0.5806500000000  0.4556800000000  0.5483090000000 1.0
C      1  0.4093140000000  0.4720540000000  0.5355580000000 1.0
C      1  0.5707300000000  0.4538220000000  0.4372070000000 1.0
C      1  0.4312550000000  0.4527510000000  0.4434700000000 1.0
C      1  0.5569760000000  0.4101280000000  0.5293890000000 1.0
C      1  0.4386410000000  0.4197930000000  0.5351920000000 1.0
C      1  0.5605710000000  0.5326630000000  0.4897130000000 1.0
C      1  0.4461780000000  0.5339360000000  0.4931580000000 1.0
C      1  0.5366630000000  0.4768450000000  0.4873860000000 1.0
C      1  0.4664740000000  0.4758570000000  0.4875280000000 1.0
C      1  0.5126220000000  0.4925740000000  0.4481310000000 1.0
C      1  0.4886930000000  0.4783010000000  0.4533160000000 1.0
C      1  0.4271900000000  0.5516210000000  0.4341320000000 1.0
C      1  0.5808060000000  0.5589090000000  0.4476610000000 1.0
C      1  0.4444230000000  0.4739450000000  0.5763090000000 1.0
C      1  0.5585930000000  0.4759850000000  0.5771950000000 1.0
C      1  0.4724500000000  0.5859140000000  0.4836500000000 1.0
C      1  0.5260060000000  0.5866740000000  0.4839880000000 1.0
C      1  0.5095760000000  0.4752330000000  0.5865920000000 1.0
C      1  0.4876830000000  0.4785370000000  0.6045560000000 1.0
C      1  0.5302720000000  0.5735320000000  0.5287470000000 1.0
C      1  0.4600290000000  0.5651020000000  0.5252040000000 1.0
C      1  0.4845150000000  0.5757340000000  0.5599340000000 1.0
C      1  0.5085260000000  0.5596400000000  0.5670650000000 1.0
C      1  0.4926750000000  0.5543820000000  0.4261700000000 1.0
C      1  0.5213590000000  0.5592500000000  0.4248360000000 1.0
C      1  0.4123620000000  0.4953450000000  0.4914150000000 1.0
C      1  0.5948350000000  0.5006140000000  0.4929470000000 1.0
C      1  0.5078120000000  0.3960930000000  0.4746640000000 1.0
C      1  0.4800750000000  0.3987450000000  0.4818850000000 1.0
C      1  0.5201520000000  0.4962070000000  0.5370720000000 1.0
C      1  0.4913880000000  0.4930650000000  0.5388770000000 1.0
C      1  0.5659220000000  0.4973490000000  0.4179660000000 1.0
C      1  0.4285660000000  0.4914700000000  0.4099190000000 1.0
C      1  0.4737240000000  0.5732130000000  0.4386010000000 1.0
C      1  0.5335960000000  0.5807290000000  0.4396970000000 1.0
C      1  0.4833730000000  0.5486170000000  0.5150440000000 1.0
C      1  0.5146350000000  0.5493980000000  0.5156060000000 1.0
C      1  0.5770880000000  0.4637040000000  0.4653850000000 1.0
C      1  0.4220300000000  0.4639860000000  0.4683700000000 1.0
C      1  0.4311720000000  0.5002430000000  0.4703860000000 1.0
C      1  0.5852330000000  0.4909930000000  0.4674580000000 1.0
C      1  0.5490370000000  0.5166020000000  0.4047880000000 1.0
C      1  0.4461940000000  0.5140820000000  0.4036900000000 1.0
C      1  0.4322470000000  0.5321640000000  0.5524200000000 1.0
C      1  0.5608870000000  0.5362190000000  0.5576660000000 1.0
C      1  0.5702970000000  0.4405610000000  0.4822130000000 1.0
C      1  0.4284090000000  0.4423390000000  0.4861690000000 1.0
C      1  0.5216540000000  0.5016280000000  0.4758910000000 1.0
C      1  0.4738630000000  0.5004120000000  0.4711600000000 1.0
C      1  0.5313870000000  0.5065930000000  0.5995770000000 1.0
C      1  0.4719740000000  0.5009970000000  0.6070010000000 1.0
C      1  0.4742210000000  0.5091560000000  0.4020830000000 1.0
C      1  0.5221040000000  0.5059540000000  0.4021790000000 1.0
C      1  0.5416760000000  0.4284300000000  0.4811970000000 1.0
C      1  0.4601340000000  0.4345980000000  0.4807370000000 1.0
C      1  0.5291290000000  0.4595170000000  0.4102490000000 1.0
C      1  0.4690990000000  0.4607010000000  0.4108900000000 1.0
C      1  0.4078010000000  0.4338590000000  0.5054200000000 1.0
C      1  0.5897840000000  0.4332320000000  0.5019220000000 1.0
C      1  0.4878460000000  0.5252250000000  0.4231970000000 1.0
C      1  0.5108030000000  0.5107040000000  0.4274100000000 1.0
C      1  0.5055840000000  0.5318110000000  0.5646140000000 1.0
C      1  0.4804730000000  0.5161280000000  0.5600420000000 1.0
C      1  0.4899420000000  0.4247420000000  0.5512110000000 1.0
C      1  0.5183760000000  0.4238610000000  0.5596670000000 1.0
C      1  0.5129350000000  0.4793990000000  0.3953660000000 1.0
C      1  0.4840020000000  0.4816790000000  0.3976760000000 1.0
C      1  0.5431460000000  0.5386010000000  0.4235900000000 1.0
C      1  0.4476430000000  0.5316960000000  0.4274400000000 1.0
C      1  0.5728260000000  0.5756650000000  0.5018170000000 1.0
C      1  0.4228280000000  0.5731450000000  0.4935330000000 1.0
C      1  0.4565300000000  0.5220300000000  0.5424420000000 1.0
C      1  0.5563660000000  0.5152100000000  0.5405370000000 1.0
C      1  0.5563970000000  0.4706550000000  0.4177710000000 1.0
C      1  0.4424480000000  0.4673390000000  0.4180500000000 1.0
C      1  0.5160370000000  0.4493840000000  0.5749830000000 1.0
C      1  0.4857170000000  0.4447430000000  0.5723010000000 1.0
C      1  0.5340090000000  0.3964190000000  0.5201900000000 1.0
C      1  0.4580730000000  0.4051880000000  0.5238810000000 1.0
C      1  0.5256540000000  0.5248850000000  0.5838240000000 1.0
C      1  0.4721080000000  0.5207830000000  0.5881240000000 1.0
C      1  0.5364430000000  0.4072630000000  0.5467690000000 1.0
C      1  0.4611610000000  0.4144520000000  0.5513840000000 1.0
C      1  0.5942880000000  0.4387690000000  0.5296690000000 1.0
C      1  0.3979530000000  0.4458170000000  0.5300270000000 1.0
C      1  0.4863870000000  0.5914060000000  0.4572010000000 1.0
C      1  0.5149150000000  0.5942570000000  0.4567780000000 1.0
C      1  0.5145170000000  0.4397850000000  0.4233120000000 1.0
C      1  0.4878380000000  0.4393190000000  0.4230110000000 1.0
C      1  0.4116440000000  0.4212910000000  0.5299850000000 1.0
C      1  0.5833090000000  0.4152700000000  0.5226660000000 1.0
C      1  0.5517350000000  0.5191260000000  0.5134210000000 1.0
C      1  0.4558870000000  0.5174560000000  0.5154420000000 1.0
C      1  0.4181650000000  0.5440600000000  0.4906910000000 1.0
C      1  0.5829160000000  0.5508070000000  0.4881780000000 1.0
C      1  0.4841590000000  0.5122810000000  0.5143840000000 1.0
C      1  0.5238700000000  0.5185010000000  0.5192970000000 1.0
C      1  0.5546450000000  0.4765500000000  0.5099190000000 1.0
C      1  0.4538800000000  0.4730520000000  0.5127640000000 1.0
C      1  0.5517650000000  0.5280120000000  0.4481410000000 1.0
C      1  0.4396930000000  0.5093980000000  0.4456010000000 1.0
C      1  0.4849110000000  0.5527360000000  0.4844180000000 1.0
C      1  0.5162250000000  0.5546310000000  0.4855860000000 1.0
C      1  0.4671450000000  0.5315380000000  0.4739720000000 1.0
C      1  0.5366240000000  0.5319810000000  0.4730020000000 1.0
C      1  0.4858270000000  0.4162590000000  0.4393350000000 1.0
C      1  0.5109140000000  0.4068210000000  0.4474410000000 1.0
C      1  0.4587920000000  0.4767600000000  0.6012970000000 1.0
C      1  0.5356860000000  0.4787060000000  0.5965150000000 1.0
C      1  0.4129000000000  0.5034660000000  0.4325200000000 1.0
C      1  0.5760590000000  0.5100780000000  0.4443810000000 1.0
C      1  0.4140590000000  0.5451000000000  0.5338050000000 1.0
C      1  0.6005000000000  0.5299330000000  0.5495920000000 1.0
C      1  0.4048530000000  0.5318980000000  0.4375940000000 1.0
C      1  0.5958110000000  0.5367750000000  0.4407290000000 1.0
C      1  0.3998610000000  0.5211970000000  0.5316540000000 1.0
C      1  0.6034120000000  0.5293050000000  0.5244970000000 1.0
C      1  0.4727960000000  0.4653280000000  0.5342690000000 1.0
C      1  0.5352730000000  0.4678980000000  0.5325970000000 1.0
C      1  0.5566750000000  0.5863360000000  0.4807670000000 1.0
C      1  0.4430120000000  0.5821070000000  0.4745850000000 1.0
C      1  0.4653300000000  0.4126780000000  0.4600910000000 1.0
C      1  0.5388280000000  0.4142500000000  0.4535600000000 1.0
C      1  0.4269380000000  0.4804050000000  0.5135750000000 1.0
C      1  0.5797910000000  0.4893000000000  0.5163340000000 1.0
C      1  0.4836420000000  0.5995260000000  0.5084040000000 1.0
C      1  0.5118410000000  0.6038510000000  0.5044790000000 1.0
C      1  0.4727440000000  0.4179620000000  0.5025500000000 1.0
C      1  0.5289890000000  0.4039290000000  0.4932010000000 1.0
C      1  0.5828140000000  0.5225130000000  0.5704860000000 1.0
C      1  0.4290060000000  0.5249930000000  0.5809090000000 1.0
C      1  0.5566530000000  0.4304860000000  0.4423010000000 1.0
C      1  0.4367160000000  0.4245990000000  0.4485640000000 1.0
C      1  0.5387460000000  0.5447340000000  0.5912650000000 1.0
C      1  0.4525730000000  0.5416850000000  0.5864520000000 1.0
C      1  0.4057420000000  0.4968980000000  0.5502000000000 1.0
C      1  0.5889840000000  0.4834740000000  0.5439520000000 1.0
C      1  0.5156960000000  0.4505600000000  0.5155740000000 1.0
C      1  0.4895170000000  0.4411500000000  0.5228610000000 1.0
C      1  0.5787640000000  0.4943810000000  0.5684060000000 1.0
C      1  0.4253530000000  0.4969450000000  0.5714710000000 1.0
C      1  0.5182440000000  0.4538310000000  0.4866340000000 1.0
C      1  0.4855560000000  0.4579990000000  0.4744240000000 1.0
C      1  0.5590030000000  0.5771610000000  0.5281130000000 1.0
C      1  0.4376280000000  0.5812950000000  0.5177010000000 1.0
C      1  0.5371130000000  0.5672290000000  0.5747100000000 1.0
C      1  0.4589850000000  0.5655450000000  0.5689990000000 1.0
C      1  0.4613000000000  0.4552390000000  0.5608780000000 1.0
C      1  0.5524480000000  0.4569080000000  0.5564810000000 1.0
C      1  0.4400780000000  0.5709620000000  0.5469000000000 1.0
C      1  0.5599590000000  0.5664770000000  0.5556860000000 1.0
C      1  0.4894840000000  0.5941860000000  0.5375310000000 1.0
C      1  0.5170650000000  0.5975780000000  0.5309440000000 1.0
C      1  0.5606040000000  0.5784110000000  0.4532690000000 1.0
C      1  0.4455080000000  0.5709350000000  0.4480290000000 1.0
C      1  0.4958250000000  0.5047180000000  0.4895580000000 1.0
END
