TITL C-2441159-1093-1013 3.51497049025332e-09 125000 -1383.01624327338 0 0 11 (C2) n - 1
REM
REM in /home/bkarasulu/work/CARBON/AIRSS/Generating-Clusters/ReaxFF-fromJPCA2015/Units_Real/with-SteepDescent/Higher-Symm
REM
REM
REM
REM
REM
REM ./C.cell (1df0a924f5614ab8850e4351716899ee)
REM
REM compiler GCC version 9.2.1 20190827 (Red Hat 9.2.1-1)
REM options -cpp -mtune=generic -march=x86-64 -g -O0 -fpre-include=/usr/include/finclude/math-vector-fortran.h
REM seed 438289175 -229239353 394039030 -1259871678 1645945269 -47074470 2050715925 -566823811 1207756557 657934643 -580815804 1697640751 891792473 403279625 -1277944776 413422518 710830939 527552153 -150295387 1399240916 425812074 358272494 117876007 -1184958491 -930492718 -1226040224 98103016 841077072 2023703724 -342187395 -462707343 -504766763 -1783175878
REM
CELL 1.54180   50.00000   50.00000   50.00000   90.00000   90.00000   90.00000
LATT -1
SFAC C  
C      1  0.5400540000000  0.4998740000000  0.4844090000000 1.0
C      1  0.4669200000000  0.4998740000000  0.5171550000000 1.0
C      1  0.5590220000000  0.4873190000000  0.4737260000000 1.0
C      1  0.4479520000000  0.4873190000000  0.5278380000000 1.0
C      1  0.4918190000000  0.5334400000000  0.5060320000000 1.0
C      1  0.5151550000000  0.5334400000000  0.4955320000000 1.0
C      1  0.5405580000000  0.5329270000000  0.4840990000000 1.0
C      1  0.4664160000000  0.5329270000000  0.5174650000000 1.0
C      1  0.5180720000000  0.4842770000000  0.5018680000000 1.0
C      1  0.4889030000000  0.4842770000000  0.4996960000000 1.0
C      1  0.5034870000000  0.4609030000000  0.5007820000000 1.0
END
