TITL C-2441166-8118-1397 0.0148758081061828 125000 -3299.47982425826 0 0 27 (C1) n - 1
REM
REM in /home/bkarasulu/work/CARBON/AIRSS/Generating-Clusters/ReaxFF-fromJPCA2015/Units_Real/with-SteepDescent/Higher-Symm
REM
REM
REM
REM
REM
REM ./C.cell (1df0a924f5614ab8850e4351716899ee)
REM
REM compiler GCC version 9.2.1 20190827 (Red Hat 9.2.1-1)
REM options -cpp -mtune=generic -march=x86-64 -g -O0 -fpre-include=/usr/include/finclude/math-vector-fortran.h
REM seed 574058822 -1874085425 -1196388553 -822138468 1214392255 -867681442 -192183854 263031294 -107364757 2056502764 -2000457163 21658172 674395470 829807003 -921227540 -1230896879 2089294147 -639212541 1088959476 1896566763 1391050568 1118732404 -1963586774 724942248 1004491523 1504224490 1976610743 1765909975 -703245341 -2059548656 -23916652 -819653478 -508056068
REM
CELL 1.54180   50.00000   50.00000   50.00000   90.00000   90.00000   90.00000
LATT -1
SFAC C  
C      1  0.5076920000000  0.5429920000000  0.4611190000000 1.0
C      1  0.4933430000000  0.4657630000000  0.5452340000000 1.0
C      1  0.4820790000000  0.4416130000000  0.5368170000000 1.0
C      1  0.4787920000000  0.5160960000000  0.5385420000000 1.0
C      1  0.5471950000000  0.4822150000000  0.4903410000000 1.0
C      1  0.4777480000000  0.5389230000000  0.5361710000000 1.0
C      1  0.4604520000000  0.5074770000000  0.4482570000000 1.0
C      1  0.5707590000000  0.4949170000000  0.4922150000000 1.0
C      1  0.4664470000000  0.5071690000000  0.4723500000000 1.0
C      1  0.5559120000000  0.5438680000000  0.5162900000000 1.0
C      1  0.4956600000000  0.5595270000000  0.4815120000000 1.0
C      1  0.4416730000000  0.5002780000000  0.4933420000000 1.0
C      1  0.5255030000000  0.4812370000000  0.5153600000000 1.0
C      1  0.5059140000000  0.5505940000000  0.5098180000000 1.0
C      1  0.5385400000000  0.5006760000000  0.4695150000000 1.0
C      1  0.4720780000000  0.4458710000000  0.5135660000000 1.0
C      1  0.5027180000000  0.4978540000000  0.5094340000000 1.0
C      1  0.5324660000000  0.5500850000000  0.5181950000000 1.0
C      1  0.5244830000000  0.4686140000000  0.5413830000000 1.0
C      1  0.5162920000000  0.5138070000000  0.4599070000000 1.0
C      1  0.4836290000000  0.4897510000000  0.5299410000000 1.0
C      1  0.4958800000000  0.5536070000000  0.5344110000000 1.0
C      1  0.4956620000000  0.4660600000000  0.4722960000000 1.0
C      1  0.4973900000000  0.4982870000000  0.4784920000000 1.0
C      1  0.4504300000000  0.4737860000000  0.4920710000000 1.0
C      1  0.5109340000000  0.4540290000000  0.4563200000000 1.0
C      1  0.4703300000000  0.4549030000000  0.4871010000000 1.0
END
