TITL C-2441161-5029-992 0.14696588702685 125000 -21550.1042179423 0 0 171 (C1) n - 1
REM
REM in /home/bkarasulu/work/CARBON/AIRSS/Generating-Clusters/ReaxFF-fromJPCA2015/Units_Real/with-SteepDescent/Higher-Symm
REM
REM
REM
REM
REM
REM ./C.cell (1df0a924f5614ab8850e4351716899ee)
REM
REM compiler GCC version 9.2.1 20190827 (Red Hat 9.2.1-1)
REM options -cpp -mtune=generic -march=x86-64 -g -O0 -fpre-include=/usr/include/finclude/math-vector-fortran.h
REM seed 1306584521 -883177021 411812471 490717831 78561778 783869941 1144159530 836465158 -272551386 1184170695 -373909323 -1794194400 860089160 -1072344934 1773291571 -776445478 -1703879177 -1969193999 2118038812 1730815147 -1263070715 -227531695 1110608126 1467048757 867076484 -1378763875 -1147646999 -2055503035 -644464472 1757688650 824359045 -1829512008 1070098290
REM
CELL 1.54180   50.00000   50.00000   50.00000   90.00000   90.00000   90.00000
LATT -1
SFAC C  
C      1  0.4529290000000  0.5716830000000  0.5780330000000 1.0
C      1  0.4520940000000  0.5691660000000  0.4185830000000 1.0
C      1  0.5118920000000  0.4757100000000  0.5678620000000 1.0
C      1  0.5222150000000  0.4748820000000  0.4261730000000 1.0
C      1  0.4987090000000  0.4914550000000  0.5082180000000 1.0
C      1  0.5033800000000  0.4940430000000  0.4808500000000 1.0
C      1  0.5030150000000  0.5257080000000  0.5981700000000 1.0
C      1  0.5022670000000  0.5235180000000  0.4078560000000 1.0
C      1  0.4527510000000  0.4979570000000  0.5280120000000 1.0
C      1  0.4503860000000  0.4963270000000  0.4740330000000 1.0
C      1  0.5334620000000  0.4887850000000  0.5523500000000 1.0
C      1  0.5336510000000  0.4924700000000  0.4452450000000 1.0
C      1  0.5923080000000  0.4716270000000  0.4849400000000 1.0
C      1  0.5865700000000  0.4737540000000  0.5139500000000 1.0
C      1  0.4826960000000  0.4035640000000  0.4668120000000 1.0
C      1  0.4843940000000  0.4019690000000  0.5331010000000 1.0
C      1  0.4666990000000  0.5443450000000  0.4150880000000 1.0
C      1  0.4579870000000  0.5419790000000  0.5856060000000 1.0
C      1  0.4694840000000  0.5223520000000  0.5155700000000 1.0
C      1  0.4697720000000  0.5225200000000  0.4850010000000 1.0
C      1  0.4262850000000  0.4808750000000  0.4921830000000 1.0
C      1  0.4252170000000  0.4808610000000  0.5213180000000 1.0
C      1  0.4987070000000  0.5193540000000  0.4778440000000 1.0
C      1  0.5063500000000  0.5154190000000  0.5201640000000 1.0
C      1  0.4878680000000  0.5130100000000  0.5569460000000 1.0
C      1  0.4897730000000  0.5095970000000  0.4391200000000 1.0
C      1  0.5635280000000  0.5342070000000  0.5481570000000 1.0
C      1  0.5641190000000  0.5344800000000  0.4507400000000 1.0
C      1  0.4748230000000  0.5229150000000  0.6012820000000 1.0
C      1  0.4745760000000  0.5233030000000  0.3971120000000 1.0
C      1  0.5262710000000  0.3980330000000  0.4860150000000 1.0
C      1  0.5263380000000  0.3975230000000  0.5148460000000 1.0
C      1  0.4765970000000  0.4122930000000  0.4391890000000 1.0
C      1  0.4776150000000  0.4095480000000  0.5605530000000 1.0
C      1  0.4705730000000  0.4787540000000  0.4876090000000 1.0
C      1  0.4734680000000  0.4807440000000  0.5114970000000 1.0
C      1  0.4955650000000  0.4549940000000  0.4521620000000 1.0
C      1  0.4924820000000  0.4470410000000  0.5434720000000 1.0
C      1  0.5162120000000  0.5638480000000  0.5115550000000 1.0
C      1  0.5290520000000  0.5554590000000  0.4850080000000 1.0
C      1  0.4858090000000  0.4858500000000  0.5583280000000 1.0
C      1  0.4943790000000  0.4844320000000  0.4558090000000 1.0
C      1  0.5486830000000  0.4990900000000  0.6005920000000 1.0
C      1  0.5500340000000  0.4984980000000  0.3979650000000 1.0
C      1  0.5023360000000  0.4140900000000  0.4856800000000 1.0
C      1  0.5036450000000  0.4157590000000  0.5152640000000 1.0
C      1  0.4427990000000  0.5017980000000  0.5808200000000 1.0
C      1  0.4452310000000  0.4994500000000  0.4232700000000 1.0
C      1  0.5475120000000  0.5834420000000  0.4600370000000 1.0
C      1  0.5483640000000  0.5832840000000  0.5404820000000 1.0
C      1  0.5622290000000  0.4274130000000  0.5148460000000 1.0
C      1  0.5618740000000  0.4284350000000  0.4863180000000 1.0
C      1  0.4698740000000  0.6012790000000  0.4821110000000 1.0
C      1  0.4754880000000  0.5969710000000  0.5100110000000 1.0
C      1  0.5129160000000  0.5526800000000  0.5913870000000 1.0
C      1  0.5096630000000  0.5536780000000  0.4114280000000 1.0
C      1  0.5505210000000  0.5353290000000  0.4280530000000 1.0
C      1  0.5489620000000  0.5327710000000  0.5697940000000 1.0
C      1  0.4700020000000  0.4561070000000  0.5280970000000 1.0
C      1  0.4620670000000  0.4558230000000  0.4727640000000 1.0
C      1  0.5567040000000  0.4383410000000  0.4296090000000 1.0
C      1  0.5573760000000  0.4371740000000  0.5694190000000 1.0
C      1  0.4648180000000  0.4510510000000  0.5801770000000 1.0
C      1  0.4656990000000  0.4520620000000  0.4176470000000 1.0
C      1  0.4367240000000  0.5690440000000  0.5532060000000 1.0
C      1  0.4362110000000  0.5677270000000  0.4449700000000 1.0
C      1  0.4428490000000  0.4448120000000  0.5607730000000 1.0
C      1  0.4416430000000  0.4469800000000  0.4351670000000 1.0
C      1  0.4343170000000  0.5275020000000  0.5754290000000 1.0
C      1  0.4274660000000  0.5228570000000  0.4278980000000 1.0
C      1  0.5187090000000  0.4407040000000  0.5344440000000 1.0
C      1  0.5217780000000  0.4464870000000  0.4586550000000 1.0
C      1  0.4887350000000  0.4336690000000  0.5734470000000 1.0
C      1  0.4885940000000  0.4344330000000  0.4252150000000 1.0
C      1  0.5695140000000  0.4556720000000  0.4480380000000 1.0
C      1  0.5704620000000  0.4552180000000  0.5518370000000 1.0
C      1  0.5298730000000  0.5928770000000  0.5180560000000 1.0
C      1  0.5316410000000  0.5956520000000  0.4817660000000 1.0
C      1  0.4625680000000  0.4972340000000  0.5995640000000 1.0
C      1  0.4616230000000  0.4985830000000  0.4010030000000 1.0
C      1  0.5495050000000  0.4850540000000  0.4827790000000 1.0
C      1  0.5570870000000  0.4835420000000  0.5109650000000 1.0
C      1  0.4925430000000  0.5572200000000  0.5509580000000 1.0
C      1  0.4905960000000  0.5592330000000  0.4542410000000 1.0
C      1  0.4345550000000  0.4405150000000  0.5089490000000 1.0
C      1  0.4310720000000  0.4541980000000  0.4816090000000 1.0
C      1  0.5300990000000  0.4635390000000  0.4793380000000 1.0
C      1  0.5368750000000  0.4705950000000  0.5290920000000 1.0
C      1  0.5780540000000  0.4484060000000  0.5260690000000 1.0
C      1  0.5780990000000  0.4495180000000  0.4744170000000 1.0
C      1  0.4759500000000  0.4747720000000  0.4043760000000 1.0
C      1  0.4754990000000  0.4721670000000  0.5960180000000 1.0
C      1  0.5588650000000  0.5153310000000  0.4733380000000 1.0
C      1  0.5586190000000  0.5156830000000  0.5244800000000 1.0
C      1  0.5385170000000  0.5295530000000  0.4881720000000 1.0
C      1  0.5328420000000  0.5211930000000  0.5120690000000 1.0
C      1  0.5344100000000  0.5795140000000  0.5665060000000 1.0
C      1  0.5320310000000  0.5798930000000  0.4348880000000 1.0
C      1  0.5176230000000  0.4298590000000  0.4202310000000 1.0
C      1  0.5183070000000  0.4316820000000  0.5797700000000 1.0
C      1  0.4145250000000  0.5297900000000  0.4857450000000 1.0
C      1  0.4153570000000  0.5315910000000  0.5153280000000 1.0
C      1  0.4501310000000  0.4203340000000  0.4471500000000 1.0
C      1  0.4511200000000  0.4177570000000  0.5516770000000 1.0
C      1  0.4196610000000  0.4583870000000  0.4532320000000 1.0
C      1  0.4296080000000  0.4532880000000  0.5342510000000 1.0
C      1  0.5855050000000  0.5547770000000  0.5144730000000 1.0
C      1  0.5849000000000  0.5543150000000  0.4848090000000 1.0
C      1  0.5202920000000  0.5032020000000  0.3955250000000 1.0
C      1  0.5192660000000  0.5020180000000  0.6040250000000 1.0
C      1  0.5048250000000  0.4780350000000  0.5959740000000 1.0
C      1  0.5049420000000  0.4805650000000  0.4032010000000 1.0
C      1  0.5643860000000  0.5150440000000  0.4154250000000 1.0
C      1  0.5606150000000  0.5200850000000  0.5858160000000 1.0
C      1  0.4551140000000  0.4098380000000  0.4745520000000 1.0
C      1  0.4579640000000  0.4070420000000  0.5251370000000 1.0
C      1  0.4098540000000  0.4860190000000  0.4495710000000 1.0
C      1  0.4088380000000  0.4986300000000  0.5553870000000 1.0
C      1  0.5056780000000  0.5738170000000  0.5718060000000 1.0
C      1  0.5028770000000  0.5752390000000  0.4307830000000 1.0
C      1  0.4576790000000  0.5515120000000  0.4847400000000 1.0
C      1  0.4603420000000  0.5510840000000  0.5153140000000 1.0
C      1  0.6101190000000  0.5033750000000  0.5526110000000 1.0
C      1  0.6098290000000  0.5034320000000  0.4483990000000 1.0
C      1  0.4577480000000  0.5871010000000  0.4401880000000 1.0
C      1  0.4595870000000  0.5885770000000  0.5564150000000 1.0
C      1  0.5902780000000  0.4954060000000  0.5407500000000 1.0
C      1  0.5918660000000  0.4921740000000  0.4628990000000 1.0
C      1  0.4183710000000  0.4967780000000  0.4258270000000 1.0
C      1  0.4207020000000  0.4895550000000  0.5735350000000 1.0
C      1  0.5031740000000  0.4577650000000  0.4930460000000 1.0
C      1  0.5134090000000  0.4732900000000  0.5143020000000 1.0
C      1  0.5468250000000  0.4091730000000  0.5311150000000 1.0
C      1  0.5456270000000  0.4116450000000  0.4702870000000 1.0
C      1  0.4035790000000  0.5078510000000  0.4691400000000 1.0
C      1  0.3987920000000  0.5138980000000  0.5334370000000 1.0
C      1  0.5349370000000  0.4237080000000  0.4438110000000 1.0
C      1  0.5353980000000  0.4221840000000  0.5564540000000 1.0
C      1  0.4553390000000  0.4758750000000  0.4528920000000 1.0
C      1  0.4615610000000  0.4767930000000  0.5474650000000 1.0
C      1  0.4378790000000  0.5399720000000  0.5491990000000 1.0
C      1  0.4398150000000  0.5386600000000  0.4486460000000 1.0
C      1  0.5375830000000  0.5580360000000  0.4163580000000 1.0
C      1  0.5408970000000  0.5555160000000  0.5835070000000 1.0
C      1  0.3975120000000  0.4880690000000  0.4888390000000 1.0
C      1  0.3953970000000  0.4899550000000  0.5174540000000 1.0
C      1  0.4815440000000  0.6020570000000  0.5383940000000 1.0
C      1  0.4821770000000  0.6013920000000  0.4552990000000 1.0
C      1  0.5556130000000  0.4738430000000  0.5874350000000 1.0
C      1  0.5607200000000  0.4755140000000  0.4125260000000 1.0
C      1  0.5142370000000  0.5182230000000  0.5474310000000 1.0
C      1  0.5150190000000  0.5205280000000  0.4525720000000 1.0
C      1  0.4846030000000  0.5690550000000  0.5074730000000 1.0
C      1  0.4769680000000  0.5711500000000  0.4798880000000 1.0
C      1  0.5170530000000  0.5487420000000  0.4601390000000 1.0
C      1  0.5165760000000  0.5487620000000  0.5378230000000 1.0
C      1  0.5624180000000  0.4833610000000  0.4418030000000 1.0
C      1  0.5644120000000  0.4826630000000  0.5599760000000 1.0
C      1  0.4706950000000  0.5344780000000  0.4431660000000 1.0
C      1  0.4710740000000  0.5362620000000  0.5566110000000 1.0
C      1  0.5673710000000  0.5610210000000  0.4630540000000 1.0
C      1  0.5669560000000  0.5611910000000  0.5359500000000 1.0
C      1  0.5364750000000  0.4513040000000  0.4121320000000 1.0
C      1  0.5397080000000  0.4490110000000  0.5889410000000 1.0
C      1  0.4287760000000  0.5575840000000  0.5139130000000 1.0
C      1  0.4280430000000  0.5558740000000  0.4833550000000 1.0
C      1  0.5096870000000  0.5980980000000  0.5387080000000 1.0
C      1  0.5088900000000  0.5989420000000  0.4660300000000 1.0
C      1  0.5857310000000  0.5246650000000  0.5148600000000 1.0
C      1  0.5858220000000  0.5247640000000  0.4857970000000 1.0
C      1  0.4531760000000  0.4209960000000  0.5017930000000 1.0
END
