TITL C-2441156-4686-909 0.0189081587174254 125000 -11754.959162857 0 0 83 (C1) n - 1
REM
REM in /home/bkarasulu/work/CARBON/AIRSS/Generating-Clusters/ReaxFF-fromJPCA2015/Units_Real/with-SteepDescent/Higher-Symm
REM
REM
REM
REM
REM
REM ./C.cell (1df0a924f5614ab8850e4351716899ee)
REM
REM compiler GCC version 9.2.1 20190827 (Red Hat 9.2.1-1)
REM options -cpp -mtune=generic -march=x86-64 -g -O0 -fpre-include=/usr/include/finclude/math-vector-fortran.h
REM seed 1982724755 1938334740 994031011 2018165581 1566315137 -2121691975 1047072281 1218426355 -2069339821 -940161412 1327518295 -842493752 2088894073 688928444 -1168686614 1347577397 544516356 -1816855461 889286078 2012726218 -848327292 -18267928 -1880469473 -13829002 1354405813 530290830 -306973221 216864488 1163682646 1370474508 2134752494 871574170 -1237825340
REM
CELL 1.54180   50.00000   50.00000   50.00000   90.00000   90.00000   90.00000
LATT -1
SFAC C  
C      1  0.4420820000000  0.4624800000000  0.4925380000000 1.0
C      1  0.4579590000000  0.4918550000000  0.4450800000000 1.0
C      1  0.4914950000000  0.4423730000000  0.4558550000000 1.0
C      1  0.5562190000000  0.4614880000000  0.5116760000000 1.0
C      1  0.5567240000000  0.5349630000000  0.4946530000000 1.0
C      1  0.4424080000000  0.5372740000000  0.5101040000000 1.0
C      1  0.5382050000000  0.4936200000000  0.5555360000000 1.0
C      1  0.5412430000000  0.5124350000000  0.4357700000000 1.0
C      1  0.4658280000000  0.5077920000000  0.5571610000000 1.0
C      1  0.5071390000000  0.4428750000000  0.5387530000000 1.0
C      1  0.5060150000000  0.5583320000000  0.4630360000000 1.0
C      1  0.4931200000000  0.5572920000000  0.5339390000000 1.0
C      1  0.5063310000000  0.5338040000000  0.4802550000000 1.0
C      1  0.5263490000000  0.4793810000000  0.5091590000000 1.0
C      1  0.4778440000000  0.5060610000000  0.5312870000000 1.0
C      1  0.4933670000000  0.5299070000000  0.5234660000000 1.0
C      1  0.4909700000000  0.4746250000000  0.4795790000000 1.0
C      1  0.5057460000000  0.4703210000000  0.5265540000000 1.0
C      1  0.4661480000000  0.4794080000000  0.4937960000000 1.0
C      1  0.4704120000000  0.5222030000000  0.5090790000000 1.0
C      1  0.5293290000000  0.5267430000000  0.4966210000000 1.0
C      1  0.5193890000000  0.5096560000000  0.4767250000000 1.0
C      1  0.5195380000000  0.4930890000000  0.5333970000000 1.0
C      1  0.4730220000000  0.4936040000000  0.4705200000000 1.0
C      1  0.4600790000000  0.4312680000000  0.4939450000000 1.0
C      1  0.4310910000000  0.4980940000000  0.4563220000000 1.0
C      1  0.5004580000000  0.4596920000000  0.4334600000000 1.0
C      1  0.5467380000000  0.4342300000000  0.5050530000000 1.0
C      1  0.5356840000000  0.5702310000000  0.4908760000000 1.0
C      1  0.4536940000000  0.5654070000000  0.5063800000000 1.0
C      1  0.5661900000000  0.4993910000000  0.5417490000000 1.0
C      1  0.5617230000000  0.5074850000000  0.4552220000000 1.0
C      1  0.4273930000000  0.5055440000000  0.5370510000000 1.0
C      1  0.5062310000000  0.4537400000000  0.5673890000000 1.0
C      1  0.5030730000000  0.5467110000000  0.4350820000000 1.0
C      1  0.4927370000000  0.5352330000000  0.5698520000000 1.0
C      1  0.4608250000000  0.4365290000000  0.5249930000000 1.0
C      1  0.4352580000000  0.5244040000000  0.4644270000000 1.0
C      1  0.5295160000000  0.4634470000000  0.4347490000000 1.0
C      1  0.5364570000000  0.4369400000000  0.4773010000000 1.0
C      1  0.5381150000000  0.5655820000000  0.5211940000000 1.0
C      1  0.4628660000000  0.5635780000000  0.4783200000000 1.0
C      1  0.5651870000000  0.5279710000000  0.5390890000000 1.0
C      1  0.5631790000000  0.4805030000000  0.4668780000000 1.0
C      1  0.4349750000000  0.4762870000000  0.5385970000000 1.0
C      1  0.4786540000000  0.4633040000000  0.5655120000000 1.0
C      1  0.4762190000000  0.5349120000000  0.4372840000000 1.0
C      1  0.5211870000000  0.5385730000000  0.5632440000000 1.0
C      1  0.4763330000000  0.5075100000000  0.4279590000000 1.0
C      1  0.5086780000000  0.4287950000000  0.4758050000000 1.0
C      1  0.4240270000000  0.4729090000000  0.5120020000000 1.0
C      1  0.5266820000000  0.5126340000000  0.5748960000000 1.0
C      1  0.5259360000000  0.4908480000000  0.4256480000000 1.0
C      1  0.4777880000000  0.4900350000000  0.5757260000000 1.0
C      1  0.4871060000000  0.4258740000000  0.5250620000000 1.0
C      1  0.4887910000000  0.5759600000000  0.4764240000000 1.0
C      1  0.5121560000000  0.5775190000000  0.5244180000000 1.0
C      1  0.5723310000000  0.4780060000000  0.4942430000000 1.0
C      1  0.5769480000000  0.5258500000000  0.5123980000000 1.0
C      1  0.4254590000000  0.5217580000000  0.4898040000000 1.0
C      1  0.5617770000000  0.5357600000000  0.4659230000000 1.0
C      1  0.5336400000000  0.4621400000000  0.5626690000000 1.0
C      1  0.4650160000000  0.5625340000000  0.5328250000000 1.0
C      1  0.4384300000000  0.5320680000000  0.5401080000000 1.0
C      1  0.4312650000000  0.4687040000000  0.4643620000000 1.0
C      1  0.5531230000000  0.4535450000000  0.5426460000000 1.0
C      1  0.4506980000000  0.4592640000000  0.4462260000000 1.0
C      1  0.4619280000000  0.5375450000000  0.5572570000000 1.0
C      1  0.5305260000000  0.5392130000000  0.4380780000000 1.0
C      1  0.5424750000000  0.5581770000000  0.4637540000000 1.0
C      1  0.5367360000000  0.4325680000000  0.5327930000000 1.0
C      1  0.4627310000000  0.4408990000000  0.4640780000000 1.0
C      1  0.4984730000000  0.5097510000000  0.5811680000000 1.0
C      1  0.4977910000000  0.4886110000000  0.4258770000000 1.0
C      1  0.5760640000000  0.4975520000000  0.5144380000000 1.0
C      1  0.5095540000000  0.5812780000000  0.4956680000000 1.0
C      1  0.4185970000000  0.5011450000000  0.5095130000000 1.0
C      1  0.4887520000000  0.4237010000000  0.4966070000000 1.0
C      1  0.5456540000000  0.4581470000000  0.4586240000000 1.0
C      1  0.4574740000000  0.4581420000000  0.5443290000000 1.0
C      1  0.4570240000000  0.5427340000000  0.4582980000000 1.0
C      1  0.5412180000000  0.5451780000000  0.5416620000000 1.0
C      1  0.5142470000000  0.4859360000000  0.4855010000000 1.0
END
