TITL C-2441162-9305-1488 -1.80598420543897e-07 125000 -11244.6197988782 0 0 72 (Cs) n - 1
REM
REM in /home/bkarasulu/work/CARBON/AIRSS/Generating-Clusters/ReaxFF-fromJPCA2015/Units_Real/with-SteepDescent/Higher-Symm
REM
REM
REM
REM
REM
REM ./C.cell (1df0a924f5614ab8850e4351716899ee)
REM
REM compiler GCC version 9.2.1 20190827 (Red Hat 9.2.1-1)
REM options -cpp -mtune=generic -march=x86-64 -g -O0 -fpre-include=/usr/include/finclude/math-vector-fortran.h
REM seed 1695046928 -1278541143 1529461490 1652677356 1781631277 1186081593 126963466 2132144908 -35395298 609555826 1021099695 590221753 -2057401323 1710751109 157608910 1437939764 2116399302 -1082072928 -1567132707 -1209400697 471001478 461005055 1808294283 481622324 -1219678677 -1384995563 -407472426 -812674815 -2074881736 57099149 -1003425318 1848985458 192642143
REM
CELL 1.54180   50.00000   50.00000   50.00000   90.00000   90.00000   90.00000
LATT -1
SFAC C  
C      1  0.4841970000000  0.5417400000000  0.4820920000000 1.0
C      1  0.5113950000000  0.5484310000000  0.4721820000000 1.0
C      1  0.5385950000000  0.5310390000000  0.4720010000000 1.0
C      1  0.5452220000000  0.4916850000000  0.4750840000000 1.0
C      1  0.5334650000000  0.4667940000000  0.4751100000000 1.0
C      1  0.4969350000000  0.4526060000000  0.4748230000000 1.0
C      1  0.4717420000000  0.4636780000000  0.4749160000000 1.0
C      1  0.4507130000000  0.4975890000000  0.4720140000000 1.0
C      1  0.4594280000000  0.5286760000000  0.4721910000000 1.0
C      1  0.4364740000000  0.4877370000000  0.5497320000000 1.0
C      1  0.4430970000000  0.5319990000000  0.5533060000000 1.0
C      1  0.4766610000000  0.5614930000000  0.5541830000000 1.0
C      1  0.5213380000000  0.5617000000000  0.5533310000000 1.0
C      1  0.5556590000000  0.5329830000000  0.5497730000000 1.0
C      1  0.5644950000000  0.4896680000000  0.5480690000000 1.0
C      1  0.5427890000000  0.4499990000000  0.5469800000000 1.0
C      1  0.5011630000000  0.4341930000000  0.5469770000000 1.0
C      1  0.4586170000000  0.4494680000000  0.5480120000000 1.0
C      1  0.5009900000000  0.4566280000000  0.5649800000000 1.0
C      1  0.4737220000000  0.4662980000000  0.5657810000000 1.0
C      1  0.4591330000000  0.4912270000000  0.5670810000000 1.0
C      1  0.4634780000000  0.5198090000000  0.5691380000000 1.0
C      1  0.4853010000000  0.5387100000000  0.5697800000000 1.0
C      1  0.5141680000000  0.5390560000000  0.5691580000000 1.0
C      1  0.5363840000000  0.5205550000000  0.5671110000000 1.0
C      1  0.5420090000000  0.4922230000000  0.5658140000000 1.0
C      1  0.5280240000000  0.4668960000000  0.5649810000000 1.0
C      1  0.4513780000000  0.5570850000000  0.5118840000000 1.0
C      1  0.4985360000000  0.5749930000000  0.5118980000000 1.0
C      1  0.5436910000000  0.5588570000000  0.5094120000000 1.0
C      1  0.5702330000000  0.5147550000000  0.5070760000000 1.0
C      1  0.5652790000000  0.4648790000000  0.5053950000000 1.0
C      1  0.5259830000000  0.4314720000000  0.5055860000000 1.0
C      1  0.4745710000000  0.4304590000000  0.5053230000000 1.0
C      1  0.4377230000000  0.4644490000000  0.5070290000000 1.0
C      1  0.4283040000000  0.5150500000000  0.5093790000000 1.0
C      1  0.4755930000000  0.4310510000000  0.5339980000000 1.0
C      1  0.4383390000000  0.4637860000000  0.5353510000000 1.0
C      1  0.4283190000000  0.5128630000000  0.5385830000000 1.0
C      1  0.4516150000000  0.5558550000000  0.5409470000000 1.0
C      1  0.4991460000000  0.5738990000000  0.5409620000000 1.0
C      1  0.5450990000000  0.5571910000000  0.5386180000000 1.0
C      1  0.5701710000000  0.5138350000000  0.5354020000000 1.0
C      1  0.5640450000000  0.4646250000000  0.5340650000000 1.0
C      1  0.5256950000000  0.4322720000000  0.5336070000000 1.0
C      1  0.5018320000000  0.4537630000000  0.4272810000000 1.0
C      1  0.4738700000000  0.4631220000000  0.4269880000000 1.0
C      1  0.4591990000000  0.4881310000000  0.4232540000000 1.0
C      1  0.4653080000000  0.5171360000000  0.4216380000000 1.0
C      1  0.4866400000000  0.5351740000000  0.4106410000000 1.0
C      1  0.5145700000000  0.5357740000000  0.4216440000000 1.0
C      1  0.5383160000000  0.5180440000000  0.4232920000000 1.0
C      1  0.5438300000000  0.4895960000000  0.4271180000000 1.0
C      1  0.5291420000000  0.4640270000000  0.4273080000000 1.0
C      1  0.4346840000000  0.4905540000000  0.4950730000000 1.0
C      1  0.4406190000000  0.5366510000000  0.4955510000000 1.0
C      1  0.4767530000000  0.5613180000000  0.4997330000000 1.0
C      1  0.5201560000000  0.5668610000000  0.4955710000000 1.0
C      1  0.5552280000000  0.5363310000000  0.4950920000000 1.0
C      1  0.5683280000000  0.4903490000000  0.4910570000000 1.0
C      1  0.5459800000000  0.4476760000000  0.4917100000000 1.0
C      1  0.5003670000000  0.4303590000000  0.4915910000000 1.0
C      1  0.4553450000000  0.4474520000000  0.4909890000000 1.0
C      1  0.5535010000000  0.5252210000000  0.4474450000000 1.0
C      1  0.5602320000000  0.4966090000000  0.4512110000000 1.0
C      1  0.5354760000000  0.4486140000000  0.4518040000000 1.0
C      1  0.5075610000000  0.4382630000000  0.4518270000000 1.0
C      1  0.4570210000000  0.4575210000000  0.4511410000000 1.0
C      1  0.4431600000000  0.4834640000000  0.4474630000000 1.0
C      1  0.4590260000000  0.5370990000000  0.4416480000000 1.0
C      1  0.4788720000000  0.5557020000000  0.4311840000000 1.0
C      1  0.5060700000000  0.5549260000000  0.4416300000000 1.0
END
