TITL C-2441158-471-1475 -5.5351580978044e-07 125000 -8350.51437867274 0 0 58 (C1) n - 1
REM
REM in /home/bkarasulu/work/CARBON/AIRSS/Generating-Clusters/ReaxFF-fromJPCA2015/Units_Real/with-SteepDescent/Higher-Symm
REM
REM
REM
REM
REM
REM ./C.cell (1df0a924f5614ab8850e4351716899ee)
REM
REM compiler GCC version 9.2.1 20190827 (Red Hat 9.2.1-1)
REM options -cpp -mtune=generic -march=x86-64 -g -O0 -fpre-include=/usr/include/finclude/math-vector-fortran.h
REM seed -1623536850 -2134265564 246175640 -1258874186 1516409970 -1074855245 1341308282 -188221589 -177981650 -383375545 56913660 1508589123 1067872777 1148009193 1437383583 -1169357643 1450926400 2049695461 1375976518 1684338553 1186904374 -2025806428 298946798 -1299182354 -390645335 2107866113 -1563962911 -65655576 1695580145 -434317214 -1651346978 706338397 1853612315
REM
CELL 1.54180   50.00000   50.00000   50.00000   90.00000   90.00000   90.00000
LATT -1
SFAC C  
C      1  0.5329270000000  0.5773440000000  0.5042550000000 1.0
C      1  0.5338190000000  0.4252790000000  0.4969040000000 1.0
C      1  0.4637630000000  0.4288790000000  0.5039570000000 1.0
C      1  0.4634290000000  0.5713400000000  0.4970010000000 1.0
C      1  0.5381470000000  0.5034100000000  0.5704230000000 1.0
C      1  0.5376080000000  0.4962550000000  0.4279680000000 1.0
C      1  0.4694950000000  0.5040740000000  0.4235950000000 1.0
C      1  0.4661550000000  0.4967540000000  0.5747090000000 1.0
C      1  0.4572080000000  0.5551750000000  0.4605820000000 1.0
C      1  0.4567080000000  0.4429800000000  0.5410490000000 1.0
C      1  0.5433820000000  0.4419270000000  0.4614360000000 1.0
C      1  0.5435630000000  0.5588790000000  0.5381300000000 1.0
C      1  0.4575290000000  0.4605520000000  0.5592610000000 1.0
C      1  0.4590070000000  0.5382120000000  0.4421380000000 1.0
C      1  0.5447040000000  0.4597480000000  0.4436690000000 1.0
C      1  0.5449100000000  0.5399970000000  0.5547780000000 1.0
C      1  0.4484020000000  0.5526890000000  0.5127070000000 1.0
C      1  0.4493960000000  0.4487750000000  0.4898240000000 1.0
C      1  0.5515510000000  0.4429260000000  0.5123120000000 1.0
C      1  0.5530770000000  0.5592840000000  0.4887640000000 1.0
C      1  0.4500280000000  0.5116280000000  0.5563330000000 1.0
C      1  0.4508170000000  0.4887500000000  0.4406130000000 1.0
C      1  0.5532220000000  0.5103150000000  0.4469430000000 1.0
C      1  0.5529840000000  0.4873220000000  0.5515150000000 1.0
C      1  0.5617110000000  0.5081550000000  0.4756170000000 1.0
C      1  0.5623060000000  0.4897330000000  0.5251790000000 1.0
C      1  0.4464100000000  0.4885430000000  0.4675630000000 1.0
C      1  0.4403900000000  0.5066870000000  0.5306330000000 1.0
C      1  0.5618170000000  0.4690600000000  0.5073320000000 1.0
C      1  0.5579500000000  0.5321440000000  0.4876640000000 1.0
C      1  0.4428210000000  0.4770840000000  0.4909370000000 1.0
C      1  0.4394490000000  0.5256710000000  0.5095320000000 1.0
C      1  0.5055720000000  0.5553080000000  0.4666400000000 1.0
C      1  0.5044170000000  0.4454880000000  0.5344400000000 1.0
C      1  0.4951090000000  0.4463910000000  0.4650880000000 1.0
C      1  0.4952140000000  0.5546680000000  0.5345250000000 1.0
C      1  0.5053950000000  0.4656720000000  0.5542440000000 1.0
C      1  0.5073990000000  0.5349780000000  0.4468560000000 1.0
C      1  0.4965330000000  0.4655180000000  0.4441780000000 1.0
C      1  0.4966360000000  0.5341710000000  0.5539560000000 1.0
C      1  0.5203590000000  0.4335440000000  0.4731020000000 1.0
C      1  0.5202420000000  0.5684900000000  0.5273880000000 1.0
C      1  0.4787660000000  0.5649660000000  0.4736900000000 1.0
C      1  0.4786060000000  0.4338540000000  0.5277720000000 1.0
C      1  0.5228890000000  0.4723990000000  0.4336920000000 1.0
C      1  0.5232220000000  0.5268720000000  0.5643960000000 1.0
C      1  0.4801960000000  0.4728560000000  0.5678120000000 1.0
C      1  0.4823740000000  0.5273770000000  0.4334110000000 1.0
C      1  0.4714420000000  0.4372120000000  0.4779160000000 1.0
C      1  0.4712320000000  0.5640470000000  0.5230660000000 1.0
C      1  0.5270310000000  0.5689450000000  0.4788020000000 1.0
C      1  0.5269390000000  0.4338110000000  0.5227410000000 1.0
C      1  0.4751300000000  0.4779770000000  0.4310650000000 1.0
C      1  0.4736870000000  0.5224010000000  0.5657320000000 1.0
C      1  0.5295750000000  0.4775790000000  0.5632290000000 1.0
C      1  0.5307330000000  0.5224230000000  0.4369410000000 1.0
C      1  0.5505580000000  0.4938990000000  0.4997940000000 1.0
C      1  0.4521460000000  0.4995820000000  0.5062000000000 1.0
END
