TITL C-2441167-4473-655 0.0525818625702879 125000 -22103.4904040847 0 0 154 (C1) n - 1
REM
REM in /home/bkarasulu/work/CARBON/AIRSS/Generating-Clusters/ReaxFF-fromJPCA2015/Units_Real/with-SteepDescent/Higher-Symm
REM
REM
REM
REM
REM
REM ./C.cell (1df0a924f5614ab8850e4351716899ee)
REM
REM compiler GCC version 9.2.1 20190827 (Red Hat 9.2.1-1)
REM options -cpp -mtune=generic -march=x86-64 -g -O0 -fpre-include=/usr/include/finclude/math-vector-fortran.h
REM seed -202312967 -146188633 -1024689672 -1346450841 690676817 -707843738 -1386652470 2055557941 1491238848 -342771324 144738377 1296176467 -1022547498 -1106632617 -1134548278 1775512618 1944124808 -1884886761 -659672090 761019732 -990145608 -958261913 -1342837507 -1311814030 -2032105791 1568548249 1921995011 -500173557 -268906272 -381932007 -2142939178 1330405238 468686910
REM
CELL 1.54180   50.00000   50.00000   50.00000   90.00000   90.00000   90.00000
LATT -1
SFAC C  
C      1  0.4616660000000  0.4596830000000  0.5206980000000 1.0
C      1  0.5087690000000  0.4647330000000  0.5452690000000 1.0
C      1  0.5450820000000  0.4625070000000  0.5087480000000 1.0
C      1  0.5248580000000  0.4640760000000  0.4668270000000 1.0
C      1  0.4728710000000  0.4628990000000  0.4649090000000 1.0
C      1  0.5122160000000  0.5612280000000  0.4155420000000 1.0
C      1  0.4295910000000  0.5581610000000  0.4619940000000 1.0
C      1  0.4382130000000  0.5623340000000  0.5566940000000 1.0
C      1  0.5374220000000  0.5598070000000  0.5743650000000 1.0
C      1  0.5835810000000  0.5604890000000  0.4857580000000 1.0
C      1  0.5639770000000  0.5086060000000  0.5149610000000 1.0
C      1  0.5238120000000  0.5040450000000  0.4429110000000 1.0
C      1  0.4523140000000  0.5112990000000  0.4506710000000 1.0
C      1  0.4419930000000  0.5040330000000  0.5166140000000 1.0
C      1  0.5039780000000  0.5067550000000  0.5568950000000 1.0
C      1  0.4139370000000  0.4874300000000  0.4616040000000 1.0
C      1  0.4298830000000  0.4872770000000  0.5680320000000 1.0
C      1  0.5474880000000  0.4841810000000  0.5867460000000 1.0
C      1  0.5967400000000  0.4850030000000  0.4811160000000 1.0
C      1  0.5091590000000  0.4879280000000  0.4081870000000 1.0
C      1  0.4239290000000  0.4376380000000  0.4885630000000 1.0
C      1  0.4565640000000  0.4424980000000  0.5710170000000 1.0
C      1  0.5515150000000  0.4380240000000  0.5589860000000 1.0
C      1  0.5709330000000  0.4408900000000  0.4662620000000 1.0
C      1  0.4862200000000  0.4431060000000  0.4173510000000 1.0
C      1  0.4583230000000  0.4320140000000  0.5271220000000 1.0
C      1  0.4991950000000  0.4408850000000  0.5309270000000 1.0
C      1  0.5259870000000  0.4379280000000  0.5002470000000 1.0
C      1  0.5270380000000  0.4363870000000  0.4724830000000 1.0
C      1  0.4782260000000  0.4362650000000  0.4792910000000 1.0
C      1  0.4683570000000  0.5255220000000  0.5536140000000 1.0
C      1  0.5396880000000  0.5279790000000  0.5421280000000 1.0
C      1  0.5539830000000  0.5251090000000  0.4717720000000 1.0
C      1  0.4951570000000  0.5212970000000  0.4423140000000 1.0
C      1  0.4453170000000  0.5244470000000  0.4948590000000 1.0
C      1  0.5866640000000  0.4613080000000  0.5583100000000 1.0
C      1  0.5776980000000  0.4687670000000  0.4372350000000 1.0
C      1  0.4628870000000  0.4725710000000  0.4001000000000 1.0
C      1  0.3964510000000  0.4674760000000  0.4998570000000 1.0
C      1  0.4704790000000  0.4700170000000  0.5973610000000 1.0
C      1  0.4948630000000  0.5466330000000  0.4560230000000 1.0
C      1  0.4666320000000  0.5469500000000  0.4963410000000 1.0
C      1  0.4794220000000  0.5475990000000  0.5380380000000 1.0
C      1  0.5268000000000  0.5478250000000  0.5270940000000 1.0
C      1  0.5371190000000  0.5474320000000  0.4793740000000 1.0
C      1  0.3953900000000  0.4965440000000  0.5020520000000 1.0
C      1  0.4815300000000  0.4947440000000  0.5990130000000 1.0
C      1  0.5882140000000  0.4893240000000  0.5492250000000 1.0
C      1  0.5695020000000  0.4950260000000  0.4318950000000 1.0
C      1  0.4574560000000  0.4999530000000  0.4078840000000 1.0
C      1  0.4475540000000  0.4683190000000  0.5811680000000 1.0
C      1  0.5623190000000  0.4612810000000  0.5743350000000 1.0
C      1  0.5879760000000  0.4642340000000  0.4624670000000 1.0
C      1  0.4897770000000  0.4677730000000  0.4026750000000 1.0
C      1  0.4227990000000  0.4681180000000  0.4834920000000 1.0
C      1  0.5953470000000  0.4728380000000  0.5075890000000 1.0
C      1  0.5334840000000  0.4724570000000  0.4124840000000 1.0
C      1  0.4275050000000  0.4788540000000  0.4374080000000 1.0
C      1  0.4160470000000  0.4758950000000  0.5465190000000 1.0
C      1  0.5225860000000  0.4739550000000  0.5946130000000 1.0
C      1  0.4438060000000  0.5515910000000  0.4367180000000 1.0
C      1  0.4211980000000  0.5529790000000  0.5335150000000 1.0
C      1  0.5115930000000  0.5505050000000  0.5860350000000 1.0
C      1  0.5849440000000  0.5533530000000  0.5142870000000 1.0
C      1  0.5400470000000  0.5500620000000  0.4218550000000 1.0
C      1  0.4183410000000  0.5371710000000  0.4823040000000 1.0
C      1  0.4452080000000  0.5387170000000  0.5713020000000 1.0
C      1  0.5524820000000  0.5358570000000  0.5673700000000 1.0
C      1  0.5842810000000  0.5363900000000  0.4699670000000 1.0
C      1  0.4929250000000  0.5415770000000  0.4075800000000 1.0
C      1  0.4929880000000  0.4190150000000  0.4570680000000 1.0
C      1  0.4585960000000  0.4102420000000  0.5081470000000 1.0
C      1  0.5064670000000  0.4159230000000  0.5444370000000 1.0
C      1  0.5457460000000  0.4157840000000  0.5093140000000 1.0
C      1  0.5415940000000  0.4114850000000  0.4679330000000 1.0
C      1  0.5361650000000  0.4757980000000  0.5352330000000 1.0
C      1  0.5412820000000  0.4789850000000  0.4858170000000 1.0
C      1  0.4993370000000  0.4735710000000  0.4591570000000 1.0
C      1  0.4694640000000  0.4865480000000  0.4866550000000 1.0
C      1  0.4815570000000  0.4803890000000  0.5309560000000 1.0
C      1  0.5461960000000  0.5144870000000  0.5876910000000 1.0
C      1  0.5984400000000  0.5143010000000  0.4816860000000 1.0
C      1  0.5104660000000  0.5175540000000  0.4031580000000 1.0
C      1  0.4039530000000  0.5093480000000  0.4776420000000 1.0
C      1  0.4258920000000  0.5172710000000  0.5681590000000 1.0
C      1  0.5221900000000  0.5044200000000  0.5386820000000 1.0
C      1  0.5439120000000  0.5064930000000  0.4937830000000 1.0
C      1  0.5033690000000  0.5022020000000  0.4635690000000 1.0
C      1  0.4589610000000  0.5096580000000  0.4761200000000 1.0
C      1  0.4642270000000  0.5034500000000  0.5354430000000 1.0
C      1  0.4491780000000  0.4247150000000  0.4852990000000 1.0
C      1  0.4426170000000  0.4321060000000  0.5487170000000 1.0
C      1  0.5250490000000  0.4277080000000  0.5636000000000 1.0
C      1  0.5637130000000  0.4207120000000  0.4866960000000 1.0
C      1  0.5067200000000  0.4316550000000  0.4342170000000 1.0
C      1  0.4078830000000  0.4439740000000  0.5131720000000 1.0
C      1  0.4819480000000  0.4461380000000  0.5858130000000 1.0
C      1  0.5750190000000  0.4414110000000  0.5392580000000 1.0
C      1  0.5598540000000  0.4455500000000  0.4388540000000 1.0
C      1  0.4570930000000  0.4503840000000  0.4194980000000 1.0
C      1  0.4741190000000  0.5597260000000  0.4706650000000 1.0
C      1  0.4639460000000  0.5621950000000  0.5201480000000 1.0
C      1  0.5043540000000  0.5607060000000  0.5401570000000 1.0
C      1  0.5389900000000  0.5605110000000  0.5042860000000 1.0
C      1  0.5192230000000  0.5602410000000  0.4616460000000 1.0
C      1  0.5744650000000  0.4517520000000  0.5121940000000 1.0
C      1  0.5331010000000  0.4470470000000  0.4273240000000 1.0
C      1  0.4486200000000  0.4600590000000  0.4448950000000 1.0
C      1  0.4195580000000  0.4478290000000  0.5397170000000 1.0
C      1  0.5097030000000  0.4517090000000  0.5761030000000 1.0
C      1  0.5577930000000  0.5601450000000  0.4424530000000 1.0
C      1  0.4708530000000  0.5567840000000  0.4232720000000 1.0
C      1  0.4184000000000  0.5585710000000  0.5043700000000 1.0
C      1  0.4856970000000  0.5613700000000  0.5794570000000 1.0
C      1  0.5691000000000  0.5635130000000  0.5336670000000 1.0
C      1  0.4311780000000  0.5769150000000  0.4852890000000 1.0
C      1  0.4648970000000  0.5759330000000  0.5639080000000 1.0
C      1  0.5490850000000  0.5752280000000  0.5514060000000 1.0
C      1  0.5648930000000  0.5753700000000  0.4670720000000 1.0
C      1  0.4905320000000  0.5781040000000  0.4280900000000 1.0
C      1  0.4762070000000  0.5952790000000  0.5439120000000 1.0
C      1  0.5328920000000  0.5944500000000  0.5347150000000 1.0
C      1  0.5440710000000  0.5945120000000  0.4781080000000 1.0
C      1  0.4936220000000  0.5961420000000  0.4515610000000 1.0
C      1  0.4532050000000  0.5957570000000  0.4910960000000 1.0
C      1  0.4305010000000  0.5016790000000  0.4183560000000 1.0
C      1  0.4106140000000  0.5007800000000  0.5285650000000 1.0
C      1  0.5091280000000  0.4972580000000  0.6056830000000 1.0
C      1  0.6024630000000  0.4950560000000  0.5250660000000 1.0
C      1  0.5515750000000  0.4963290000000  0.4096590000000 1.0
C      1  0.4714310000000  0.5887650000000  0.4692600000000 1.0
C      1  0.4611410000000  0.5905790000000  0.5191560000000 1.0
C      1  0.5050330000000  0.5897700000000  0.5424670000000 1.0
C      1  0.5411880000000  0.5894110000000  0.5068940000000 1.0
C      1  0.5202820000000  0.5896700000000  0.4618510000000 1.0
C      1  0.4124190000000  0.5270900000000  0.5443820000000 1.0
C      1  0.5211710000000  0.5231490000000  0.5975870000000 1.0
C      1  0.5921000000000  0.5203070000000  0.5111990000000 1.0
C      1  0.5379580000000  0.5230160000000  0.4080490000000 1.0
C      1  0.4302530000000  0.5254220000000  0.4355560000000 1.0
C      1  0.5502500000000  0.5094960000000  0.4481610000000 1.0
C      1  0.4720290000000  0.5081360000000  0.4313470000000 1.0
C      1  0.4463440000000  0.4776890000000  0.5032160000000 1.0
C      1  0.4853320000000  0.5103750000000  0.5743870000000 1.0
C      1  0.5615260000000  0.4932810000000  0.5375720000000 1.0
C      1  0.4959060000000  0.3964330000000  0.4753570000000 1.0
C      1  0.4835330000000  0.3958920000000  0.5028590000000 1.0
C      1  0.5037450000000  0.3947260000000  0.5237730000000 1.0
C      1  0.5288020000000  0.3920720000000  0.5086620000000 1.0
C      1  0.5241330000000  0.3907070000000  0.4797700000000 1.0
C      1  0.4970790000000  0.5381730000000  0.4975450000000 1.0
C      1  0.4976550000000  0.4401640000000  0.5023670000000 1.0
C      1  0.5094120000000  0.5121390000000  0.4968840000000 1.0
C      1  0.4901710000000  0.4913310000000  0.5061340000000 1.0
END
