TITL C-2441157-2117-363 0.182780404359335 125000 -21579.3840689961 0 0 178 (C1) n - 1
REM
REM in /home/bkarasulu/work/CARBON/AIRSS/Generating-Clusters/ReaxFF-fromJPCA2015/Units_Real/with-SteepDescent/Higher-Symm
REM
REM
REM
REM
REM
REM ./C.cell (1df0a924f5614ab8850e4351716899ee)
REM
REM compiler GCC version 9.2.1 20190827 (Red Hat 9.2.1-1)
REM options -cpp -mtune=generic -march=x86-64 -g -O0 -fpre-include=/usr/include/finclude/math-vector-fortran.h
REM seed -1088491550 608624965 -2142925209 -264533682 -1752687469 -15927040 -632203520 1435697644 529147950 1260044283 -1496028631 1498181005 -837982636 1155534836 -1394759938 2058509657 689964297 540309366 1535151956 1538566229 -913302880 -432017494 -1354000712 -523739785 -2113157180 -1722214974 1256282245 1247357769 -355211764 1384928524 1766070191 170297892 -156782979
REM
CELL 1.54180   50.00000   50.00000   50.00000   90.00000   90.00000   90.00000
LATT -1
SFAC C  
C      1  0.4436370000000  0.5029370000000  0.4661710000000 1.0
C      1  0.4927570000000  0.5583550000000  0.4644650000000 1.0
C      1  0.5521850000000  0.5272040000000  0.4568900000000 1.0
C      1  0.5446670000000  0.4609310000000  0.4629130000000 1.0
C      1  0.4767070000000  0.4442670000000  0.4658990000000 1.0
C      1  0.5011760000000  0.4748400000000  0.5385220000000 1.0
C      1  0.4574310000000  0.4838780000000  0.5342200000000 1.0
C      1  0.4786160000000  0.5221160000000  0.5283620000000 1.0
C      1  0.5218400000000  0.5223570000000  0.5443230000000 1.0
C      1  0.5442780000000  0.4836900000000  0.5426990000000 1.0
C      1  0.5573310000000  0.5772530000000  0.4330200000000 1.0
C      1  0.5901360000000  0.4772130000000  0.4312640000000 1.0
C      1  0.5029150000000  0.4024740000000  0.4345570000000 1.0
C      1  0.4113080000000  0.4665940000000  0.4302080000000 1.0
C      1  0.4378560000000  0.5691650000000  0.4318170000000 1.0
C      1  0.5296060000000  0.5111760000000  0.4346120000000 1.0
C      1  0.5151980000000  0.4802660000000  0.4380110000000 1.0
C      1  0.4868380000000  0.4826500000000  0.4413980000000 1.0
C      1  0.4815090000000  0.5131380000000  0.4354460000000 1.0
C      1  0.5088940000000  0.5271150000000  0.4491030000000 1.0
C      1  0.4111790000000  0.4766570000000  0.5525750000000 1.0
C      1  0.4464180000000  0.5892120000000  0.5473500000000 1.0
C      1  0.5662170000000  0.5670570000000  0.5511900000000 1.0
C      1  0.5860210000000  0.4657070000000  0.5535470000000 1.0
C      1  0.4891490000000  0.3962940000000  0.5465420000000 1.0
C      1  0.5218440000000  0.5901470000000  0.4656730000000 1.0
C      1  0.5998300000000  0.5097050000000  0.4624070000000 1.0
C      1  0.5416020000000  0.4179440000000  0.4577680000000 1.0
C      1  0.4314640000000  0.4345300000000  0.4626270000000 1.0
C      1  0.4210510000000  0.5499550000000  0.4654210000000 1.0
C      1  0.4852490000000  0.5819740000000  0.4476710000000 1.0
C      1  0.5824030000000  0.5295290000000  0.4490380000000 1.0
C      1  0.5598190000000  0.4416980000000  0.4467690000000 1.0
C      1  0.4566060000000  0.4307320000000  0.4493970000000 1.0
C      1  0.4049700000000  0.5048770000000  0.4581130000000 1.0
C      1  0.5251220000000  0.4218620000000  0.4346310000000 1.0
C      1  0.4373560000000  0.4626000000000  0.4192080000000 1.0
C      1  0.4301280000000  0.5413840000000  0.4385680000000 1.0
C      1  0.5301720000000  0.5725970000000  0.4413250000000 1.0
C      1  0.5726920000000  0.4991150000000  0.4218640000000 1.0
C      1  0.5666530000000  0.4628260000000  0.5785360000000 1.0
C      1  0.4948320000000  0.4326920000000  0.5811720000000 1.0
C      1  0.4252590000000  0.4896760000000  0.5769800000000 1.0
C      1  0.4642620000000  0.5571110000000  0.5810440000000 1.0
C      1  0.5513210000000  0.5578520000000  0.5757930000000 1.0
C      1  0.4391210000000  0.5147680000000  0.4920760000000 1.0
C      1  0.4938660000000  0.5624800000000  0.4946070000000 1.0
C      1  0.5617190000000  0.5228040000000  0.4842030000000 1.0
C      1  0.5360990000000  0.4537390000000  0.5035090000000 1.0
C      1  0.4689720000000  0.4486220000000  0.4936240000000 1.0
C      1  0.5769400000000  0.5470770000000  0.4863910000000 1.0
C      1  0.5649030000000  0.4496710000000  0.4990560000000 1.0
C      1  0.4720980000000  0.4199230000000  0.4999520000000 1.0
C      1  0.4095640000000  0.5122470000000  0.4857050000000 1.0
C      1  0.4739950000000  0.5830560000000  0.4990790000000 1.0
C      1  0.5267060000000  0.4835690000000  0.3934930000000 1.0
C      1  0.5002080000000  0.4774470000000  0.3872910000000 1.0
C      1  0.4745200000000  0.4836190000000  0.3959600000000 1.0
C      1  0.4863690000000  0.5310360000000  0.3933590000000 1.0
C      1  0.5161450000000  0.5309480000000  0.3914670000000 1.0
C      1  0.6007150000000  0.4874850000000  0.4816320000000 1.0
C      1  0.5158710000000  0.3954280000000  0.4852810000000 1.0
C      1  0.4046390000000  0.4557430000000  0.4858260000000 1.0
C      1  0.4267940000000  0.5715100000000  0.4834870000000 1.0
C      1  0.5463770000000  0.5847870000000  0.4836610000000 1.0
C      1  0.4715080000000  0.5107340000000  0.4068970000000 1.0
C      1  0.5029780000000  0.5496740000000  0.4096010000000 1.0
C      1  0.5318030000000  0.5109110000000  0.4051830000000 1.0
C      1  0.5248800000000  0.4627820000000  0.4149510000000 1.0
C      1  0.4680930000000  0.4663220000000  0.4214110000000 1.0
C      1  0.4021910000000  0.5562880000000  0.4868870000000 1.0
C      1  0.5167150000000  0.6111350000000  0.4832410000000 1.0
C      1  0.6163700000000  0.5110020000000  0.4873870000000 1.0
C      1  0.5439760000000  0.4002190000000  0.4816960000000 1.0
C      1  0.4146680000000  0.4282610000000  0.4846360000000 1.0
C      1  0.4771160000000  0.6081600000000  0.5122640000000 1.0
C      1  0.5953120000000  0.5524770000000  0.5084870000000 1.0
C      1  0.5791830000000  0.4275620000000  0.5106250000000 1.0
C      1  0.4516860000000  0.4018780000000  0.5096190000000 1.0
C      1  0.3929290000000  0.5109220000000  0.5101930000000 1.0
C      1  0.4650870000000  0.4500640000000  0.5600700000000 1.0
C      1  0.4428240000000  0.5227790000000  0.5616560000000 1.0
C      1  0.5012980000000  0.5610880000000  0.5600980000000 1.0
C      1  0.5588080000000  0.5178150000000  0.5636160000000 1.0
C      1  0.5342300000000  0.4437190000000  0.5620980000000 1.0
C      1  0.5161840000000  0.5230180000000  0.4769020000000 1.0
C      1  0.5196730000000  0.4945200000000  0.4856250000000 1.0
C      1  0.5218940000000  0.4738250000000  0.4644570000000 1.0
C      1  0.4809240000000  0.4889740000000  0.4696590000000 1.0
C      1  0.4672290000000  0.5117150000000  0.4606520000000 1.0
C      1  0.4540460000000  0.4918080000000  0.5708330000000 1.0
C      1  0.4818280000000  0.5369540000000  0.5714330000000 1.0
C      1  0.5332700000000  0.5292600000000  0.5709780000000 1.0
C      1  0.5442640000000  0.4809860000000  0.5723130000000 1.0
C      1  0.4919570000000  0.4590090000000  0.5685170000000 1.0
C      1  0.4230950000000  0.5172610000000  0.5830210000000 1.0
C      1  0.4835060000000  0.5771500000000  0.5746260000000 1.0
C      1  0.5720820000000  0.5362220000000  0.5829450000000 1.0
C      1  0.5511150000000  0.4403310000000  0.5849250000000 1.0
C      1  0.4668250000000  0.4274300000000  0.5818650000000 1.0
C      1  0.5417680000000  0.5651700000000  0.5044800000000 1.0
C      1  0.5770760000000  0.4766490000000  0.5038250000000 1.0
C      1  0.5011040000000  0.4168580000000  0.5052880000000 1.0
C      1  0.4227670000000  0.4680810000000  0.5048110000000 1.0
C      1  0.4487710000000  0.5676530000000  0.5035620000000 1.0
C      1  0.4317780000000  0.4716680000000  0.5313550000000 1.0
C      1  0.4468540000000  0.5653490000000  0.5339100000000 1.0
C      1  0.5466130000000  0.5729310000000  0.5322310000000 1.0
C      1  0.5700810000000  0.4803120000000  0.5327080000000 1.0
C      1  0.5044900000000  0.4158210000000  0.5350080000000 1.0
C      1  0.4560610000000  0.5789010000000  0.4548880000000 1.0
C      1  0.5643320000000  0.5696920000000  0.4661690000000 1.0
C      1  0.5844100000000  0.4626610000000  0.4557640000000 1.0
C      1  0.4985310000000  0.4028860000000  0.4638860000000 1.0
C      1  0.4066020000000  0.4736850000000  0.4600230000000 1.0
C      1  0.4910780000000  0.4760610000000  0.5924420000000 1.0
C      1  0.4702030000000  0.4953500000000  0.5950830000000 1.0
C      1  0.4869280000000  0.5201670000000  0.5948460000000 1.0
C      1  0.5212210000000  0.5180580000000  0.5953040000000 1.0
C      1  0.5284440000000  0.4899450000000  0.5944990000000 1.0
C      1  0.4594250000000  0.4324320000000  0.5362370000000 1.0
C      1  0.4263990000000  0.5185080000000  0.5369520000000 1.0
C      1  0.4930570000000  0.5778400000000  0.5370370000000 1.0
C      1  0.5669360000000  0.5268280000000  0.5330490000000 1.0
C      1  0.5526460000000  0.4353960000000  0.5405940000000 1.0
C      1  0.4637810000000  0.4033640000000  0.5374690000000 1.0
C      1  0.4028910000000  0.4996730000000  0.5347650000000 1.0
C      1  0.4722350000000  0.5990470000000  0.5413460000000 1.0
C      1  0.5831300000000  0.5520510000000  0.5350880000000 1.0
C      1  0.5802600000000  0.4402290000000  0.5374960000000 1.0
C      1  0.5011720000000  0.4325390000000  0.4683670000000 1.0
C      1  0.4376750000000  0.4750360000000  0.4634440000000 1.0
C      1  0.4644890000000  0.5531620000000  0.4661170000000 1.0
C      1  0.5412710000000  0.5530730000000  0.4597520000000 1.0
C      1  0.5631030000000  0.4787570000000  0.4667070000000 1.0
C      1  0.5132700000000  0.4399640000000  0.4930160000000 1.0
C      1  0.4455950000000  0.4649480000000  0.4887250000000 1.0
C      1  0.4576660000000  0.5408630000000  0.4910030000000 1.0
C      1  0.5273130000000  0.5401180000000  0.4994460000000 1.0
C      1  0.5583630000000  0.4950540000000  0.4900880000000 1.0
C      1  0.5948010000000  0.5128890000000  0.5297370000000 1.0
C      1  0.5450100000000  0.4108500000000  0.5299910000000 1.0
C      1  0.4307320000000  0.4312900000000  0.5326910000000 1.0
C      1  0.4130730000000  0.5430350000000  0.5315790000000 1.0
C      1  0.5125320000000  0.5969420000000  0.5292070000000 1.0
C      1  0.5270760000000  0.4706840000000  0.5248180000000 1.0
C      1  0.4801850000000  0.4726110000000  0.5178030000000 1.0
C      1  0.4521120000000  0.5094250000000  0.5212640000000 1.0
C      1  0.4836040000000  0.5374030000000  0.5049600000000 1.0
C      1  0.5389480000000  0.5271340000000  0.5224360000000 1.0
C      1  0.3932500000000  0.5408470000000  0.5106100000000 1.0
C      1  0.5048680000000  0.6174290000000  0.5078710000000 1.0
C      1  0.6113530000000  0.5277790000000  0.5111480000000 1.0
C      1  0.5603080000000  0.4049200000000  0.5064370000000 1.0
C      1  0.4255110000000  0.4144320000000  0.5093870000000 1.0
C      1  0.5217630000000  0.4209610000000  0.5764590000000 1.0
C      1  0.4408070000000  0.4403550000000  0.5771460000000 1.0
C      1  0.4351830000000  0.5476010000000  0.5749710000000 1.0
C      1  0.5250850000000  0.5735580000000  0.5715710000000 1.0
C      1  0.5869240000000  0.5127960000000  0.5760710000000 1.0
C      1  0.5251840000000  0.4042740000000  0.5508280000000 1.0
C      1  0.4200400000000  0.4436550000000  0.5571900000000 1.0
C      1  0.4241500000000  0.5607000000000  0.5505220000000 1.0
C      1  0.5318420000000  0.5907280000000  0.5490950000000 1.0
C      1  0.5990790000000  0.4977210000000  0.5540410000000 1.0
C      1  0.5694050000000  0.4723320000000  0.4107610000000 1.0
C      1  0.4959100000000  0.4260340000000  0.4200720000000 1.0
C      1  0.4244160000000  0.4891910000000  0.4179270000000 1.0
C      1  0.4598520000000  0.5628420000000  0.4170860000000 1.0
C      1  0.5595810000000  0.5532540000000  0.4198400000000 1.0
C      1  0.5510090000000  0.4508750000000  0.4188760000000 1.0
C      1  0.4702840000000  0.4373050000000  0.4230310000000 1.0
C      1  0.4197670000000  0.5136990000000  0.4349450000000 1.0
C      1  0.4860950000000  0.5722330000000  0.4188250000000 1.0
C      1  0.5750320000000  0.5297060000000  0.4204170000000 1.0
C      1  0.5062790000000  0.4965440000000  0.5795230000000 1.0
C      1  0.4990070000000  0.5054370000000  0.5397430000000 1.0
C      1  0.4919640000000  0.4894330000000  0.4962340000000 1.0
END
