TITL C-2441166-8118-89 0.0896873949722973 125000 -16981.4802475608 0 0 130 (C1) n - 1
REM
REM in /home/bkarasulu/work/CARBON/AIRSS/Generating-Clusters/ReaxFF-fromJPCA2015/Units_Real/with-SteepDescent/Higher-Symm
REM
REM
REM
REM
REM
REM ./C.cell (1df0a924f5614ab8850e4351716899ee)
REM
REM compiler GCC version 9.2.1 20190827 (Red Hat 9.2.1-1)
REM options -cpp -mtune=generic -march=x86-64 -g -O0 -fpre-include=/usr/include/finclude/math-vector-fortran.h
REM seed 1608759026 100159820 -805033985 -1599403361 1701410435 1458108128 -415158952 -1045090804 -1899539891 1101075027 1832848985 -828636552 372615201 -1429169023 -1206101054 868807571 1076340978 1413595416 -819157699 -99094077 1105349019 490489546 439016046 840124666 -732654463 357460843 -901805366 1962134402 -627313343 66063279 749468643 1135167243 -1506218341
REM
CELL 1.54180   50.00000   50.00000   50.00000   90.00000   90.00000   90.00000
LATT -1
SFAC C  
C      1  0.4603850000000  0.4626480000000  0.5243220000000 1.0
C      1  0.4536800000000  0.5522860000000  0.4675590000000 1.0
C      1  0.4920550000000  0.5762530000000  0.4881160000000 1.0
C      1  0.4261720000000  0.4487870000000  0.4914410000000 1.0
C      1  0.4617380000000  0.5384170000000  0.5665560000000 1.0
C      1  0.5524260000000  0.5055650000000  0.4396440000000 1.0
C      1  0.5538580000000  0.4171680000000  0.5004150000000 1.0
C      1  0.5301500000000  0.5437070000000  0.4939460000000 1.0
C      1  0.4499320000000  0.5128260000000  0.5760340000000 1.0
C      1  0.4859160000000  0.5348920000000  0.4080390000000 1.0
C      1  0.4777630000000  0.5143060000000  0.5293760000000 1.0
C      1  0.4279660000000  0.5422800000000  0.4733020000000 1.0
C      1  0.4093170000000  0.4872470000000  0.4776200000000 1.0
C      1  0.4055220000000  0.5019790000000  0.5446150000000 1.0
C      1  0.4861830000000  0.4870750000000  0.4636010000000 1.0
C      1  0.5261580000000  0.5161340000000  0.5398210000000 1.0
C      1  0.4587230000000  0.4865350000000  0.5869040000000 1.0
C      1  0.5554420000000  0.5329920000000  0.4284080000000 1.0
C      1  0.5914930000000  0.5247150000000  0.4831370000000 1.0
C      1  0.5187460000000  0.4297030000000  0.4373700000000 1.0
C      1  0.4562190000000  0.4331130000000  0.4552840000000 1.0
C      1  0.5295280000000  0.4122760000000  0.4834850000000 1.0
C      1  0.4988420000000  0.4627100000000  0.4636460000000 1.0
C      1  0.5109270000000  0.4221940000000  0.5549470000000 1.0
C      1  0.5509060000000  0.5074020000000  0.5085840000000 1.0
C      1  0.4883410000000  0.5468280000000  0.5739410000000 1.0
C      1  0.5223740000000  0.5077730000000  0.4805320000000 1.0
C      1  0.5173410000000  0.5264340000000  0.5147440000000 1.0
C      1  0.4302900000000  0.4447650000000  0.4638920000000 1.0
C      1  0.4596500000000  0.5372540000000  0.4248650000000 1.0
C      1  0.5392790000000  0.4245100000000  0.5519920000000 1.0
C      1  0.5014220000000  0.4338310000000  0.5264840000000 1.0
C      1  0.5470760000000  0.4899960000000  0.5755750000000 1.0
C      1  0.4879110000000  0.4128710000000  0.5107860000000 1.0
C      1  0.4481590000000  0.4633400000000  0.5734370000000 1.0
C      1  0.5209560000000  0.4932330000000  0.4141720000000 1.0
C      1  0.5772550000000  0.5405530000000  0.4447080000000 1.0
C      1  0.5001010000000  0.4118660000000  0.4853450000000 1.0
C      1  0.4280390000000  0.5181600000000  0.4543490000000 1.0
C      1  0.4504760000000  0.5555770000000  0.5455750000000 1.0
C      1  0.5910730000000  0.5175930000000  0.4543390000000 1.0
C      1  0.5349220000000  0.5709200000000  0.5350350000000 1.0
C      1  0.5572450000000  0.4446890000000  0.4465370000000 1.0
C      1  0.5271410000000  0.4444540000000  0.5148860000000 1.0
C      1  0.4207710000000  0.4484100000000  0.5346150000000 1.0
C      1  0.5284950000000  0.4684760000000  0.5800700000000 1.0
C      1  0.5171360000000  0.4646830000000  0.4143820000000 1.0
C      1  0.5720100000000  0.5276060000000  0.5531260000000 1.0
C      1  0.5180550000000  0.5854550000000  0.5551140000000 1.0
C      1  0.4103330000000  0.5082460000000  0.4965390000000 1.0
C      1  0.4731060000000  0.5905910000000  0.4693650000000 1.0
C      1  0.5805510000000  0.5012270000000  0.5528410000000 1.0
C      1  0.5555710000000  0.5768060000000  0.5145060000000 1.0
C      1  0.5284080000000  0.5465640000000  0.4277800000000 1.0
C      1  0.4492550000000  0.4397420000000  0.5059270000000 1.0
C      1  0.4950410000000  0.5844620000000  0.5363740000000 1.0
C      1  0.4339390000000  0.5408430000000  0.5261440000000 1.0
C      1  0.4532510000000  0.4741630000000  0.4292090000000 1.0
C      1  0.5045440000000  0.4796930000000  0.5871910000000 1.0
C      1  0.4951740000000  0.5098930000000  0.4808250000000 1.0
C      1  0.5056020000000  0.5412940000000  0.4511940000000 1.0
C      1  0.5041800000000  0.5273900000000  0.5888180000000 1.0
C      1  0.4401890000000  0.4665750000000  0.5454950000000 1.0
C      1  0.5110830000000  0.5858350000000  0.4538180000000 1.0
C      1  0.5380680000000  0.4462650000000  0.4233630000000 1.0
C      1  0.4443460000000  0.4887030000000  0.4552270000000 1.0
C      1  0.5080550000000  0.5532940000000  0.4778370000000 1.0
C      1  0.5283420000000  0.4409190000000  0.5706940000000 1.0
C      1  0.5001830000000  0.5072840000000  0.5471760000000 1.0
C      1  0.4931680000000  0.4797330000000  0.5096490000000 1.0
C      1  0.5455150000000  0.5848710000000  0.4879210000000 1.0
C      1  0.4894360000000  0.4612630000000  0.5304320000000 1.0
C      1  0.5674340000000  0.4771850000000  0.5600150000000 1.0
C      1  0.4814280000000  0.4696580000000  0.5959110000000 1.0
C      1  0.4638480000000  0.5736600000000  0.5058090000000 1.0
C      1  0.4808300000000  0.5263230000000  0.4472650000000 1.0
C      1  0.5115250000000  0.5235660000000  0.4117160000000 1.0
C      1  0.4207570000000  0.5364560000000  0.5003020000000 1.0
C      1  0.4298250000000  0.5209080000000  0.4265870000000 1.0
C      1  0.5750310000000  0.4658490000000  0.4579700000000 1.0
C      1  0.4498090000000  0.5171610000000  0.5316310000000 1.0
C      1  0.5773800000000  0.4925670000000  0.4463510000000 1.0
C      1  0.4655580000000  0.5778760000000  0.5338300000000 1.0
C      1  0.4613920000000  0.5621870000000  0.4397800000000 1.0
C      1  0.5117710000000  0.5632770000000  0.5710730000000 1.0
C      1  0.4331210000000  0.4966220000000  0.5411460000000 1.0
C      1  0.4091630000000  0.4616430000000  0.5117990000000 1.0
C      1  0.4633010000000  0.4787330000000  0.4754420000000 1.0
C      1  0.5768320000000  0.5575100000000  0.5094510000000 1.0
C      1  0.5580870000000  0.5693530000000  0.4659570000000 1.0
C      1  0.4798230000000  0.4240310000000  0.5658170000000 1.0
C      1  0.4733100000000  0.4153810000000  0.4723860000000 1.0
C      1  0.5511930000000  0.4329620000000  0.5276290000000 1.0
C      1  0.5441140000000  0.5210480000000  0.5657280000000 1.0
C      1  0.4618750000000  0.4147990000000  0.4992520000000 1.0
C      1  0.5803910000000  0.5542030000000  0.4810680000000 1.0
C      1  0.5353590000000  0.4308980000000  0.4621300000000 1.0
C      1  0.4231540000000  0.5091040000000  0.5653610000000 1.0
C      1  0.5094250000000  0.5639330000000  0.5223620000000 1.0
C      1  0.4890710000000  0.5357730000000  0.5125470000000 1.0
C      1  0.4728410000000  0.4915510000000  0.4141350000000 1.0
C      1  0.4015930000000  0.4901540000000  0.5179740000000 1.0
C      1  0.5815150000000  0.4796520000000  0.5127420000000 1.0
C      1  0.4191200000000  0.4714310000000  0.4556750000000 1.0
C      1  0.5175960000000  0.4895640000000  0.5135850000000 1.0
C      1  0.4756800000000  0.5302820000000  0.4859490000000 1.0
C      1  0.4989150000000  0.5030270000000  0.5750720000000 1.0
C      1  0.5424410000000  0.5257390000000  0.4731670000000 1.0
C      1  0.5175190000000  0.5921570000000  0.4819130000000 1.0
C      1  0.5295240000000  0.4688450000000  0.5295240000000 1.0
C      1  0.4651190000000  0.4852420000000  0.5039630000000 1.0
C      1  0.5267170000000  0.4707610000000  0.4638840000000 1.0
C      1  0.4819630000000  0.5817410000000  0.4433160000000 1.0
C      1  0.4661660000000  0.4483370000000  0.4333910000000 1.0
C      1  0.5921720000000  0.5068710000000  0.5132720000000 1.0
C      1  0.4488060000000  0.5771310000000  0.4814660000000 1.0
C      1  0.4705630000000  0.4472370000000  0.5812900000000 1.0
C      1  0.5341210000000  0.4855200000000  0.4911470000000 1.0
C      1  0.4375900000000  0.4247360000000  0.5303080000000 1.0
C      1  0.4590710000000  0.4215180000000  0.5482970000000 1.0
C      1  0.5353780000000  0.5704540000000  0.4459250000000 1.0
C      1  0.4888180000000  0.5017980000000  0.4372970000000 1.0
C      1  0.5685650000000  0.4376810000000  0.4874430000000 1.0
C      1  0.5811470000000  0.4619300000000  0.4872160000000 1.0
C      1  0.5610880000000  0.4672300000000  0.5316670000000 1.0
C      1  0.5808940000000  0.5315800000000  0.5248830000000 1.0
C      1  0.5273020000000  0.4922460000000  0.4429390000000 1.0
C      1  0.5286100000000  0.5419750000000  0.5817940000000 1.0
C      1  0.4965410000000  0.4507480000000  0.4367850000000 1.0
C      1  0.5649100000000  0.5120550000000  0.4846620000000 1.0
END
