TITL C-2441168-9922-871 0.100785998169395 125000 -11095.5319996408 0 0 95 (C1) n - 1
REM
REM in /home/bkarasulu/work/CARBON/AIRSS/Generating-Clusters/ReaxFF-fromJPCA2015/Units_Real/with-SteepDescent/Higher-Symm
REM
REM
REM
REM
REM
REM ./C.cell (1df0a924f5614ab8850e4351716899ee)
REM
REM compiler GCC version 9.2.1 20190827 (Red Hat 9.2.1-1)
REM options -cpp -mtune=generic -march=x86-64 -g -O0 -fpre-include=/usr/include/finclude/math-vector-fortran.h
REM seed 575820923 -375610017 1945825576 25504358 1764883890 -2120013 -1917739079 276587245 -2033521998 -1294269996 -419981997 -706454564 -999708577 -1285613829 1969906308 1730881241 -1888523840 1846536183 -1239748707 1734502969 393444586 2137471940 -989646968 1815085634 -2022398753 -1466691836 -637977719 -586517770 -1087912071 -1529562056 87630005 -1531485114 -1475363444
REM
CELL 1.54180   50.00000   50.00000   50.00000   90.00000   90.00000   90.00000
LATT -1
SFAC C  
C      1  0.4789660000000  0.4910990000000  0.5822380000000 1.0
C      1  0.4672570000000  0.5174990000000  0.5755690000000 1.0
C      1  0.5205420000000  0.5748560000000  0.5142360000000 1.0
C      1  0.4650850000000  0.5781570000000  0.5202790000000 1.0
C      1  0.5388000000000  0.5609900000000  0.5305870000000 1.0
C      1  0.4634880000000  0.5758490000000  0.4655770000000 1.0
C      1  0.5137710000000  0.5512840000000  0.4350950000000 1.0
C      1  0.5742110000000  0.5194170000000  0.4669830000000 1.0
C      1  0.4908420000000  0.4833780000000  0.5451740000000 1.0
C      1  0.5039310000000  0.4365800000000  0.4898760000000 1.0
C      1  0.4411060000000  0.4744020000000  0.4954810000000 1.0
C      1  0.5718630000000  0.4749670000000  0.4782970000000 1.0
C      1  0.4934110000000  0.4834740000000  0.5000290000000 1.0
C      1  0.4656760000000  0.4735260000000  0.5626650000000 1.0
C      1  0.4723300000000  0.5535220000000  0.4490920000000 1.0
C      1  0.4990540000000  0.4336680000000  0.4498380000000 1.0
C      1  0.4832250000000  0.4925190000000  0.4740740000000 1.0
C      1  0.4908470000000  0.5142170000000  0.4059730000000 1.0
C      1  0.5373110000000  0.4586470000000  0.4998290000000 1.0
C      1  0.5128800000000  0.4199980000000  0.5087490000000 1.0
C      1  0.4924690000000  0.5839480000000  0.4768420000000 1.0
C      1  0.4777360000000  0.5611590000000  0.4999880000000 1.0
C      1  0.5223860000000  0.4420030000000  0.5443390000000 1.0
C      1  0.4841670000000  0.4825210000000  0.4316120000000 1.0
C      1  0.5097630000000  0.4624930000000  0.5610240000000 1.0
C      1  0.4975520000000  0.5618300000000  0.5603710000000 1.0
C      1  0.5052280000000  0.4621110000000  0.4516670000000 1.0
C      1  0.5536870000000  0.5162030000000  0.5460730000000 1.0
C      1  0.5641790000000  0.4483470000000  0.4904090000000 1.0
C      1  0.5199780000000  0.5058790000000  0.4392000000000 1.0
C      1  0.5399060000000  0.5476900000000  0.4453870000000 1.0
C      1  0.4216700000000  0.5137030000000  0.4813650000000 1.0
C      1  0.5639810000000  0.4941150000000  0.4988690000000 1.0
C      1  0.4570250000000  0.5179010000000  0.5014220000000 1.0
C      1  0.4951070000000  0.5766100000000  0.5333030000000 1.0
C      1  0.5259880000000  0.5558020000000  0.5578460000000 1.0
C      1  0.4685970000000  0.4589310000000  0.4720490000000 1.0
C      1  0.4455510000000  0.4546550000000  0.4561840000000 1.0
C      1  0.5313630000000  0.4799770000000  0.5203760000000 1.0
C      1  0.4397330000000  0.4819660000000  0.4487550000000 1.0
C      1  0.5244290000000  0.4619360000000  0.4301190000000 1.0
C      1  0.4797280000000  0.4488240000000  0.5183550000000 1.0
C      1  0.4596450000000  0.5274470000000  0.4515800000000 1.0
C      1  0.4917680000000  0.5494350000000  0.5227570000000 1.0
C      1  0.5685460000000  0.5093660000000  0.4409910000000 1.0
C      1  0.4599880000000  0.4295760000000  0.5059680000000 1.0
C      1  0.5572090000000  0.5379400000000  0.4904010000000 1.0
C      1  0.5051860000000  0.5125910000000  0.4690250000000 1.0
C      1  0.5663870000000  0.4809250000000  0.4507280000000 1.0
C      1  0.5515520000000  0.5128750000000  0.4827770000000 1.0
C      1  0.5255630000000  0.4713870000000  0.4769260000000 1.0
C      1  0.4321700000000  0.4931660000000  0.5378920000000 1.0
C      1  0.4715030000000  0.4350420000000  0.4577660000000 1.0
C      1  0.4264090000000  0.5154670000000  0.5114310000000 1.0
C      1  0.4745270000000  0.5451080000000  0.5674910000000 1.0
C      1  0.4601620000000  0.4960950000000  0.4865930000000 1.0
C      1  0.4460480000000  0.4368200000000  0.5335560000000 1.0
C      1  0.4456030000000  0.5601130000000  0.5293650000000 1.0
C      1  0.5789310000000  0.4771380000000  0.5361350000000 1.0
C      1  0.5197490000000  0.5568180000000  0.4907230000000 1.0
C      1  0.5098300000000  0.4840340000000  0.4177070000000 1.0
C      1  0.4485020000000  0.5472470000000  0.5528800000000 1.0
C      1  0.5523700000000  0.4450100000000  0.5413640000000 1.0
C      1  0.4682800000000  0.5143950000000  0.5265390000000 1.0
C      1  0.4617950000000  0.4994570000000  0.4393610000000 1.0
C      1  0.5080510000000  0.4834150000000  0.5809040000000 1.0
C      1  0.4430440000000  0.4682130000000  0.5455060000000 1.0
C      1  0.5071490000000  0.5301550000000  0.4914860000000 1.0
C      1  0.5390040000000  0.4891420000000  0.5462650000000 1.0
C      1  0.5004460000000  0.5261560000000  0.4292960000000 1.0
C      1  0.4810120000000  0.4911630000000  0.5218220000000 1.0
C      1  0.5192230000000  0.4927510000000  0.4966910000000 1.0
C      1  0.5713790000000  0.4529420000000  0.5210430000000 1.0
C      1  0.5020740000000  0.5123130000000  0.5482840000000 1.0
C      1  0.4235520000000  0.4857740000000  0.4733270000000 1.0
C      1  0.5138800000000  0.5126200000000  0.5746560000000 1.0
C      1  0.4762800000000  0.4331140000000  0.5425310000000 1.0
C      1  0.4307630000000  0.5440200000000  0.5150610000000 1.0
C      1  0.4388640000000  0.5347430000000  0.4699520000000 1.0
C      1  0.4993300000000  0.5587100000000  0.4568200000000 1.0
C      1  0.4494940000000  0.5589970000000  0.4845520000000 1.0
C      1  0.5030130000000  0.4208730000000  0.5349780000000 1.0
C      1  0.5429450000000  0.5546650000000  0.4731500000000 1.0
C      1  0.5107030000000  0.5270170000000  0.5216950000000 1.0
C      1  0.4374090000000  0.4465460000000  0.5058350000000 1.0
C      1  0.5473000000000  0.4381140000000  0.4639590000000 1.0
C      1  0.5436450000000  0.5217460000000  0.4330300000000 1.0
C      1  0.5504180000000  0.4570100000000  0.4419190000000 1.0
C      1  0.4467680000000  0.5148250000000  0.5522170000000 1.0
C      1  0.5442070000000  0.5336580000000  0.5207760000000 1.0
C      1  0.5358500000000  0.5305120000000  0.5667270000000 1.0
C      1  0.4952080000000  0.4583250000000  0.5030990000000 1.0
C      1  0.5579750000000  0.4698060000000  0.5566590000000 1.0
C      1  0.5214640000000  0.4251910000000  0.4677360000000 1.0
C      1  0.5730070000000  0.5033790000000  0.5248710000000 1.0
END
