TITL C-2441156-4686-420 0.122007575009471 125000 -24237.6383095217 0 0 189 (C1) n - 1
REM
REM in /home/bkarasulu/work/CARBON/AIRSS/Generating-Clusters/ReaxFF-fromJPCA2015/Units_Real/with-SteepDescent/Higher-Symm
REM
REM
REM
REM
REM
REM ./C.cell (1df0a924f5614ab8850e4351716899ee)
REM
REM compiler GCC version 9.2.1 20190827 (Red Hat 9.2.1-1)
REM options -cpp -mtune=generic -march=x86-64 -g -O0 -fpre-include=/usr/include/finclude/math-vector-fortran.h
REM seed -591060497 -1733685109 394341156 210051534 953372001 1373939809 -1958863675 618577565 1955318203 213909378 -1789327673 1469643315 -995638273 695909539 948382279 1405189187 1897222814 -1987841317 2077440130 -749808635 1698436250 1162475573 2023714272 753071196 215778122 34846922 1068540058 1852330931 -1820610572 -95278916 -2106094536 -4438440 1043598328
REM
CELL 1.54180   50.00000   50.00000   50.00000   90.00000   90.00000   90.00000
LATT -1
SFAC C  
C      1  0.5468750000000  0.4791410000000  0.4522530000000 1.0
C      1  0.4541070000000  0.5252140000000  0.4502840000000 1.0
C      1  0.4568680000000  0.4775850000000  0.5539560000000 1.0
C      1  0.5393310000000  0.5203710000000  0.5545570000000 1.0
C      1  0.4714730000000  0.5452530000000  0.4524550000000 1.0
C      1  0.5283490000000  0.4560210000000  0.4543110000000 1.0
C      1  0.4741430000000  0.4582670000000  0.5481170000000 1.0
C      1  0.5237040000000  0.5395790000000  0.5466470000000 1.0
C      1  0.5155980000000  0.6043510000000  0.5320900000000 1.0
C      1  0.4843700000000  0.3952110000000  0.5308410000000 1.0
C      1  0.4900570000000  0.6102850000000  0.4655450000000 1.0
C      1  0.5144270000000  0.3945790000000  0.4680420000000 1.0
C      1  0.6122150000000  0.5114760000000  0.5304050000000 1.0
C      1  0.3902070000000  0.4880200000000  0.5306620000000 1.0
C      1  0.6063140000000  0.4866440000000  0.4661890000000 1.0
C      1  0.3928660000000  0.5223960000000  0.4712600000000 1.0
C      1  0.5627000000000  0.5745900000000  0.5487010000000 1.0
C      1  0.4361140000000  0.4220780000000  0.5488120000000 1.0
C      1  0.4396290000000  0.5820320000000  0.4707960000000 1.0
C      1  0.5630510000000  0.4136920000000  0.4685640000000 1.0
C      1  0.5822440000000  0.5611350000000  0.5287150000000 1.0
C      1  0.4162430000000  0.4366960000000  0.5302960000000 1.0
C      1  0.5817420000000  0.4347190000000  0.4560440000000 1.0
C      1  0.4248440000000  0.5630700000000  0.4501570000000 1.0
C      1  0.4975900000000  0.5219620000000  0.5868990000000 1.0
C      1  0.4965470000000  0.4797800000000  0.5894960000000 1.0
C      1  0.5015340000000  0.5214740000000  0.4208760000000 1.0
C      1  0.5005360000000  0.4792540000000  0.4233160000000 1.0
C      1  0.5173020000000  0.4991090000000  0.5841740000000 1.0
C      1  0.4783820000000  0.5015670000000  0.5907350000000 1.0
C      1  0.5205380000000  0.4985990000000  0.4219110000000 1.0
C      1  0.4816820000000  0.5002390000000  0.4220210000000 1.0
C      1  0.6024390000000  0.4865900000000  0.5458050000000 1.0
C      1  0.4006150000000  0.5118390000000  0.5485220000000 1.0
C      1  0.3993450000000  0.4790490000000  0.4717890000000 1.0
C      1  0.5961640000000  0.5134340000000  0.4521200000000 1.0
C      1  0.4881770000000  0.5976530000000  0.5456140000000 1.0
C      1  0.5110120000000  0.4025520000000  0.5446080000000 1.0
C      1  0.4896550000000  0.4032460000000  0.4506830000000 1.0
C      1  0.5106680000000  0.6006400000000  0.4470800000000 1.0
C      1  0.5959970000000  0.4565390000000  0.5454800000000 1.0
C      1  0.4020200000000  0.5423090000000  0.5499950000000 1.0
C      1  0.4055960000000  0.4534970000000  0.4561500000000 1.0
C      1  0.5942980000000  0.5444880000000  0.4543770000000 1.0
C      1  0.4588640000000  0.5968440000000  0.5436560000000 1.0
C      1  0.5405120000000  0.4026490000000  0.5461700000000 1.0
C      1  0.4602090000000  0.4034910000000  0.4484150000000 1.0
C      1  0.5395500000000  0.6004390000000  0.4474160000000 1.0
C      1  0.5362210000000  0.5622910000000  0.4084760000000 1.0
C      1  0.4634490000000  0.4464350000000  0.4165700000000 1.0
C      1  0.4622850000000  0.5641990000000  0.5889020000000 1.0
C      1  0.5383700000000  0.4409050000000  0.5867910000000 1.0
C      1  0.5575020000000  0.5424040000000  0.4134650000000 1.0
C      1  0.4399970000000  0.4701540000000  0.4158390000000 1.0
C      1  0.5589000000000  0.4674310000000  0.5863500000000 1.0
C      1  0.4433430000000  0.5417090000000  0.5853590000000 1.0
C      1  0.5587280000000  0.5181070000000  0.4823630000000 1.0
C      1  0.4485090000000  0.4830060000000  0.4837560000000 1.0
C      1  0.4430730000000  0.5165710000000  0.5153250000000 1.0
C      1  0.5551720000000  0.4811200000000  0.5153830000000 1.0
C      1  0.5120420000000  0.5567460000000  0.4838140000000 1.0
C      1  0.4818030000000  0.4449030000000  0.4832130000000 1.0
C      1  0.5137630000000  0.4412240000000  0.5132230000000 1.0
C      1  0.4903170000000  0.5636860000000  0.5209230000000 1.0
C      1  0.4565360000000  0.4213880000000  0.4270150000000 1.0
C      1  0.5472310000000  0.5785030000000  0.4303320000000 1.0
C      1  0.5481560000000  0.4242950000000  0.5644080000000 1.0
C      1  0.4507140000000  0.5771570000000  0.5638430000000 1.0
C      1  0.4158990000000  0.4577780000000  0.4291540000000 1.0
C      1  0.5803410000000  0.5464540000000  0.4302170000000 1.0
C      1  0.4184830000000  0.5456320000000  0.5724200000000 1.0
C      1  0.5834780000000  0.4575260000000  0.5718180000000 1.0
C      1  0.4982000000000  0.5375120000000  0.4474310000000 1.0
C      1  0.5014770000000  0.4666200000000  0.4497880000000 1.0
C      1  0.4972620000000  0.5289660000000  0.5406970000000 1.0
C      1  0.5002850000000  0.4708980000000  0.5429060000000 1.0
C      1  0.5322660000000  0.5010420000000  0.4467120000000 1.0
C      1  0.4674330000000  0.5004640000000  0.4494960000000 1.0
C      1  0.5271220000000  0.4951330000000  0.5552040000000 1.0
C      1  0.4678660000000  0.5022950000000  0.5472990000000 1.0
C      1  0.5537720000000  0.5362020000000  0.4616970000000 1.0
C      1  0.4461250000000  0.4627440000000  0.4631790000000 1.0
C      1  0.4423510000000  0.5351920000000  0.5370890000000 1.0
C      1  0.5549670000000  0.4639880000000  0.5366160000000 1.0
C      1  0.5382960000000  0.5601520000000  0.4549280000000 1.0
C      1  0.4647000000000  0.4428050000000  0.4628170000000 1.0
C      1  0.5392380000000  0.4424210000000  0.5402080000000 1.0
C      1  0.4566720000000  0.5566600000000  0.5432740000000 1.0
C      1  0.5361640000000  0.5462220000000  0.5221270000000 1.0
C      1  0.4644240000000  0.4509280000000  0.5230250000000 1.0
C      1  0.4717470000000  0.5444200000000  0.4915140000000 1.0
C      1  0.5347740000000  0.4505330000000  0.4812000000000 1.0
C      1  0.5542100000000  0.5287640000000  0.5093730000000 1.0
C      1  0.4434920000000  0.4647420000000  0.5089750000000 1.0
C      1  0.5589680000000  0.4643720000000  0.4904350000000 1.0
C      1  0.4455490000000  0.5329560000000  0.4846620000000 1.0
C      1  0.4113850000000  0.5564570000000  0.5064510000000 1.0
C      1  0.5720270000000  0.4389100000000  0.5017560000000 1.0
C      1  0.5737400000000  0.5671230000000  0.5005150000000 1.0
C      1  0.4263840000000  0.4340090000000  0.5017240000000 1.0
C      1  0.5567090000000  0.4124460000000  0.4997800000000 1.0
C      1  0.4350050000000  0.5751890000000  0.4991830000000 1.0
C      1  0.5536280000000  0.5881290000000  0.4935550000000 1.0
C      1  0.4455380000000  0.4090880000000  0.4960360000000 1.0
C      1  0.5252560000000  0.4011860000000  0.4945970000000 1.0
C      1  0.4947190000000  0.5976930000000  0.4915240000000 1.0
C      1  0.4730570000000  0.4030800000000  0.5045620000000 1.0
C      1  0.5222620000000  0.5976610000000  0.5038250000000 1.0
C      1  0.4026000000000  0.5309190000000  0.4965350000000 1.0
C      1  0.6071410000000  0.4814400000000  0.4961220000000 1.0
C      1  0.4023400000000  0.4850000000000  0.5021060000000 1.0
C      1  0.5975270000000  0.5089600000000  0.5054390000000 1.0
C      1  0.4618740000000  0.5996120000000  0.4652910000000 1.0
C      1  0.5397440000000  0.4024470000000  0.4582240000000 1.0
C      1  0.5404560000000  0.5929950000000  0.5415340000000 1.0
C      1  0.4586340000000  0.4039420000000  0.5425600000000 1.0
C      1  0.5967480000000  0.4594000000000  0.4619980000000 1.0
C      1  0.4059270000000  0.5437330000000  0.4582300000000 1.0
C      1  0.6003700000000  0.5388220000000  0.5338590000000 1.0
C      1  0.4000070000000  0.4601940000000  0.5365190000000 1.0
C      1  0.5277450000000  0.4897100000000  0.5159420000000 1.0
C      1  0.4697410000000  0.5035380000000  0.5179530000000 1.0
C      1  0.4743560000000  0.4944150000000  0.4790140000000 1.0
C      1  0.5188970000000  0.5085250000000  0.4736340000000 1.0
C      1  0.4915010000000  0.5227920000000  0.5119110000000 1.0
C      1  0.5082370000000  0.4691800000000  0.5140230000000 1.0
C      1  0.4929820000000  0.4721020000000  0.4820580000000 1.0
C      1  0.5081420000000  0.5328390000000  0.4719240000000 1.0
C      1  0.5382020000000  0.4417230000000  0.4298140000000 1.0
C      1  0.4663710000000  0.5665090000000  0.4340880000000 1.0
C      1  0.4711190000000  0.4404070000000  0.5783330000000 1.0
C      1  0.5287980000000  0.5574450000000  0.5770730000000 1.0
C      1  0.4386300000000  0.5264930000000  0.4244010000000 1.0
C      1  0.5614620000000  0.4640170000000  0.4283880000000 1.0
C      1  0.4348350000000  0.4657380000000  0.5682630000000 1.0
C      1  0.5631050000000  0.5255200000000  0.5712720000000 1.0
C      1  0.4904630000000  0.5650000000000  0.5881760000000 1.0
C      1  0.5103480000000  0.4363630000000  0.5896620000000 1.0
C      1  0.5068910000000  0.5604430000000  0.4039810000000 1.0
C      1  0.5038730000000  0.4392840000000  0.4096520000000 1.0
C      1  0.5587420000000  0.5019390000000  0.5906330000000 1.0
C      1  0.4311680000000  0.4857350000000  0.5888480000000 1.0
C      1  0.5646020000000  0.4873070000000  0.4105520000000 1.0
C      1  0.4444150000000  0.5034970000000  0.4075050000000 1.0
C      1  0.4477520000000  0.5204630000000  0.5611460000000 1.0
C      1  0.5534680000000  0.4798440000000  0.5584300000000 1.0
C      1  0.5517990000000  0.5202940000000  0.4378730000000 1.0
C      1  0.4429350000000  0.4831300000000  0.4434940000000 1.0
C      1  0.5147950000000  0.4490360000000  0.5526430000000 1.0
C      1  0.4833490000000  0.5532430000000  0.5461800000000 1.0
C      1  0.5123360000000  0.5593050000000  0.4427180000000 1.0
C      1  0.4822030000000  0.4470190000000  0.4409810000000 1.0
C      1  0.4777790000000  0.4602470000000  0.5989900000000 1.0
C      1  0.5184970000000  0.5384950000000  0.5982330000000 1.0
C      1  0.5151950000000  0.4640870000000  0.4006890000000 1.0
C      1  0.4919300000000  0.5365330000000  0.3973900000000 1.0
C      1  0.4578750000000  0.4838530000000  0.6013260000000 1.0
C      1  0.5369410000000  0.5143680000000  0.6034010000000 1.0
C      1  0.4691780000000  0.5137000000000  0.3979010000000 1.0
C      1  0.5374980000000  0.4846010000000  0.4012500000000 1.0
C      1  0.4299440000000  0.5085060000000  0.4778680000000 1.0
C      1  0.5640750000000  0.4900330000000  0.4733530000000 1.0
C      1  0.5709920000000  0.5077870000000  0.5211800000000 1.0
C      1  0.4274740000000  0.4887510000000  0.5167110000000 1.0
C      1  0.5205710000000  0.4292890000000  0.4908360000000 1.0
C      1  0.4862030000000  0.5698940000000  0.4829210000000 1.0
C      1  0.5172310000000  0.5635130000000  0.5104440000000 1.0
C      1  0.4827170000000  0.4327230000000  0.5093000000000 1.0
C      1  0.5025420000000  0.4224900000000  0.4331910000000 1.0
C      1  0.4954480000000  0.5782310000000  0.4276440000000 1.0
C      1  0.5018340000000  0.4234280000000  0.5642540000000 1.0
C      1  0.4996200000000  0.5789870000000  0.5653160000000 1.0
C      1  0.4143460000000  0.4976610000000  0.4551190000000 1.0
C      1  0.5750240000000  0.5014750000000  0.4359620000000 1.0
C      1  0.4205460000000  0.5046850000000  0.5683790000000 1.0
C      1  0.5780420000000  0.5011100000000  0.5534310000000 1.0
C      1  0.4371340000000  0.4095210000000  0.4687640000000 1.0
C      1  0.5636120000000  0.5908500000000  0.4679160000000 1.0
C      1  0.5651570000000  0.4091440000000  0.5289300000000 1.0
C      1  0.4351610000000  0.5859670000000  0.5261440000000 1.0
C      1  0.4168380000000  0.4305760000000  0.4733030000000 1.0
C      1  0.5830640000000  0.5671260000000  0.4724330000000 1.0
C      1  0.4120460000000  0.5664020000000  0.5333940000000 1.0
C      1  0.5824170000000  0.4344540000000  0.5271030000000 1.0
C      1  0.4426430000000  0.4375120000000  0.5724570000000 1.0
C      1  0.5661440000000  0.4338810000000  0.4317270000000 1.0
C      1  0.4405010000000  0.5565290000000  0.4261480000000 1.0
C      1  0.5568380000000  0.5573410000000  0.5708240000000 1.0
C      1  0.5153450000000  0.5082130000000  0.5009330000000 1.0
END
