TITL C-2441160-1326-1187 0.0571610584080802 125000 -8843.78720050573 0 0 75 (C1) n - 1
REM
REM in /home/bkarasulu/work/CARBON/AIRSS/Generating-Clusters/ReaxFF-fromJPCA2015/Units_Real/with-SteepDescent/Higher-Symm
REM
REM
REM
REM
REM
REM ./C.cell (1df0a924f5614ab8850e4351716899ee)
REM
REM compiler GCC version 9.2.1 20190827 (Red Hat 9.2.1-1)
REM options -cpp -mtune=generic -march=x86-64 -g -O0 -fpre-include=/usr/include/finclude/math-vector-fortran.h
REM seed 350374817 602944809 1457147038 -343890644 1488550022 90437263 1133532444 -1997646835 -1683409806 78279095 651950997 1977673820 -428365215 -1675387626 1151571294 -1929487569 -1532770499 699745832 217570162 -118517165 -417680160 -1587181366 123372703 -1833351813 1766396730 -1973919875 196940676 621999783 23907304 -1056655700 -985175494 1276105382 -1124252222
REM
CELL 1.54180   50.00000   50.00000   50.00000   90.00000   90.00000   90.00000
LATT -1
SFAC C  
C      1  0.5247030000000  0.4684500000000  0.5782270000000 1.0
C      1  0.5367490000000  0.4947730000000  0.4229350000000 1.0
C      1  0.5314680000000  0.5226090000000  0.5781550000000 1.0
C      1  0.5063310000000  0.5385840000000  0.4221020000000 1.0
C      1  0.4776290000000  0.5311000000000  0.5781590000000 1.0
C      1  0.4643250000000  0.5047270000000  0.4231540000000 1.0
C      1  0.4716570000000  0.4777940000000  0.5764350000000 1.0
C      1  0.4963550000000  0.4613330000000  0.4219680000000 1.0
C      1  0.5221380000000  0.4713710000000  0.4281610000000 1.0
C      1  0.5381010000000  0.4936360000000  0.5743010000000 1.0
C      1  0.5308890000000  0.5229830000000  0.4244090000000 1.0
C      1  0.5063930000000  0.5368060000000  0.5751830000000 1.0
C      1  0.4795900000000  0.5291970000000  0.4273450000000 1.0
C      1  0.4655740000000  0.5055170000000  0.5727120000000 1.0
C      1  0.4710880000000  0.4769590000000  0.4248410000000 1.0
C      1  0.4962160000000  0.4628720000000  0.5755970000000 1.0
C      1  0.5532350000000  0.5301350000000  0.5439610000000 1.0
C      1  0.5165550000000  0.5587450000000  0.4555450000000 1.0
C      1  0.4707130000000  0.5528200000000  0.5442780000000 1.0
C      1  0.4437270000000  0.5152120000000  0.4571480000000 1.0
C      1  0.4491030000000  0.4700940000000  0.5425750000000 1.0
C      1  0.4848330000000  0.4420060000000  0.4559570000000 1.0
C      1  0.5311950000000  0.4478190000000  0.5441470000000 1.0
C      1  0.5583270000000  0.4852500000000  0.4562870000000 1.0
C      1  0.4726270000000  0.4886230000000  0.5488820000000 1.0
C      1  0.4875820000000  0.4679030000000  0.4467460000000 1.0
C      1  0.5149420000000  0.4684850000000  0.5543620000000 1.0
C      1  0.5285920000000  0.4873010000000  0.4500060000000 1.0
C      1  0.5329920000000  0.5119470000000  0.5527690000000 1.0
C      1  0.5141010000000  0.5324450000000  0.4458130000000 1.0
C      1  0.4882990000000  0.5319910000000  0.5532860000000 1.0
C      1  0.4733400000000  0.5114650000000  0.4497480000000 1.0
C      1  0.4313390000000  0.4950590000000  0.4987570000000 1.0
C      1  0.4556470000000  0.4479620000000  0.5009370000000 1.0
C      1  0.5043630000000  0.4319520000000  0.4997540000000 1.0
C      1  0.5516190000000  0.4540960000000  0.5006970000000 1.0
C      1  0.5683720000000  0.5041820000000  0.4995770000000 1.0
C      1  0.5452650000000  0.5508420000000  0.5006360000000 1.0
C      1  0.4961740000000  0.5678280000000  0.4995980000000 1.0
C      1  0.4484560000000  0.5457640000000  0.4999790000000 1.0
C      1  0.4926870000000  0.5379780000000  0.4945570000000 1.0
C      1  0.4677280000000  0.5221230000000  0.5046050000000 1.0
C      1  0.4606460000000  0.4947780000000  0.4941140000000 1.0
C      1  0.4788500000000  0.4667520000000  0.5083150000000 1.0
C      1  0.5036560000000  0.4607120000000  0.4951040000000 1.0
C      1  0.5303250000000  0.4752320000000  0.5037440000000 1.0
C      1  0.5387700000000  0.5078740000000  0.4935640000000 1.0
C      1  0.5230350000000  0.5307720000000  0.5065080000000 1.0
C      1  0.5165620000000  0.5477530000000  0.5311100000000 1.0
C      1  0.4788580000000  0.5459670000000  0.4702930000000 1.0
C      1  0.4517280000000  0.5168710000000  0.5287760000000 1.0
C      1  0.4553720000000  0.4776580000000  0.4712810000000 1.0
C      1  0.4845630000000  0.4495950000000  0.5314040000000 1.0
C      1  0.5293830000000  0.4496460000000  0.4663500000000 1.0
C      1  0.5472730000000  0.4843530000000  0.5293340000000 1.0
C      1  0.5460640000000  0.5227480000000  0.4699620000000 1.0
C      1  0.5560580000000  0.4565590000000  0.5297200000000 1.0
C      1  0.5712130000000  0.5079840000000  0.4704760000000 1.0
C      1  0.5449770000000  0.5550230000000  0.5295900000000 1.0
C      1  0.4938470000000  0.5707560000000  0.4703300000000 1.0
C      1  0.4458780000000  0.5450690000000  0.5291530000000 1.0
C      1  0.4299730000000  0.4918500000000  0.4696110000000 1.0
C      1  0.4559730000000  0.4436500000000  0.5300990000000 1.0
C      1  0.5090560000000  0.4299910000000  0.4697970000000 1.0
C      1  0.5404280000000  0.5514750000000  0.4718580000000 1.0
C      1  0.4922500000000  0.5647680000000  0.5284890000000 1.0
C      1  0.4489080000000  0.5398110000000  0.4717620000000 1.0
C      1  0.4360440000000  0.4916930000000  0.5280430000000 1.0
C      1  0.4612650000000  0.4483160000000  0.4727280000000 1.0
C      1  0.5095270000000  0.4347420000000  0.5287190000000 1.0
C      1  0.5555710000000  0.4597460000000  0.4708900000000 1.0
C      1  0.5652290000000  0.5082750000000  0.5280190000000 1.0
C      1  0.5013860000000  0.4997220000000  0.4708520000000 1.0
C      1  0.4954430000000  0.4981330000000  0.5248630000000 1.0
C      1  0.4992150000000  0.4994950000000  0.4993580000000 1.0
END
