TITL C-2441160-1326-1362 -0.0119958292611897 125000 -14692.1382587009 0 0 96 (C1) n - 1
REM
REM in /home/bkarasulu/work/CARBON/AIRSS/Generating-Clusters/ReaxFF-fromJPCA2015/Units_Real/with-SteepDescent/Higher-Symm
REM
REM
REM
REM
REM
REM ./C.cell (1df0a924f5614ab8850e4351716899ee)
REM
REM compiler GCC version 9.2.1 20190827 (Red Hat 9.2.1-1)
REM options -cpp -mtune=generic -march=x86-64 -g -O0 -fpre-include=/usr/include/finclude/math-vector-fortran.h
REM seed -448979612 1101169135 -1359822787 18033833 -576752784 -865144840 -571179717 -1031807958 -1542885752 1128283169 -492311447 -877122929 2011638981 638842339 436109809 951235331 1229345315 391580205 -2069475298 963616583 -742848011 -925989797 -946058688 1311637248 1809695436 145373346 -771446975 -1349895507 54340869 382252220 -169791948 -1077689663 1311258299
REM
CELL 1.54180   50.00000   50.00000   50.00000   90.00000   90.00000   90.00000
LATT -1
SFAC C  
C      1  0.5704510000000  0.5535830000000  0.5243570000000 1.0
C      1  0.4853620000000  0.5503940000000  0.4259630000000 1.0
C      1  0.4433490000000  0.5535750000000  0.5498680000000 1.0
C      1  0.5714920000000  0.4464590000000  0.4758060000000 1.0
C      1  0.4859720000000  0.4462720000000  0.5730330000000 1.0
C      1  0.4431020000000  0.4495590000000  0.4502240000000 1.0
C      1  0.4294530000000  0.4484440000000  0.4747060000000 1.0
C      1  0.5140680000000  0.4459620000000  0.5729500000000 1.0
C      1  0.5564400000000  0.4474940000000  0.4498070000000 1.0
C      1  0.4283480000000  0.5526450000000  0.5238240000000 1.0
C      1  0.5133900000000  0.5514980000000  0.4263580000000 1.0
C      1  0.5563040000000  0.5542570000000  0.5487230000000 1.0
C      1  0.5285910000000  0.5564390000000  0.4502410000000 1.0
C      1  0.4427740000000  0.5564280000000  0.4987860000000 1.0
C      1  0.5280530000000  0.5583010000000  0.5490550000000 1.0
C      1  0.5281510000000  0.4418110000000  0.5487820000000 1.0
C      1  0.4425570000000  0.4435160000000  0.4997960000000 1.0
C      1  0.5275630000000  0.4435820000000  0.4496950000000 1.0
C      1  0.4713470000000  0.4423150000000  0.5489810000000 1.0
C      1  0.5566490000000  0.4424810000000  0.5006260000000 1.0
C      1  0.4711040000000  0.4442070000000  0.4497040000000 1.0
C      1  0.4709530000000  0.5557710000000  0.4499800000000 1.0
C      1  0.5568980000000  0.5576260000000  0.4997510000000 1.0
C      1  0.4722940000000  0.5575560000000  0.5494300000000 1.0
C      1  0.4362140000000  0.5201180000000  0.4477690000000 1.0
C      1  0.4854690000000  0.5250510000000  0.5812600000000 1.0
C      1  0.5779300000000  0.5242530000000  0.4734640000000 1.0
C      1  0.4380630000000  0.4756400000000  0.5542340000000 1.0
C      1  0.4866740000000  0.4798260000000  0.4186750000000 1.0
C      1  0.5777670000000  0.4750830000000  0.5281410000000 1.0
C      1  0.5621780000000  0.4748770000000  0.5538410000000 1.0
C      1  0.5164530000000  0.4764730000000  0.4182000000000 1.0
C      1  0.4222970000000  0.4765810000000  0.5285550000000 1.0
C      1  0.5635600000000  0.5234000000000  0.4469690000000 1.0
C      1  0.5154840000000  0.5252340000000  0.5807130000000 1.0
C      1  0.4209140000000  0.5234160000000  0.4733350000000 1.0
C      1  0.4692830000000  0.4556980000000  0.4999160000000 1.0
C      1  0.5153930000000  0.4556640000000  0.5260570000000 1.0
C      1  0.5150770000000  0.4554880000000  0.4728860000000 1.0
C      1  0.4690860000000  0.5445300000000  0.4996290000000 1.0
C      1  0.5153710000000  0.5443270000000  0.4734990000000 1.0
C      1  0.5149540000000  0.5443370000000  0.5265310000000 1.0
C      1  0.5304360000000  0.5442460000000  0.4996900000000 1.0
C      1  0.4842990000000  0.5445110000000  0.4733890000000 1.0
C      1  0.4847580000000  0.5444280000000  0.5266620000000 1.0
C      1  0.5306490000000  0.4555890000000  0.4999990000000 1.0
C      1  0.4844480000000  0.4556910000000  0.5260310000000 1.0
C      1  0.4847060000000  0.4555380000000  0.4729290000000 1.0
C      1  0.5403750000000  0.4860480000000  0.5704890000000 1.0
C      1  0.5421700000000  0.4863950000000  0.4290510000000 1.0
C      1  0.4177960000000  0.4862500000000  0.5008570000000 1.0
C      1  0.5418180000000  0.5137080000000  0.4292620000000 1.0
C      1  0.5408670000000  0.5139620000000  0.5700210000000 1.0
C      1  0.4173610000000  0.5135700000000  0.5010420000000 1.0
C      1  0.4595700000000  0.5129680000000  0.4295640000000 1.0
C      1  0.4598580000000  0.5136430000000  0.5713750000000 1.0
C      1  0.5817060000000  0.5140290000000  0.5010800000000 1.0
C      1  0.4600410000000  0.4859160000000  0.5713950000000 1.0
C      1  0.4592390000000  0.4869940000000  0.4298070000000 1.0
C      1  0.5818350000000  0.4863740000000  0.5009140000000 1.0
C      1  0.5783160000000  0.4745540000000  0.4733190000000 1.0
C      1  0.4364320000000  0.4781280000000  0.4476630000000 1.0
C      1  0.4853700000000  0.4735950000000  0.5813510000000 1.0
C      1  0.5778060000000  0.5263810000000  0.5279570000000 1.0
C      1  0.4376130000000  0.5254990000000  0.5545010000000 1.0
C      1  0.4864680000000  0.5218340000000  0.4188320000000 1.0
C      1  0.4216150000000  0.5248540000000  0.5286450000000 1.0
C      1  0.5623890000000  0.5265220000000  0.5536790000000 1.0
C      1  0.5163280000000  0.5245840000000  0.4184450000000 1.0
C      1  0.4212110000000  0.4753830000000  0.4733560000000 1.0
C      1  0.5640080000000  0.4752780000000  0.4464940000000 1.0
C      1  0.5152750000000  0.4734510000000  0.5809030000000 1.0
C      1  0.4754910000000  0.5128110000000  0.5299370000000 1.0
C      1  0.5379110000000  0.5128230000000  0.5063480000000 1.0
C      1  0.4866940000000  0.5128100000000  0.4644870000000 1.0
C      1  0.4757940000000  0.4872230000000  0.4706700000000 1.0
C      1  0.5381360000000  0.4871690000000  0.4937270000000 1.0
C      1  0.4865480000000  0.4871260000000  0.5359100000000 1.0
C      1  0.5245130000000  0.4870200000000  0.4703700000000 1.0
C      1  0.4621390000000  0.4873870000000  0.4938560000000 1.0
C      1  0.5135520000000  0.4871890000000  0.5359440000000 1.0
C      1  0.5244630000000  0.5128440000000  0.5298250000000 1.0
C      1  0.4620360000000  0.5129870000000  0.5064460000000 1.0
C      1  0.5135850000000  0.5126480000000  0.4642550000000 1.0
C      1  0.4296160000000  0.5500570000000  0.4743680000000 1.0
C      1  0.5142320000000  0.5525030000000  0.5730420000000 1.0
C      1  0.5562300000000  0.5503630000000  0.4512930000000 1.0
C      1  0.4296910000000  0.4496340000000  0.5242750000000 1.0
C      1  0.5129580000000  0.4497850000000  0.4260740000000 1.0
C      1  0.5562030000000  0.4473380000000  0.5488780000000 1.0
C      1  0.5701410000000  0.4480940000000  0.5244770000000 1.0
C      1  0.4850190000000  0.4513070000000  0.4256980000000 1.0
C      1  0.4437000000000  0.4484600000000  0.5485600000000 1.0
C      1  0.5702840000000  0.5514520000000  0.4755480000000 1.0
C      1  0.4862300000000  0.5522880000000  0.5731880000000 1.0
C      1  0.4432360000000  0.5485900000000  0.4500030000000 1.0
END
