TITL C-2441166-8118-1398 0.0141845425035563 125000 -7875.22628670637 0 0 54 (C1) n - 1
REM
REM in /home/bkarasulu/work/CARBON/AIRSS/Generating-Clusters/ReaxFF-fromJPCA2015/Units_Real/with-SteepDescent/Higher-Symm
REM
REM
REM
REM
REM
REM ./C.cell (1df0a924f5614ab8850e4351716899ee)
REM
REM compiler GCC version 9.2.1 20190827 (Red Hat 9.2.1-1)
REM options -cpp -mtune=generic -march=x86-64 -g -O0 -fpre-include=/usr/include/finclude/math-vector-fortran.h
REM seed -2083063385 -838661115 1342262466 -1271853233 -610713431 1057493949 354677705 -909561521 -1953274901 615994693 -1957532522 695876460 240904410 2119921526 115170273 -1153815307 -67924791 1305065037 -2089289602 960311850 1716386053 -1240836297 -98447773 -700344576 67930691 1605800234 836730158 688495879 -383987435 -721911491 -1472956491 802676988 438326320
REM
CELL 1.54180   50.00000   50.00000   50.00000   90.00000   90.00000   90.00000
LATT -1
SFAC C  
C      1  0.4649750000000  0.4667960000000  0.4625750000000 1.0
C      1  0.5476560000000  0.4847850000000  0.4634520000000 1.0
C      1  0.4896200000000  0.5471100000000  0.4634240000000 1.0
C      1  0.4653650000000  0.4684010000000  0.5360920000000 1.0
C      1  0.5465650000000  0.4842420000000  0.5354570000000 1.0
C      1  0.4906530000000  0.5454970000000  0.5354200000000 1.0
C      1  0.4640210000000  0.5327520000000  0.4631220000000 1.0
C      1  0.5464980000000  0.5134660000000  0.4626770000000 1.0
C      1  0.4896470000000  0.4520590000000  0.4638770000000 1.0
C      1  0.4642620000000  0.5309820000000  0.5353960000000 1.0
C      1  0.5453260000000  0.5138150000000  0.5365850000000 1.0
C      1  0.4908390000000  0.4532030000000  0.5349640000000 1.0
C      1  0.4499220000000  0.5151800000000  0.5552890000000 1.0
C      1  0.5126990000000  0.4481900000000  0.5538640000000 1.0
C      1  0.5357240000000  0.5325090000000  0.5572940000000 1.0
C      1  0.4496540000000  0.5151090000000  0.4452500000000 1.0
C      1  0.5128060000000  0.4476870000000  0.4467570000000 1.0
C      1  0.5359300000000  0.5326680000000  0.4433140000000 1.0
C      1  0.4538860000000  0.4854810000000  0.5572950000000 1.0
C      1  0.5117480000000  0.5504650000000  0.5549400000000 1.0
C      1  0.5389650000000  0.4629930000000  0.5541850000000 1.0
C      1  0.4534820000000  0.4853340000000  0.4432260000000 1.0
C      1  0.5120850000000  0.5508200000000  0.4455020000000 1.0
C      1  0.5391270000000  0.4627100000000  0.4465150000000 1.0
C      1  0.5270770000000  0.5237440000000  0.5837580000000 1.0
C      1  0.4577900000000  0.5183340000000  0.5843050000000 1.0
C      1  0.5085320000000  0.4550850000000  0.5821740000000 1.0
C      1  0.5270700000000  0.5236440000000  0.4169900000000 1.0
C      1  0.4578380000000  0.5180320000000  0.4162520000000 1.0
C      1  0.5086110000000  0.4549680000000  0.4184520000000 1.0
C      1  0.5345650000000  0.4700550000000  0.5824120000000 1.0
C      1  0.4658090000000  0.4884170000000  0.5837830000000 1.0
C      1  0.5051770000000  0.5457040000000  0.5840630000000 1.0
C      1  0.5345540000000  0.4698950000000  0.4182560000000 1.0
C      1  0.4658230000000  0.4883880000000  0.4169630000000 1.0
C      1  0.5054310000000  0.5454560000000  0.4164570000000 1.0
C      1  0.4730190000000  0.5163640000000  0.4865660000000 1.0
C      1  0.4977680000000  0.4690960000000  0.4865810000000 1.0
C      1  0.5300920000000  0.5146750000000  0.4866260000000 1.0
C      1  0.4609930000000  0.5131710000000  0.5131990000000 1.0
C      1  0.5073800000000  0.4609390000000  0.5127800000000 1.0
C      1  0.5323960000000  0.5249460000000  0.5136500000000 1.0
C      1  0.4721890000000  0.4820530000000  0.4865580000000 1.0
C      1  0.4990140000000  0.5306660000000  0.4865410000000 1.0
C      1  0.5295530000000  0.4865300000000  0.4866370000000 1.0
C      1  0.4606120000000  0.4848890000000  0.5132420000000 1.0
C      1  0.5074670000000  0.5379990000000  0.5135010000000 1.0
C      1  0.5319830000000  0.4741800000000  0.5128410000000 1.0
C      1  0.4803570000000  0.5339900000000  0.5861310000000 1.0
C      1  0.4938870000000  0.4808110000000  0.5866720000000 1.0
C      1  0.5196310000000  0.4955560000000  0.4135690000000 1.0
C      1  0.4804640000000  0.5337950000000  0.4141580000000 1.0
C      1  0.5196030000000  0.4956450000000  0.5867270000000 1.0
C      1  0.4938630000000  0.4807160000000  0.4136850000000 1.0
END
