TITL C-2441166-8118-181 0.0616749609103164 125000 -16253.8661362115 0 0 119 (C1) n - 1
REM
REM in /home/bkarasulu/work/CARBON/AIRSS/Generating-Clusters/ReaxFF-fromJPCA2015/Units_Real/with-SteepDescent/Higher-Symm
REM
REM
REM
REM
REM
REM ./C.cell (1df0a924f5614ab8850e4351716899ee)
REM
REM compiler GCC version 9.2.1 20190827 (Red Hat 9.2.1-1)
REM options -cpp -mtune=generic -march=x86-64 -g -O0 -fpre-include=/usr/include/finclude/math-vector-fortran.h
REM seed -1903929405 149772726 2071619396 -773210493 -1474855659 1345921564 833943918 66330056 1231945428 -1576386450 1292208480 2011822535 1241081787 -1040788003 -630183524 332290562 1535383919 1688943632 -149267521 -403184365 1280036335 1196303401 -1419779373 389605381 1243676805 295681329 -1978377905 1356704157 1021052683 263466567 1183236909 1178131560 1628080274
REM
CELL 1.54180   50.00000   50.00000   50.00000   90.00000   90.00000   90.00000
LATT -1
SFAC C  
C      1  0.5110370000000  0.5308400000000  0.5295120000000 1.0
C      1  0.5014650000000  0.4700910000000  0.4793660000000 1.0
C      1  0.4733120000000  0.5401260000000  0.5701510000000 1.0
C      1  0.5268630000000  0.4594170000000  0.4306740000000 1.0
C      1  0.5489060000000  0.4243680000000  0.4957180000000 1.0
C      1  0.4535820000000  0.5757600000000  0.5041620000000 1.0
C      1  0.4565220000000  0.4952740000000  0.5042950000000 1.0
C      1  0.5287070000000  0.5074310000000  0.4947930000000 1.0
C      1  0.5310290000000  0.5502150000000  0.5287800000000 1.0
C      1  0.4760760000000  0.4553450000000  0.4732380000000 1.0
C      1  0.4487430000000  0.4933200000000  0.4254940000000 1.0
C      1  0.5492450000000  0.5051370000000  0.5733830000000 1.0
C      1  0.5599050000000  0.4459990000000  0.5108710000000 1.0
C      1  0.4363410000000  0.5611600000000  0.4859020000000 1.0
C      1  0.5818090000000  0.4611810000000  0.4976850000000 1.0
C      1  0.4184880000000  0.5418690000000  0.4983720000000 1.0
C      1  0.5511790000000  0.5722230000000  0.4998540000000 1.0
C      1  0.4460400000000  0.4305220000000  0.5204260000000 1.0
C      1  0.5654670000000  0.4582010000000  0.5497100000000 1.0
C      1  0.4401930000000  0.5382550000000  0.4424970000000 1.0
C      1  0.5460930000000  0.5200290000000  0.4213260000000 1.0
C      1  0.4546000000000  0.4796800000000  0.5761040000000 1.0
C      1  0.4849600000000  0.4527390000000  0.5177320000000 1.0
C      1  0.5220170000000  0.5541190000000  0.4773240000000 1.0
C      1  0.5433440000000  0.5337930000000  0.5720920000000 1.0
C      1  0.4551030000000  0.4645960000000  0.4298480000000 1.0
C      1  0.4538810000000  0.4620940000000  0.4575690000000 1.0
C      1  0.5537390000000  0.5415080000000  0.5443570000000 1.0
C      1  0.4241050000000  0.4476080000000  0.4770100000000 1.0
C      1  0.5776060000000  0.5538020000000  0.5266220000000 1.0
C      1  0.5513320000000  0.4882050000000  0.5027510000000 1.0
C      1  0.4278530000000  0.4927160000000  0.4955850000000 1.0
C      1  0.4900640000000  0.4276230000000  0.4467760000000 1.0
C      1  0.5102910000000  0.5729690000000  0.5559630000000 1.0
C      1  0.5434960000000  0.5442470000000  0.4604680000000 1.0
C      1  0.4427220000000  0.4460760000000  0.5439050000000 1.0
C      1  0.5850060000000  0.4779970000000  0.5414730000000 1.0
C      1  0.4169020000000  0.5237380000000  0.4520650000000 1.0
C      1  0.5851710000000  0.5155510000000  0.4550420000000 1.0
C      1  0.4147140000000  0.4864230000000  0.5451040000000 1.0
C      1  0.4763930000000  0.5860300000000  0.4894390000000 1.0
C      1  0.5268870000000  0.4133050000000  0.5114290000000 1.0
C      1  0.5862590000000  0.4688290000000  0.4684340000000 1.0
C      1  0.4157040000000  0.5310150000000  0.5268660000000 1.0
C      1  0.4840210000000  0.5383460000000  0.4220300000000 1.0
C      1  0.5212560000000  0.4577960000000  0.5706470000000 1.0
C      1  0.4349350000000  0.5258010000000  0.5483660000000 1.0
C      1  0.5671170000000  0.4733360000000  0.4474090000000 1.0
C      1  0.5355540000000  0.5448120000000  0.4325050000000 1.0
C      1  0.4639090000000  0.4547040000000  0.5637910000000 1.0
C      1  0.4372620000000  0.4949520000000  0.4703730000000 1.0
C      1  0.5582810000000  0.5062930000000  0.5243690000000 1.0
C      1  0.4536950000000  0.5480090000000  0.5498880000000 1.0
C      1  0.5512150000000  0.4483630000000  0.4468870000000 1.0
C      1  0.4674810000000  0.4745400000000  0.5222350000000 1.0
C      1  0.5432970000000  0.5181120000000  0.4714210000000 1.0
C      1  0.5332630000000  0.5774640000000  0.5389020000000 1.0
C      1  0.4691640000000  0.4268950000000  0.4684230000000 1.0
C      1  0.5129740000000  0.4221850000000  0.4644730000000 1.0
C      1  0.4910180000000  0.5769870000000  0.5335620000000 1.0
C      1  0.5289000000000  0.5088620000000  0.5277990000000 1.0
C      1  0.4638200000000  0.4991360000000  0.4759670000000 1.0
C      1  0.5370560000000  0.4818890000000  0.4149240000000 1.0
C      1  0.4640300000000  0.5180640000000  0.5850150000000 1.0
C      1  0.4979410000000  0.4704500000000  0.4288290000000 1.0
C      1  0.5005170000000  0.5294680000000  0.5610220000000 1.0
C      1  0.5037880000000  0.4989890000000  0.5774290000000 1.0
C      1  0.4949520000000  0.4991620000000  0.4272570000000 1.0
C      1  0.4960020000000  0.4247820000000  0.5459620000000 1.0
C      1  0.5000720000000  0.5758050000000  0.4493940000000 1.0
C      1  0.4740490000000  0.4240370000000  0.5191480000000 1.0
C      1  0.5223750000000  0.5823560000000  0.4682920000000 1.0
C      1  0.5236730000000  0.4232040000000  0.5386130000000 1.0
C      1  0.4740980000000  0.5758610000000  0.4618430000000 1.0
C      1  0.4994040000000  0.5871820000000  0.5074910000000 1.0
C      1  0.5060650000000  0.4103440000000  0.4904200000000 1.0
C      1  0.5061070000000  0.5427460000000  0.4993640000000 1.0
C      1  0.5090360000000  0.4571780000000  0.5032660000000 1.0
C      1  0.4013960000000  0.5026840000000  0.4993120000000 1.0
C      1  0.5991140000000  0.5053050000000  0.4942430000000 1.0
C      1  0.4265590000000  0.4976770000000  0.4433160000000 1.0
C      1  0.5695410000000  0.5011530000000  0.5511220000000 1.0
C      1  0.4594910000000  0.5218320000000  0.4254740000000 1.0
C      1  0.5296230000000  0.4842110000000  0.5807760000000 1.0
C      1  0.4757680000000  0.4938010000000  0.5910330000000 1.0
C      1  0.5211930000000  0.5043530000000  0.4119780000000 1.0
C      1  0.4999010000000  0.4861810000000  0.5509710000000 1.0
C      1  0.5001410000000  0.5140450000000  0.4540270000000 1.0
C      1  0.5072500000000  0.5548320000000  0.4295980000000 1.0
C      1  0.4918420000000  0.4456000000000  0.5650040000000 1.0
C      1  0.6017150000000  0.4936120000000  0.4669670000000 1.0
C      1  0.4006280000000  0.5065640000000  0.5284950000000 1.0
C      1  0.5712670000000  0.5518170000000  0.4982660000000 1.0
C      1  0.4276630000000  0.4480490000000  0.5048430000000 1.0
C      1  0.5415580000000  0.4430470000000  0.5550400000000 1.0
C      1  0.4490050000000  0.5600990000000  0.4592850000000 1.0
C      1  0.4775480000000  0.4957300000000  0.5372310000000 1.0
C      1  0.5274420000000  0.5021930000000  0.4553870000000 1.0
C      1  0.4636100000000  0.5672810000000  0.5303750000000 1.0
C      1  0.5401630000000  0.4311310000000  0.4678390000000 1.0
C      1  0.4055300000000  0.5250820000000  0.4795200000000 1.0
C      1  0.5942060000000  0.4825840000000  0.5132290000000 1.0
C      1  0.4801300000000  0.5335730000000  0.4977580000000 1.0
C      1  0.5339580000000  0.4641410000000  0.5152080000000 1.0
C      1  0.5655620000000  0.5024320000000  0.4368880000000 1.0
C      1  0.4351550000000  0.4989270000000  0.5617060000000 1.0
C      1  0.4783220000000  0.4130680000000  0.4931100000000 1.0
C      1  0.5277170000000  0.5894940000000  0.4966250000000 1.0
C      1  0.5846510000000  0.5282590000000  0.4822300000000 1.0
C      1  0.4205730000000  0.4607550000000  0.5325480000000 1.0
C      1  0.4407440000000  0.4372480000000  0.4569740000000 1.0
C      1  0.5619660000000  0.5730480000000  0.5411630000000 1.0
C      1  0.4697340000000  0.5169730000000  0.5190380000000 1.0
C      1  0.5239730000000  0.4743800000000  0.4609600000000 1.0
C      1  0.4806020000000  0.4498020000000  0.4293480000000 1.0
C      1  0.5184930000000  0.5494740000000  0.5726370000000 1.0
C      1  0.5238680000000  0.4814420000000  0.5376320000000 1.0
C      1  0.4769810000000  0.5240880000000  0.4700600000000 1.0
C      1  0.5023350000000  0.4980640000000  0.4861380000000 1.0
END
