TITL C-2441158-471-1133 0.0359767396887374 125000 -13234.9990258601 0 0 95 (C1) n - 1
REM
REM in /home/bkarasulu/work/CARBON/AIRSS/Generating-Clusters/ReaxFF-fromJPCA2015/Units_Real/with-SteepDescent/Higher-Symm
REM
REM
REM
REM
REM
REM ./C.cell (1df0a924f5614ab8850e4351716899ee)
REM
REM compiler GCC version 9.2.1 20190827 (Red Hat 9.2.1-1)
REM options -cpp -mtune=generic -march=x86-64 -g -O0 -fpre-include=/usr/include/finclude/math-vector-fortran.h
REM seed 58641386 -545428408 1825015339 -521710330 2096521544 1724823246 -376371288 -1595804519 1068836157 -987611439 176090067 -1050443644 -1270076153 183703854 -1207249738 -1551892335 -1434386419 -572712329 -2139327059 1415492281 -180232863 1786580648 -362920685 -650546554 525593127 971616615 -2080606655 281027139 366820680 64025603 78377653 1696275712 -2091423781
REM
CELL 1.54180   50.00000   50.00000   50.00000   90.00000   90.00000   90.00000
LATT -1
SFAC C  
C      1  0.5685870000000  0.5579600000000  0.5313390000000 1.0
C      1  0.5140760000000  0.4129650000000  0.5303930000000 1.0
C      1  0.4180370000000  0.5327360000000  0.5295540000000 1.0
C      1  0.5676680000000  0.5559280000000  0.4713650000000 1.0
C      1  0.5115040000000  0.4114410000000  0.4712350000000 1.0
C      1  0.4185830000000  0.5330000000000  0.4725400000000 1.0
C      1  0.4819380000000  0.5491120000000  0.5140860000000 1.0
C      1  0.5541480000000  0.4856840000000  0.5148950000000 1.0
C      1  0.4594200000000  0.4660850000000  0.5140580000000 1.0
C      1  0.4907410000000  0.5488230000000  0.4881540000000 1.0
C      1  0.5597150000000  0.4946520000000  0.4877420000000 1.0
C      1  0.4630800000000  0.4728050000000  0.4875200000000 1.0
C      1  0.5369870000000  0.5020480000000  0.5314320000000 1.0
C      1  0.4857870000000  0.4678080000000  0.5321290000000 1.0
C      1  0.4789050000000  0.5274960000000  0.5323540000000 1.0
C      1  0.5356480000000  0.5041690000000  0.4704770000000 1.0
C      1  0.4857810000000  0.4686570000000  0.4702160000000 1.0
C      1  0.4812750000000  0.5277750000000  0.4704630000000 1.0
C      1  0.4851510000000  0.4401190000000  0.5464890000000 1.0
C      1  0.4547350000000  0.5427720000000  0.5469680000000 1.0
C      1  0.5592580000000  0.5183200000000  0.5462360000000 1.0
C      1  0.4839960000000  0.4401210000000  0.4577550000000 1.0
C      1  0.4567820000000  0.5415900000000  0.4571700000000 1.0
C      1  0.5576780000000  0.5190960000000  0.4564920000000 1.0
C      1  0.4747480000000  0.5793810000000  0.4835050000000 1.0
C      1  0.5822020000000  0.4739180000000  0.4860890000000 1.0
C      1  0.4400510000000  0.4376380000000  0.4853780000000 1.0
C      1  0.4744220000000  0.5774850000000  0.5182320000000 1.0
C      1  0.5800070000000  0.4719320000000  0.5154570000000 1.0
C      1  0.4384480000000  0.4427310000000  0.5139670000000 1.0
C      1  0.4385740000000  0.4845410000000  0.5226940000000 1.0
C      1  0.5200510000000  0.5716570000000  0.5151320000000 1.0
C      1  0.5448610000000  0.4531320000000  0.5146920000000 1.0
C      1  0.4391910000000  0.4841380000000  0.4799520000000 1.0
C      1  0.5161010000000  0.5643790000000  0.4865340000000 1.0
C      1  0.5480600000000  0.4461810000000  0.4870530000000 1.0
C      1  0.4268220000000  0.5578210000000  0.4866330000000 1.0
C      1  0.5868650000000  0.5389320000000  0.4854750000000 1.0
C      1  0.4858320000000  0.4067490000000  0.4855630000000 1.0
C      1  0.4259450000000  0.5580340000000  0.5160460000000 1.0
C      1  0.5891270000000  0.5418340000000  0.5150640000000 1.0
C      1  0.4891990000000  0.4027420000000  0.5151250000000 1.0
C      1  0.5323040000000  0.4424540000000  0.4354430000000 1.0
C      1  0.4332260000000  0.4994930000000  0.4355660000000 1.0
C      1  0.5319080000000  0.5587920000000  0.4346170000000 1.0
C      1  0.5331310000000  0.4423270000000  0.5688500000000 1.0
C      1  0.4320120000000  0.4996550000000  0.5673910000000 1.0
C      1  0.5319310000000  0.5578440000000  0.5675290000000 1.0
C      1  0.5004100000000  0.5825780000000  0.4698770000000 1.0
C      1  0.5688830000000  0.4532890000000  0.4699550000000 1.0
C      1  0.4277620000000  0.4596550000000  0.4690590000000 1.0
C      1  0.5013780000000  0.5823160000000  0.5327600000000 1.0
C      1  0.5695330000000  0.4505860000000  0.5319950000000 1.0
C      1  0.4239000000000  0.4614740000000  0.5312540000000 1.0
C      1  0.5554760000000  0.5461530000000  0.4463100000000 1.0
C      1  0.5093390000000  0.4290550000000  0.4479110000000 1.0
C      1  0.4339060000000  0.5259410000000  0.4484910000000 1.0
C      1  0.5554720000000  0.5462260000000  0.5549920000000 1.0
C      1  0.5108140000000  0.4278520000000  0.5559960000000 1.0
C      1  0.4317690000000  0.5266450000000  0.5548410000000 1.0
C      1  0.5825340000000  0.5202070000000  0.5309640000000 1.0
C      1  0.4742150000000  0.4194430000000  0.5310400000000 1.0
C      1  0.4489770000000  0.5664400000000  0.5315820000000 1.0
C      1  0.5792850000000  0.5132250000000  0.4747110000000 1.0
C      1  0.4657650000000  0.4248710000000  0.4749200000000 1.0
C      1  0.4507910000000  0.5659670000000  0.4720980000000 1.0
C      1  0.4540330000000  0.4816900000000  0.4322920000000 1.0
C      1  0.5051230000000  0.5481680000000  0.4327800000000 1.0
C      1  0.5386850000000  0.4695450000000  0.4329080000000 1.0
C      1  0.4539320000000  0.4806240000000  0.5699810000000 1.0
C      1  0.5051850000000  0.5477960000000  0.5691920000000 1.0
C      1  0.5391900000000  0.4710030000000  0.5695010000000 1.0
C      1  0.4956590000000  0.5256030000000  0.4461730000000 1.0
C      1  0.5248880000000  0.4904630000000  0.4464170000000 1.0
C      1  0.4794690000000  0.4832800000000  0.4445800000000 1.0
C      1  0.4954140000000  0.5260540000000  0.5558580000000 1.0
C      1  0.5251960000000  0.4914650000000  0.5548560000000 1.0
C      1  0.4801660000000  0.4824430000000  0.5570460000000 1.0
C      1  0.5595420000000  0.4523820000000  0.5591160000000 1.0
C      1  0.4278050000000  0.4712040000000  0.5593300000000 1.0
C      1  0.5092020000000  0.5742490000000  0.5592260000000 1.0
C      1  0.5580030000000  0.4530950000000  0.4433640000000 1.0
C      1  0.4303190000000  0.4710150000000  0.4424310000000 1.0
C      1  0.5087070000000  0.5749940000000  0.4436410000000 1.0
C      1  0.4303280000000  0.5105350000000  0.4873880000000 1.0
C      1  0.5437230000000  0.5536450000000  0.4873320000000 1.0
C      1  0.5243370000000  0.4323060000000  0.4876210000000 1.0
C      1  0.4311050000000  0.5108310000000  0.5146680000000 1.0
C      1  0.5446780000000  0.5583480000000  0.5145050000000 1.0
C      1  0.5201970000000  0.4371680000000  0.5147720000000 1.0
C      1  0.4888540000000  0.5101990000000  0.5014730000000 1.0
C      1  0.4985760000000  0.4826940000000  0.5034270000000 1.0
C      1  0.5179090000000  0.5049210000000  0.5014730000000 1.0
C      1  0.5002090000000  0.5008700000000  0.4370860000000 1.0
C      1  0.5010610000000  0.5010670000000  0.5646470000000 1.0
END
