TITL C-2441154-10-707 0.0190005164130215 125000 -21931.104394536 0 0 148 (C1) n - 1
REM
REM in /home/bkarasulu/work/CARBON/AIRSS/Generating-Clusters/ReaxFF-fromJPCA2015/Units_Real/with-SteepDescent/Higher-Symm
REM
REM
REM
REM
REM
REM ./C.cell (1df0a924f5614ab8850e4351716899ee)
REM
REM compiler GCC version 9.2.1 20190827 (Red Hat 9.2.1-1)
REM options -cpp -mtune=generic -march=x86-64 -g -O0 -fpre-include=/usr/include/finclude/math-vector-fortran.h
REM seed -2093223397 795365136 190132851 -1657652698 2008938599 158560868 -1203676084 -1740775371 667275710 -257458309 1161510455 1050090373 149700689 -1629266891 -1193389470 1886121071 -1650239271 869191158 -496520683 -2080037579 -1017172505 1020845559 -994912332 344939319 22385590 5917677 -893844965 599974502 93210836 -748993423 -1195072113 124051549 -565404352
REM
CELL 1.54180   50.00000   50.00000   50.00000   90.00000   90.00000   90.00000
LATT -1
SFAC C  
C      1  0.4014070000000  0.4888360000000  0.5004380000000 1.0
C      1  0.5017450000000  0.3961590000000  0.4880380000000 1.0
C      1  0.4661630000000  0.5099200000000  0.3987680000000 1.0
C      1  0.3955810000000  0.5293800000000  0.4928160000000 1.0
C      1  0.5960460000000  0.5132000000000  0.5058700000000 1.0
C      1  0.6017900000000  0.4891020000000  0.4876690000000 1.0
C      1  0.5081310000000  0.5981990000000  0.5153010000000 1.0
C      1  0.4986890000000  0.6101090000000  0.4754760000000 1.0
C      1  0.4997990000000  0.3960660000000  0.5301480000000 1.0
C      1  0.4845940000000  0.4968850000000  0.5966350000000 1.0
C      1  0.5075760000000  0.5000440000000  0.4040290000000 1.0
C      1  0.5290820000000  0.5043260000000  0.6105010000000 1.0
C      1  0.5352860000000  0.5929730000000  0.5054230000000 1.0
C      1  0.5030860000000  0.5147700000000  0.6119700000000 1.0
C      1  0.5907890000000  0.5034120000000  0.5324690000000 1.0
C      1  0.5311450000000  0.3948520000000  0.4953890000000 1.0
C      1  0.4815810000000  0.3921410000000  0.5096950000000 1.0
C      1  0.4819180000000  0.6054880000000  0.4983050000000 1.0
C      1  0.5048750000000  0.4707860000000  0.3986990000000 1.0
C      1  0.4918200000000  0.4676020000000  0.5961130000000 1.0
C      1  0.4896490000000  0.5254900000000  0.3969480000000 1.0
C      1  0.6016070000000  0.4914900000000  0.4574090000000 1.0
C      1  0.3991140000000  0.4924230000000  0.5302740000000 1.0
C      1  0.3973490000000  0.5073240000000  0.4761370000000 1.0
C      1  0.4180760000000  0.4560970000000  0.4501600000000 1.0
C      1  0.4447580000000  0.4161900000000  0.4872670000000 1.0
C      1  0.4814880000000  0.4534500000000  0.4091720000000 1.0
C      1  0.4134880000000  0.5151300000000  0.5448870000000 1.0
C      1  0.5887850000000  0.5158370000000  0.4413120000000 1.0
C      1  0.5935720000000  0.4762650000000  0.5451960000000 1.0
C      1  0.4560020000000  0.5871560000000  0.5200550000000 1.0
C      1  0.5476800000000  0.5875600000000  0.4782250000000 1.0
C      1  0.5456050000000  0.4061970000000  0.5180980000000 1.0
C      1  0.4976460000000  0.5622190000000  0.5990740000000 1.0
C      1  0.5199030000000  0.5414010000000  0.4047010000000 1.0
C      1  0.5192690000000  0.4533640000000  0.5913070000000 1.0
C      1  0.4504710000000  0.5313980000000  0.4767940000000 1.0
C      1  0.4799980000000  0.4458710000000  0.5324160000000 1.0
C      1  0.5355450000000  0.4809450000000  0.4423990000000 1.0
C      1  0.4364850000000  0.4570080000000  0.5168500000000 1.0
C      1  0.5588290000000  0.4613300000000  0.4799860000000 1.0
C      1  0.5670360000000  0.5550250000000  0.5212530000000 1.0
C      1  0.4823760000000  0.5555270000000  0.4415940000000 1.0
C      1  0.5188200000000  0.5551380000000  0.5336270000000 1.0
C      1  0.5200910000000  0.4402980000000  0.4673640000000 1.0
C      1  0.5255380000000  0.5208560000000  0.5656320000000 1.0
C      1  0.4328890000000  0.5189650000000  0.4332540000000 1.0
C      1  0.4568030000000  0.4817850000000  0.5582210000000 1.0
C      1  0.5445350000000  0.4618260000000  0.5772760000000 1.0
C      1  0.5754170000000  0.5386860000000  0.4566290000000 1.0
C      1  0.4613530000000  0.5739870000000  0.5457540000000 1.0
C      1  0.5507190000000  0.5466060000000  0.4459960000000 1.0
C      1  0.4474110000000  0.5486810000000  0.5540840000000 1.0
C      1  0.4563130000000  0.4616770000000  0.4226840000000 1.0
C      1  0.5746890000000  0.4541140000000  0.5377400000000 1.0
C      1  0.4469400000000  0.4511560000000  0.4480110000000 1.0
C      1  0.4332200000000  0.5346170000000  0.5324390000000 1.0
C      1  0.4582410000000  0.4291470000000  0.4631910000000 1.0
C      1  0.5523110000000  0.4449600000000  0.5550820000000 1.0
C      1  0.5375710000000  0.5707870000000  0.4545890000000 1.0
C      1  0.5224710000000  0.5853250000000  0.4343400000000 1.0
C      1  0.4475700000000  0.5291530000000  0.5762110000000 1.0
C      1  0.5891980000000  0.4417310000000  0.5158910000000 1.0
C      1  0.5388360000000  0.4185320000000  0.5571680000000 1.0
C      1  0.4789400000000  0.4160490000000  0.4468890000000 1.0
C      1  0.4837960000000  0.5871430000000  0.5590420000000 1.0
C      1  0.4330740000000  0.4744400000000  0.4098750000000 1.0
C      1  0.5635670000000  0.4827390000000  0.5873070000000 1.0
C      1  0.5440640000000  0.5295430000000  0.4209170000000 1.0
C      1  0.5881500000000  0.5551970000000  0.4779970000000 1.0
C      1  0.4148220000000  0.5566830000000  0.5181340000000 1.0
C      1  0.4061740000000  0.4447610000000  0.4755030000000 1.0
C      1  0.5258820000000  0.4848780000000  0.5344700000000 1.0
C      1  0.5260850000000  0.5276980000000  0.4932860000000 1.0
C      1  0.4882780000000  0.5152080000000  0.5371230000000 1.0
C      1  0.5373980000000  0.5001710000000  0.4893260000000 1.0
C      1  0.4588120000000  0.4948730000000  0.5084790000000 1.0
C      1  0.4822070000000  0.5060970000000  0.4530370000000 1.0
C      1  0.5296420000000  0.4770700000000  0.5061890000000 1.0
C      1  0.4748470000000  0.4757050000000  0.4926940000000 1.0
C      1  0.4650190000000  0.5225420000000  0.5194970000000 1.0
C      1  0.4905090000000  0.4813450000000  0.4670560000000 1.0
C      1  0.4988210000000  0.4892930000000  0.5403530000000 1.0
C      1  0.4996090000000  0.5368610000000  0.4832190000000 1.0
C      1  0.4953130000000  0.5326010000000  0.4546710000000 1.0
C      1  0.4448750000000  0.4823260000000  0.5297190000000 1.0
C      1  0.5348390000000  0.4517820000000  0.4925690000000 1.0
C      1  0.4829820000000  0.4691490000000  0.5503580000000 1.0
C      1  0.5114580000000  0.4662700000000  0.4553400000000 1.0
C      1  0.5049210000000  0.5345830000000  0.5498010000000 1.0
C      1  0.4539060000000  0.5124160000000  0.4566050000000 1.0
C      1  0.5421150000000  0.5041090000000  0.5486540000000 1.0
C      1  0.5514910000000  0.4870500000000  0.4681060000000 1.0
C      1  0.5368430000000  0.5442490000000  0.5141640000000 1.0
C      1  0.4726340000000  0.5375180000000  0.4945010000000 1.0
C      1  0.4673680000000  0.4516310000000  0.5068740000000 1.0
C      1  0.5920700000000  0.4667490000000  0.4528830000000 1.0
C      1  0.4649410000000  0.5878840000000  0.4817540000000 1.0
C      1  0.4696310000000  0.4541700000000  0.5861040000000 1.0
C      1  0.5691420000000  0.5162430000000  0.5472680000000 1.0
C      1  0.4113410000000  0.5221120000000  0.4542960000000 1.0
C      1  0.4046390000000  0.4677510000000  0.5425220000000 1.0
C      1  0.4575090000000  0.4087710000000  0.5134620000000 1.0
C      1  0.5486420000000  0.4073370000000  0.4773500000000 1.0
C      1  0.5534170000000  0.5821750000000  0.5252320000000 1.0
C      1  0.4719220000000  0.5467340000000  0.4164650000000 1.0
C      1  0.5130700000000  0.5421960000000  0.6056380000000 1.0
C      1  0.5291680000000  0.4595790000000  0.4065200000000 1.0
C      1  0.5699070000000  0.5453540000000  0.5506130000000 1.0
C      1  0.5362240000000  0.5767800000000  0.5491900000000 1.0
C      1  0.5402360000000  0.5370640000000  0.5867160000000 1.0
C      1  0.5790700000000  0.4445360000000  0.4628620000000 1.0
C      1  0.4198690000000  0.4445090000000  0.5429050000000 1.0
C      1  0.4234410000000  0.5469220000000  0.4665410000000 1.0
C      1  0.5450880000000  0.4220770000000  0.4535930000000 1.0
C      1  0.4614830000000  0.4239840000000  0.5387360000000 1.0
C      1  0.4623910000000  0.5752040000000  0.4563000000000 1.0
C      1  0.5502450000000  0.4586480000000  0.4230540000000 1.0
C      1  0.4443280000000  0.4573090000000  0.5751820000000 1.0
C      1  0.4438230000000  0.5472780000000  0.4236660000000 1.0
C      1  0.4188830000000  0.5179890000000  0.5735840000000 1.0
C      1  0.5712470000000  0.4157980000000  0.5097480000000 1.0
C      1  0.5170900000000  0.5695150000000  0.4079450000000 1.0
C      1  0.4075490000000  0.4676680000000  0.4246550000000 1.0
C      1  0.5904820000000  0.4800070000000  0.5745010000000 1.0
C      1  0.5756980000000  0.5171690000000  0.4169410000000 1.0
C      1  0.5766080000000  0.5834080000000  0.4786150000000 1.0
C      1  0.4341290000000  0.5753040000000  0.5127810000000 1.0
C      1  0.4152090000000  0.4170290000000  0.4828340000000 1.0
C      1  0.5215750000000  0.4256590000000  0.5827710000000 1.0
C      1  0.4851670000000  0.4263420000000  0.4190820000000 1.0
C      1  0.4821140000000  0.5845640000000  0.5903960000000 1.0
C      1  0.4140600000000  0.4632440000000  0.4964920000000 1.0
C      1  0.4989950000000  0.4167890000000  0.4680890000000 1.0
C      1  0.4406820000000  0.5027760000000  0.4071000000000 1.0
C      1  0.4042470000000  0.5560230000000  0.4909660000000 1.0
C      1  0.5882570000000  0.5407340000000  0.5026730000000 1.0
C      1  0.5959200000000  0.4650990000000  0.5020320000000 1.0
C      1  0.5075320000000  0.5937280000000  0.5437670000000 1.0
C      1  0.5091780000000  0.6010840000000  0.4523210000000 1.0
C      1  0.5184570000000  0.4018360000000  0.5464110000000 1.0
C      1  0.4642090000000  0.5051550000000  0.5783250000000 1.0
C      1  0.5275810000000  0.5046390000000  0.4240060000000 1.0
C      1  0.5528250000000  0.5078170000000  0.5985440000000 1.0
C      1  0.4372740000000  0.5645260000000  0.4456350000000 1.0
C      1  0.4412350000000  0.4330110000000  0.5594780000000 1.0
C      1  0.5648930000000  0.4376470000000  0.4379370000000 1.0
C      1  0.5518150000000  0.5579000000000  0.5682480000000 1.0
END
