TITL C-2441156-4686-1302 0.178527576686008 125000 -9727.45325358529 0 0 103 (C1) n - 1
REM
REM in /home/bkarasulu/work/CARBON/AIRSS/Generating-Clusters/ReaxFF-fromJPCA2015/Units_Real/with-SteepDescent/Higher-Symm
REM
REM
REM
REM
REM
REM ./C.cell (1df0a924f5614ab8850e4351716899ee)
REM
REM compiler GCC version 9.2.1 20190827 (Red Hat 9.2.1-1)
REM options -cpp -mtune=generic -march=x86-64 -g -O0 -fpre-include=/usr/include/finclude/math-vector-fortran.h
REM seed 1802848752 444158317 -1638958176 1483746779 586206740 -2075208746 1156086458 842910281 -1004631866 -1846834715 -975351898 1596750874 -1434578358 1500520665 918584900 -900522511 -1123928424 1685826912 -252640033 -1900722442 -668587814 -2112809994 -1727997667 -895779406 1843004090 -2033863320 -924921996 689864137 -387555460 1505573721 -1912222336 -1653262111 75496015
REM
CELL 1.54180   50.00000   50.00000   50.00000   90.00000   90.00000   90.00000
LATT -1
SFAC C  
C      1  0.4909550000000  0.4753560000000  0.4452260000000 1.0
C      1  0.4709370000000  0.4435490000000  0.4973380000000 1.0
C      1  0.4413060000000  0.4939040000000  0.4754750000000 1.0
C      1  0.5050730000000  0.4769730000000  0.5571960000000 1.0
C      1  0.5071480000000  0.5270680000000  0.4415740000000 1.0
C      1  0.4895020000000  0.5289910000000  0.5536140000000 1.0
C      1  0.5284940000000  0.4417990000000  0.5084210000000 1.0
C      1  0.5226270000000  0.5566020000000  0.4962440000000 1.0
C      1  0.4714240000000  0.5659950000000  0.5011800000000 1.0
C      1  0.5548980000000  0.4952990000000  0.5256060000000 1.0
C      1  0.5561120000000  0.5095770000000  0.4767530000000 1.0
C      1  0.4421090000000  0.5001440000000  0.5322600000000 1.0
C      1  0.5402000000000  0.5161610000000  0.4558850000000 1.0
C      1  0.5142720000000  0.4649290000000  0.5353610000000 1.0
C      1  0.4586000000000  0.5322070000000  0.5199970000000 1.0
C      1  0.4551690000000  0.5181870000000  0.5404510000000 1.0
C      1  0.4586810000000  0.4835470000000  0.4619630000000 1.0
C      1  0.5385910000000  0.4777580000000  0.5391850000000 1.0
C      1  0.4822800000000  0.4549490000000  0.4620410000000 1.0
C      1  0.4821580000000  0.5418800000000  0.5285650000000 1.0
C      1  0.5213600000000  0.5351710000000  0.4639440000000 1.0
C      1  0.5378280000000  0.5423490000000  0.4829280000000 1.0
C      1  0.5442730000000  0.4611130000000  0.5140190000000 1.0
C      1  0.4617030000000  0.4614750000000  0.4769700000000 1.0
C      1  0.4295410000000  0.5375040000000  0.5185920000000 1.0
C      1  0.5371980000000  0.5248570000000  0.4284160000000 1.0
C      1  0.5215670000000  0.4283040000000  0.5333150000000 1.0
C      1  0.5659040000000  0.5380640000000  0.4768220000000 1.0
C      1  0.5712090000000  0.4632570000000  0.5243700000000 1.0
C      1  0.4309400000000  0.4636350000000  0.4764940000000 1.0
C      1  0.4629300000000  0.5246430000000  0.5667360000000 1.0
C      1  0.4623120000000  0.4769620000000  0.4336620000000 1.0
C      1  0.5354780000000  0.4756910000000  0.5683800000000 1.0
C      1  0.4786880000000  0.4269080000000  0.4632360000000 1.0
C      1  0.4747770000000  0.5702160000000  0.5322590000000 1.0
C      1  0.5202120000000  0.5732340000000  0.4699170000000 1.0
C      1  0.5912570000000  0.5126200000000  0.5342640000000 1.0
C      1  0.5130930000000  0.5325480000000  0.5868630000000 1.0
C      1  0.5337670000000  0.5907840000000  0.5130740000000 1.0
C      1  0.4120470000000  0.5180960000000  0.4680830000000 1.0
C      1  0.4063630000000  0.4861190000000  0.5336320000000 1.0
C      1  0.5889700000000  0.4887780000000  0.4658940000000 1.0
C      1  0.4874420000000  0.5324390000000  0.4077160000000 1.0
C      1  0.4867280000000  0.4672180000000  0.5904470000000 1.0
C      1  0.5122730000000  0.4662940000000  0.4088280000000 1.0
C      1  0.4711080000000  0.5868540000000  0.4885380000000 1.0
C      1  0.4673790000000  0.4083250000000  0.5152280000000 1.0
C      1  0.5320850000000  0.4094210000000  0.4858610000000 1.0
C      1  0.5256370000000  0.4889240000000  0.4165290000000 1.0
C      1  0.4926400000000  0.4205150000000  0.5261160000000 1.0
C      1  0.4156760000000  0.5249030000000  0.4954500000000 1.0
C      1  0.4740920000000  0.4901300000000  0.5853380000000 1.0
C      1  0.4730960000000  0.5118720000000  0.4181390000000 1.0
C      1  0.5263640000000  0.5100480000000  0.5854890000000 1.0
C      1  0.5058550000000  0.4175680000000  0.4769220000000 1.0
C      1  0.5117610000000  0.5830130000000  0.5274530000000 1.0
C      1  0.4951330000000  0.5881720000000  0.4725140000000 1.0
C      1  0.5846590000000  0.5261810000000  0.5097320000000 1.0
C      1  0.5836330000000  0.4746120000000  0.4896510000000 1.0
C      1  0.4171580000000  0.4741480000000  0.5116640000000 1.0
C      1  0.5457480000000  0.5384250000000  0.5277170000000 1.0
C      1  0.5277770000000  0.5192660000000  0.5407680000000 1.0
C      1  0.5199440000000  0.5414750000000  0.5318480000000 1.0
C      1  0.4596810000000  0.5276340000000  0.4804280000000 1.0
C      1  0.4579710000000  0.4737690000000  0.5216650000000 1.0
C      1  0.5408410000000  0.4634070000000  0.4785000000000 1.0
C      1  0.4746040000000  0.5184110000000  0.4615920000000 1.0
C      1  0.4604000000000  0.4689440000000  0.5490410000000 1.0
C      1  0.5395940000000  0.4784370000000  0.4586750000000 1.0
C      1  0.4760160000000  0.5469850000000  0.4672810000000 1.0
C      1  0.4815520000000  0.4582940000000  0.5178620000000 1.0
C      1  0.5221750000000  0.4584580000000  0.4618930000000 1.0
C      1  0.5528490000000  0.5629650000000  0.5158710000000 1.0
C      1  0.5640310000000  0.5100750000000  0.5496090000000 1.0
C      1  0.5099660000000  0.5515880000000  0.5659090000000 1.0
C      1  0.4464030000000  0.5708740000000  0.4881830000000 1.0
C      1  0.4484480000000  0.4313790000000  0.5115620000000 1.0
C      1  0.5503640000000  0.4347210000000  0.4878670000000 1.0
C      1  0.4330280000000  0.5110790000000  0.4519310000000 1.0
C      1  0.4360270000000  0.4849500000000  0.5561330000000 1.0
C      1  0.5636380000000  0.4860980000000  0.4463410000000 1.0
C      1  0.4867610000000  0.5512970000000  0.4388080000000 1.0
C      1  0.4877530000000  0.4532240000000  0.5651150000000 1.0
C      1  0.5136880000000  0.4475190000000  0.4367640000000 1.0
C      1  0.5509520000000  0.4996230000000  0.4236460000000 1.0
C      1  0.4992670000000  0.4290300000000  0.5518020000000 1.0
C      1  0.4242670000000  0.5549050000000  0.4976190000000 1.0
C      1  0.4504530000000  0.5013580000000  0.5773980000000 1.0
C      1  0.4484360000000  0.5020550000000  0.4271010000000 1.0
C      1  0.5503420000000  0.4995880000000  0.5744780000000 1.0
C      1  0.5019870000000  0.4233910000000  0.4473700000000 1.0
C      1  0.4975030000000  0.5744510000000  0.5501530000000 1.0
C      1  0.5010080000000  0.5755680000000  0.4472710000000 1.0
C      1  0.5762390000000  0.5512630000000  0.5004290000000 1.0
C      1  0.5770990000000  0.4486240000000  0.5004410000000 1.0
C      1  0.4253700000000  0.4493860000000  0.5007850000000 1.0
C      1  0.5042920000000  0.5342750000000  0.5066370000000 1.0
C      1  0.5381970000000  0.5015350000000  0.4992490000000 1.0
C      1  0.5032830000000  0.5045000000000  0.5443290000000 1.0
C      1  0.5052320000000  0.4728070000000  0.5086820000000 1.0
C      1  0.4610220000000  0.5067300000000  0.4995160000000 1.0
C      1  0.4970820000000  0.5003720000000  0.4628360000000 1.0
C      1  0.5091830000000  0.5009540000000  0.4951510000000 1.0
END
