TITL C-2441166-8118-472 0.133369094961313 125000 -24012.4626829058 0 0 179 (C1) n - 1
REM
REM in /home/bkarasulu/work/CARBON/AIRSS/Generating-Clusters/ReaxFF-fromJPCA2015/Units_Real/with-SteepDescent/Higher-Symm
REM
REM
REM
REM
REM
REM ./C.cell (1df0a924f5614ab8850e4351716899ee)
REM
REM compiler GCC version 9.2.1 20190827 (Red Hat 9.2.1-1)
REM options -cpp -mtune=generic -march=x86-64 -g -O0 -fpre-include=/usr/include/finclude/math-vector-fortran.h
REM seed 287105253 -975607297 -241689353 866355891 -1403918100 608752379 1040734717 -702959141 -255136385 -1592864523 -294279348 493606001 1537872307 -209448652 -974152366 -391041686 326038506 -730062911 -1058029318 14577732 1226544257 -436565530 -989131939 -1484448066 -2077658462 747645788 1514684455 -1526493979 1932935849 443063262 2146419065 -965172879 -79192184
REM
CELL 1.54180   50.00000   50.00000   50.00000   90.00000   90.00000   90.00000
LATT -1
SFAC C  
C      1  0.5180840000000  0.5969870000000  0.5269790000000 1.0
C      1  0.4062880000000  0.5437580000000  0.5251530000000 1.0
C      1  0.4284160000000  0.4276050000000  0.5268630000000 1.0
C      1  0.5436240000000  0.4080600000000  0.5285220000000 1.0
C      1  0.6044740000000  0.5122500000000  0.5295640000000 1.0
C      1  0.5012250000000  0.5480470000000  0.3912120000000 1.0
C      1  0.4546110000000  0.5165880000000  0.3936930000000 1.0
C      1  0.4685320000000  0.4616520000000  0.3931880000000 1.0
C      1  0.5263220000000  0.4608140000000  0.3916630000000 1.0
C      1  0.5455160000000  0.5155000000000  0.3922870000000 1.0
C      1  0.5347770000000  0.5350940000000  0.5343460000000 1.0
C      1  0.4616020000000  0.5530720000000  0.5261600000000 1.0
C      1  0.4427190000000  0.4769960000000  0.5253670000000 1.0
C      1  0.4954860000000  0.4367060000000  0.5245140000000 1.0
C      1  0.5561600000000  0.4832430000000  0.5351970000000 1.0
C      1  0.4227920000000  0.4580480000000  0.5637310000000 1.0
C      1  0.5151560000000  0.4137280000000  0.5649240000000 1.0
C      1  0.5881970000000  0.4861990000000  0.5650710000000 1.0
C      1  0.5374030000000  0.5766680000000  0.5649390000000 1.0
C      1  0.4354930000000  0.5596720000000  0.5606850000000 1.0
C      1  0.4975650000000  0.4578940000000  0.3963790000000 1.0
C      1  0.5388680000000  0.4872880000000  0.3959230000000 1.0
C      1  0.5230370000000  0.5314000000000  0.4010210000000 1.0
C      1  0.4784270000000  0.5323280000000  0.3993790000000 1.0
C      1  0.4646630000000  0.4901060000000  0.4009870000000 1.0
C      1  0.4689460000000  0.4393320000000  0.5830310000000 1.0
C      1  0.5504670000000  0.4485250000000  0.5840540000000 1.0
C      1  0.5618890000000  0.5290120000000  0.5817860000000 1.0
C      1  0.4851910000000  0.5602000000000  0.5872890000000 1.0
C      1  0.4295610000000  0.5111060000000  0.5820610000000 1.0
C      1  0.5914750000000  0.4683090000000  0.4600970000000 1.0
C      1  0.5604680000000  0.5746200000000  0.4544730000000 1.0
C      1  0.4417020000000  0.5798460000000  0.4591360000000 1.0
C      1  0.4050480000000  0.4750960000000  0.4607890000000 1.0
C      1  0.4972180000000  0.4053500000000  0.4626680000000 1.0
C      1  0.4427530000000  0.4379130000000  0.5701130000000 1.0
C      1  0.5421550000000  0.4243310000000  0.5701850000000 1.0
C      1  0.5851800000000  0.5152560000000  0.5713160000000 1.0
C      1  0.5101020000000  0.5830560000000  0.5709880000000 1.0
C      1  0.4207210000000  0.5361850000000  0.5688950000000 1.0
C      1  0.4895430000000  0.4090150000000  0.5301130000000 1.0
C      1  0.5786310000000  0.4642230000000  0.5273540000000 1.0
C      1  0.5580650000000  0.5595840000000  0.5262820000000 1.0
C      1  0.4537250000000  0.5809470000000  0.5278090000000 1.0
C      1  0.4130280000000  0.4784100000000  0.5282550000000 1.0
C      1  0.4029750000000  0.5038910000000  0.4553390000000 1.0
C      1  0.4670250000000  0.4106110000000  0.4560990000000 1.0
C      1  0.5685290000000  0.4507710000000  0.4529450000000 1.0
C      1  0.5552420000000  0.5453040000000  0.4548520000000 1.0
C      1  0.4688490000000  0.5759690000000  0.4480270000000 1.0
C      1  0.5247990000000  0.4842500000000  0.4700060000000 1.0
C      1  0.5250210000000  0.5126330000000  0.4670730000000 1.0
C      1  0.4816620000000  0.5352090000000  0.4676850000000 1.0
C      1  0.4780940000000  0.4909950000000  0.4642550000000 1.0
C      1  0.5001610000000  0.4719180000000  0.4681050000000 1.0
C      1  0.4206190000000  0.5745540000000  0.5027150000000 1.0
C      1  0.4081990000000  0.4452720000000  0.4956770000000 1.0
C      1  0.5206880000000  0.3936240000000  0.4970120000000 1.0
C      1  0.6070720000000  0.4865270000000  0.4960530000000 1.0
C      1  0.5440990000000  0.5868870000000  0.4962360000000 1.0
C      1  0.5769350000000  0.5561790000000  0.4983830000000 1.0
C      1  0.4708130000000  0.5924940000000  0.4954850000000 1.0
C      1  0.4073860000000  0.4998940000000  0.4966250000000 1.0
C      1  0.4686580000000  0.4124350000000  0.4977030000000 1.0
C      1  0.5790520000000  0.4428110000000  0.4998420000000 1.0
C      1  0.4869330000000  0.4714780000000  0.5568790000000 1.0
C      1  0.5143540000000  0.4643940000000  0.5587220000000 1.0
C      1  0.5231410000000  0.5056330000000  0.5602630000000 1.0
C      1  0.5110890000000  0.5434470000000  0.5517590000000 1.0
C      1  0.4699900000000  0.5115290000000  0.5547130000000 1.0
C      1  0.5701490000000  0.5236950000000  0.4091210000000 1.0
C      1  0.5029820000000  0.5736740000000  0.4069720000000 1.0
C      1  0.4330510000000  0.5243480000000  0.4130580000000 1.0
C      1  0.4553840000000  0.4435970000000  0.4132280000000 1.0
C      1  0.5395130000000  0.4431550000000  0.4112230000000 1.0
C      1  0.4549160000000  0.5023100000000  0.5323730000000 1.0
C      1  0.4785720000000  0.4591100000000  0.5307350000000 1.0
C      1  0.5300920000000  0.4715860000000  0.5365130000000 1.0
C      1  0.5550270000000  0.5121920000000  0.5334570000000 1.0
C      1  0.4871980000000  0.5440400000000  0.5353590000000 1.0
C      1  0.4720070000000  0.4679060000000  0.5828630000000 1.0
C      1  0.5229340000000  0.4580680000000  0.5848990000000 1.0
C      1  0.5445630000000  0.5045940000000  0.5791030000000 1.0
C      1  0.5104410000000  0.5446840000000  0.5813540000000 1.0
C      1  0.4571570000000  0.5192270000000  0.5789570000000 1.0
C      1  0.5473900000000  0.4342660000000  0.4689730000000 1.0
C      1  0.5778460000000  0.5142170000000  0.4691920000000 1.0
C      1  0.5139600000000  0.5738210000000  0.4713750000000 1.0
C      1  0.4378560000000  0.5364150000000  0.4799210000000 1.0
C      1  0.4467180000000  0.4529570000000  0.4770370000000 1.0
C      1  0.5593630000000  0.4225380000000  0.5476100000000 1.0
C      1  0.5948110000000  0.5318490000000  0.5495580000000 1.0
C      1  0.4977150000000  0.5968760000000  0.5495820000000 1.0
C      1  0.4045860000000  0.5251990000000  0.5470030000000 1.0
C      1  0.4452890000000  0.4184420000000  0.5488760000000 1.0
C      1  0.4742620000000  0.5037610000000  0.5112470000000 1.0
C      1  0.4905790000000  0.4793310000000  0.5130740000000 1.0
C      1  0.5192230000000  0.4882830000000  0.5146750000000 1.0
C      1  0.5197670000000  0.5204850000000  0.5132780000000 1.0
C      1  0.4929220000000  0.5271190000000  0.5121720000000 1.0
C      1  0.4693040000000  0.4399990000000  0.4883330000000 1.0
C      1  0.5391820000000  0.4489430000000  0.4938440000000 1.0
C      1  0.5607190000000  0.5205260000000  0.5053160000000 1.0
C      1  0.4904750000000  0.5730080000000  0.4871570000000 1.0
C      1  0.4335370000000  0.5093980000000  0.4867550000000 1.0
C      1  0.4966530000000  0.4395570000000  0.4375510000000 1.0
C      1  0.5561970000000  0.4835400000000  0.4350450000000 1.0
C      1  0.5275340000000  0.5476370000000  0.4422910000000 1.0
C      1  0.4706710000000  0.5436250000000  0.4442640000000 1.0
C      1  0.4409490000000  0.4855540000000  0.4359410000000 1.0
C      1  0.4677030000000  0.4969220000000  0.4303770000000 1.0
C      1  0.4931320000000  0.4654660000000  0.4249790000000 1.0
C      1  0.5324220000000  0.4887260000000  0.4246600000000 1.0
C      1  0.5145600000000  0.5252850000000  0.4301680000000 1.0
C      1  0.4846960000000  0.5259960000000  0.4265920000000 1.0
C      1  0.5482370000000  0.3998380000000  0.5009400000000 1.0
C      1  0.6088910000000  0.5146040000000  0.5000360000000 1.0
C      1  0.5181630000000  0.6069120000000  0.4996390000000 1.0
C      1  0.4013350000000  0.5447870000000  0.4976590000000 1.0
C      1  0.4261040000000  0.4231910000000  0.4974700000000 1.0
C      1  0.4406300000000  0.5878330000000  0.4867640000000 1.0
C      1  0.3983390000000  0.4711760000000  0.4883660000000 1.0
C      1  0.4937350000000  0.3946330000000  0.4892990000000 1.0
C      1  0.5998880000000  0.4600830000000  0.4874320000000 1.0
C      1  0.5689820000000  0.5794860000000  0.4822990000000 1.0
C      1  0.5132080000000  0.4397860000000  0.5022910000000 1.0
C      1  0.5646280000000  0.4974720000000  0.4890680000000 1.0
C      1  0.5311750000000  0.5615350000000  0.4905130000000 1.0
C      1  0.4551690000000  0.5460160000000  0.4998630000000 1.0
C      1  0.4462720000000  0.4729670000000  0.4968780000000 1.0
C      1  0.4705230000000  0.4268860000000  0.4323710000000 1.0
C      1  0.5603730000000  0.4565460000000  0.4259140000000 1.0
C      1  0.5695280000000  0.5411620000000  0.4308390000000 1.0
C      1  0.4845000000000  0.5801320000000  0.4265070000000 1.0
C      1  0.4194650000000  0.5048640000000  0.4314670000000 1.0
C      1  0.4050700000000  0.4967080000000  0.5481400000000 1.0
C      1  0.4714650000000  0.4080590000000  0.5510780000000 1.0
C      1  0.5762880000000  0.4448100000000  0.5479340000000 1.0
C      1  0.5765950000000  0.5549200000000  0.5487760000000 1.0
C      1  0.4686960000000  0.5906170000000  0.5512790000000 1.0
C      1  0.5251680000000  0.5728950000000  0.4275800000000 1.0
C      1  0.4410050000000  0.5434570000000  0.4325070000000 1.0
C      1  0.4353920000000  0.4571770000000  0.4290220000000 1.0
C      1  0.5218370000000  0.4265340000000  0.4284600000000 1.0
C      1  0.5781300000000  0.5007940000000  0.4264250000000 1.0
C      1  0.5429000000000  0.5839680000000  0.5369000000000 1.0
C      1  0.4236950000000  0.5728750000000  0.5319550000000 1.0
C      1  0.4119590000000  0.4502320000000  0.5374690000000 1.0
C      1  0.5170010000000  0.4007170000000  0.5390560000000 1.0
C      1  0.5993210000000  0.4847820000000  0.5383980000000 1.0
C      1  0.5122880000000  0.4761200000000  0.6048550000000 1.0
C      1  0.5297270000000  0.4988570000000  0.6037530000000 1.0
C      1  0.5153010000000  0.5233870000000  0.6016840000000 1.0
C      1  0.4728380000000  0.5354100000000  0.5968210000000 1.0
C      1  0.4848290000000  0.4844220000000  0.6026830000000 1.0
C      1  0.4575010000000  0.4957490000000  0.4876990000000 1.0
C      1  0.4930080000000  0.4548020000000  0.4892910000000 1.0
C      1  0.5410040000000  0.4777210000000  0.4909450000000 1.0
C      1  0.5360300000000  0.5313370000000  0.4908190000000 1.0
C      1  0.4818040000000  0.5462130000000  0.4905350000000 1.0
C      1  0.4871640000000  0.4189550000000  0.5720370000000 1.0
C      1  0.5738950000000  0.4609590000000  0.5712500000000 1.0
C      1  0.5585780000000  0.5560890000000  0.5716450000000 1.0
C      1  0.4604180000000  0.5700330000000  0.5700240000000 1.0
C      1  0.4184250000000  0.4863670000000  0.5707930000000 1.0
C      1  0.5929530000000  0.4961900000000  0.4508810000000 1.0
C      1  0.5331650000000  0.5868010000000  0.4522040000000 1.0
C      1  0.4292940000000  0.5531730000000  0.4568850000000 1.0
C      1  0.4253900000000  0.4527480000000  0.4561960000000 1.0
C      1  0.5243430000000  0.4149400000000  0.4544840000000 1.0
C      1  0.5924710000000  0.5351610000000  0.4853450000000 1.0
C      1  0.4923030000000  0.6133250000000  0.4868900000000 1.0
C      1  0.3954360000000  0.5216580000000  0.4806930000000 1.0
C      1  0.4471240000000  0.4079560000000  0.4787250000000 1.0
C      1  0.5669720000000  0.4196100000000  0.4870360000000 1.0
C      1  0.4889580000000  0.5135640000000  0.6042660000000 1.0
C      1  0.5070560000000  0.4876230000000  0.4335580000000 1.0
C      1  0.4960700000000  0.5134450000000  0.4687930000000 1.0
C      1  0.4969990000000  0.5009960000000  0.5527510000000 1.0
END
