TITL C-2441158-471-26 0.0629886226899913 125000 -18145.7500430415 0 0 133 (C1) n - 1
REM
REM in /home/bkarasulu/work/CARBON/AIRSS/Generating-Clusters/ReaxFF-fromJPCA2015/Units_Real/with-SteepDescent/Higher-Symm
REM
REM
REM
REM
REM
REM ./C.cell (1df0a924f5614ab8850e4351716899ee)
REM
REM compiler GCC version 9.2.1 20190827 (Red Hat 9.2.1-1)
REM options -cpp -mtune=generic -march=x86-64 -g -O0 -fpre-include=/usr/include/finclude/math-vector-fortran.h
REM seed 1567515003 222967603 -1682389641 -1009392530 1223513604 144891057 -697484584 1649890532 627754202 -385469104 -1795630581 339112551 -159165666 -1078830138 -1927878495 1720992958 -160286138 1308913120 -779032699 744115204 -509435106 -1822753624 -1464214199 1339963541 -279840056 1578535329 -1136916338 -158443731 659025573 1585737376 -1963054614 441969051 -1952998160
REM
CELL 1.54180   50.00000   50.00000   50.00000   90.00000   90.00000   90.00000
LATT -1
SFAC C  
C      1  0.5745040000000  0.5359960000000  0.5386570000000 1.0
C      1  0.5570810000000  0.4375220000000  0.5385440000000 1.0
C      1  0.4562840000000  0.4232460000000  0.5369890000000 1.0
C      1  0.4156390000000  0.5162410000000  0.5369310000000 1.0
C      1  0.4912110000000  0.5812890000000  0.5377340000000 1.0
C      1  0.4610660000000  0.4072190000000  0.5133450000000 1.0
C      1  0.4004440000000  0.5079980000000  0.5130470000000 1.0
C      1  0.4776200000000  0.5947520000000  0.5148800000000 1.0
C      1  0.5824570000000  0.5539580000000  0.5169690000000 1.0
C      1  0.5740210000000  0.4347730000000  0.5145040000000 1.0
C      1  0.4987070000000  0.4394150000000  0.5947430000000 1.0
C      1  0.4432360000000  0.4848860000000  0.5964540000000 1.0
C      1  0.4714470000000  0.5499050000000  0.5907040000000 1.0
C      1  0.5384410000000  0.5447740000000  0.5943510000000 1.0
C      1  0.5508620000000  0.4766870000000  0.5939850000000 1.0
C      1  0.5365210000000  0.5158100000000  0.4222000000000 1.0
C      1  0.5258010000000  0.4685180000000  0.4223910000000 1.0
C      1  0.4716680000000  0.4589970000000  0.4166570000000 1.0
C      1  0.4615910000000  0.5060850000000  0.4207290000000 1.0
C      1  0.4972930000000  0.5453590000000  0.4180380000000 1.0
C      1  0.4744310000000  0.4930580000000  0.4484270000000 1.0
C      1  0.4966870000000  0.5368380000000  0.4460010000000 1.0
C      1  0.5167720000000  0.5171810000000  0.4489830000000 1.0
C      1  0.5166850000000  0.4721510000000  0.4511090000000 1.0
C      1  0.4709630000000  0.4644580000000  0.4483620000000 1.0
C      1  0.5656650000000  0.5185100000000  0.4241900000000 1.0
C      1  0.5473120000000  0.4498570000000  0.4307890000000 1.0
C      1  0.4520400000000  0.4398120000000  0.4163320000000 1.0
C      1  0.4392540000000  0.5243160000000  0.4256100000000 1.0
C      1  0.4985480000000  0.5750390000000  0.4223150000000 1.0
C      1  0.4846300000000  0.4793530000000  0.3981150000000 1.0
C      1  0.4781810000000  0.5077430000000  0.3967780000000 1.0
C      1  0.5023790000000  0.5240520000000  0.3976860000000 1.0
C      1  0.5236300000000  0.5029350000000  0.3990900000000 1.0
C      1  0.5126840000000  0.4770560000000  0.3995720000000 1.0
C      1  0.4982440000000  0.4669590000000  0.5079810000000 1.0
C      1  0.4566730000000  0.4888100000000  0.5160830000000 1.0
C      1  0.4907070000000  0.5218860000000  0.4996110000000 1.0
C      1  0.5342490000000  0.5219160000000  0.5220030000000 1.0
C      1  0.5316250000000  0.4954730000000  0.5073420000000 1.0
C      1  0.5084440000000  0.4233780000000  0.5470020000000 1.0
C      1  0.4265970000000  0.4691780000000  0.5492210000000 1.0
C      1  0.4517560000000  0.5608340000000  0.5496100000000 1.0
C      1  0.5440130000000  0.5785740000000  0.5512940000000 1.0
C      1  0.5742650000000  0.4838420000000  0.5467000000000 1.0
C      1  0.4653320000000  0.5238840000000  0.4839210000000 1.0
C      1  0.5315320000000  0.5432610000000  0.4889410000000 1.0
C      1  0.5451090000000  0.4972950000000  0.4812760000000 1.0
C      1  0.5002180000000  0.4470460000000  0.4877100000000 1.0
C      1  0.4596570000000  0.4761800000000  0.4913780000000 1.0
C      1  0.4888260000000  0.4007300000000  0.5083930000000 1.0
C      1  0.4010020000000  0.4786480000000  0.5071700000000 1.0
C      1  0.4499310000000  0.5858180000000  0.5090150000000 1.0
C      1  0.5654760000000  0.5759080000000  0.5092650000000 1.0
C      1  0.5911940000000  0.4569100000000  0.5052040000000 1.0
C      1  0.4350120000000  0.5720590000000  0.5293200000000 1.0
C      1  0.5487390000000  0.5903740000000  0.5267250000000 1.0
C      1  0.5984030000000  0.4753680000000  0.5262430000000 1.0
C      1  0.5098810000000  0.4015300000000  0.5270130000000 1.0
C      1  0.4086630000000  0.4607490000000  0.5278170000000 1.0
C      1  0.4404760000000  0.5632320000000  0.4606360000000 1.0
C      1  0.5400360000000  0.5722660000000  0.4565570000000 1.0
C      1  0.5853910000000  0.4858450000000  0.4575430000000 1.0
C      1  0.5126470000000  0.4141780000000  0.4580770000000 1.0
C      1  0.4243620000000  0.4669620000000  0.4593040000000 1.0
C      1  0.5126040000000  0.5819040000000  0.4479070000000 1.0
C      1  0.5834190000000  0.5144550000000  0.4488720000000 1.0
C      1  0.5379300000000  0.4271450000000  0.4485090000000 1.0
C      1  0.4459220000000  0.4470240000000  0.4493200000000 1.0
C      1  0.4273830000000  0.5385520000000  0.4493330000000 1.0
C      1  0.4863300000000  0.4235570000000  0.4537500000000 1.0
C      1  0.4268040000000  0.4957180000000  0.4570680000000 1.0
C      1  0.4682120000000  0.5698330000000  0.4572880000000 1.0
C      1  0.5554920000000  0.5481140000000  0.4529600000000 1.0
C      1  0.5645030000000  0.4694260000000  0.4450400000000 1.0
C      1  0.4897730000000  0.5882800000000  0.4662460000000 1.0
C      1  0.5796620000000  0.5379320000000  0.4658880000000 1.0
C      1  0.5538070000000  0.4375380000000  0.4701370000000 1.0
C      1  0.4589080000000  0.4243170000000  0.4643610000000 1.0
C      1  0.4117480000000  0.5195900000000  0.4658780000000 1.0
C      1  0.4767380000000  0.5435550000000  0.4638620000000 1.0
C      1  0.5378030000000  0.5236920000000  0.4682430000000 1.0
C      1  0.5439140000000  0.4717620000000  0.4670170000000 1.0
C      1  0.4948340000000  0.4519990000000  0.4605740000000 1.0
C      1  0.4554440000000  0.4996150000000  0.4684870000000 1.0
C      1  0.4906960000000  0.4719450000000  0.5899280000000 1.0
C      1  0.4698660000000  0.4978240000000  0.5886560000000 1.0
C      1  0.4912570000000  0.5260380000000  0.5870700000000 1.0
C      1  0.5221380000000  0.5201700000000  0.5935860000000 1.0
C      1  0.5203020000000  0.4829960000000  0.5892990000000 1.0
C      1  0.4209900000000  0.5515580000000  0.5046960000000 1.0
C      1  0.5243380000000  0.5882610000000  0.5038710000000 1.0
C      1  0.5938680000000  0.4989170000000  0.5086660000000 1.0
C      1  0.5303000000000  0.4127570000000  0.5060190000000 1.0
C      1  0.4294350000000  0.4405240000000  0.5014010000000 1.0
C      1  0.4564690000000  0.5108970000000  0.5646650000000 1.0
C      1  0.4944680000000  0.5238080000000  0.5573200000000 1.0
C      1  0.5359740000000  0.5110300000000  0.5646270000000 1.0
C      1  0.5213680000000  0.4724730000000  0.5616080000000 1.0
C      1  0.4731040000000  0.4601650000000  0.5696590000000 1.0
C      1  0.4168530000000  0.4628510000000  0.4866910000000 1.0
C      1  0.4382180000000  0.5680110000000  0.4884100000000 1.0
C      1  0.5416750000000  0.5712690000000  0.4869700000000 1.0
C      1  0.5877710000000  0.4798230000000  0.4860990000000 1.0
C      1  0.5070610000000  0.4189690000000  0.4881220000000 1.0
C      1  0.4809100000000  0.5530590000000  0.5432110000000 1.0
C      1  0.5453260000000  0.5330540000000  0.5472390000000 1.0
C      1  0.5494870000000  0.4651450000000  0.5441160000000 1.0
C      1  0.4788350000000  0.4392260000000  0.5484510000000 1.0
C      1  0.4326560000000  0.4987990000000  0.5525110000000 1.0
C      1  0.4057090000000  0.5275070000000  0.4930320000000 1.0
C      1  0.4964010000000  0.5959630000000  0.4932810000000 1.0
C      1  0.5808070000000  0.5333710000000  0.4954500000000 1.0
C      1  0.5567100000000  0.4234350000000  0.4947630000000 1.0
C      1  0.4475670000000  0.4207690000000  0.4905030000000 1.0
C      1  0.5606400000000  0.4931620000000  0.5723420000000 1.0
C      1  0.5133410000000  0.4420780000000  0.5701920000000 1.0
C      1  0.4447870000000  0.4641800000000  0.5747680000000 1.0
C      1  0.4517350000000  0.5402810000000  0.5710760000000 1.0
C      1  0.5377220000000  0.5579500000000  0.5668110000000 1.0
C      1  0.4935050000000  0.5455330000000  0.5159200000000 1.0
C      1  0.5521410000000  0.5327200000000  0.5037130000000 1.0
C      1  0.5330320000000  0.4653710000000  0.5198620000000 1.0
C      1  0.4755330000000  0.4601270000000  0.5257950000000 1.0
C      1  0.4513520000000  0.5159440000000  0.5089900000000 1.0
C      1  0.5315160000000  0.4353910000000  0.5250910000000 1.0
C      1  0.4469250000000  0.4483970000000  0.5250820000000 1.0
C      1  0.4345140000000  0.5328130000000  0.5218950000000 1.0
C      1  0.5104170000000  0.5687810000000  0.5204440000000 1.0
C      1  0.5759120000000  0.5091850000000  0.5301450000000 1.0
C      1  0.5019730000000  0.4949800000000  0.4603190000000 1.0
C      1  0.5020450000000  0.4960390000000  0.4937560000000 1.0
C      1  0.5107020000000  0.5008250000000  0.5515010000000 1.0
END
