TITL C-2441158-471-505 0.178545215649637 125000 -16368.4500313293 0 0 140 (C1) n - 1
REM
REM in /home/bkarasulu/work/CARBON/AIRSS/Generating-Clusters/ReaxFF-fromJPCA2015/Units_Real/with-SteepDescent/Higher-Symm
REM
REM
REM
REM
REM
REM ./C.cell (1df0a924f5614ab8850e4351716899ee)
REM
REM compiler GCC version 9.2.1 20190827 (Red Hat 9.2.1-1)
REM options -cpp -mtune=generic -march=x86-64 -g -O0 -fpre-include=/usr/include/finclude/math-vector-fortran.h
REM seed 336467466 -1152904228 125185534 -624989665 -23085785 862475081 -865808982 -2010369597 -681995834 29038712 1770266498 -1476494057 1344214980 -286821545 1457571895 703280907 495124596 -15939306 453428623 1657952282 -1390646551 623770693 1782932583 -1443854718 1436233609 1384897833 1000961307 2122263968 1364460896 1790436608 -590569277 -2041500456 -1850165606
REM
CELL 1.54180   50.00000   50.00000   50.00000   90.00000   90.00000   90.00000
LATT -1
SFAC C  
C      1  0.5374280000000  0.4596520000000  0.5013380000000 1.0
C      1  0.5153290000000  0.5038060000000  0.4016220000000 1.0
C      1  0.4856640000000  0.4276730000000  0.5364000000000 1.0
C      1  0.4951480000000  0.4446990000000  0.5796320000000 1.0
C      1  0.4806710000000  0.5188440000000  0.5585900000000 1.0
C      1  0.5687980000000  0.4717030000000  0.5427770000000 1.0
C      1  0.5577780000000  0.5214450000000  0.5835210000000 1.0
C      1  0.5382090000000  0.4338760000000  0.4454010000000 1.0
C      1  0.4273090000000  0.4875900000000  0.5245520000000 1.0
C      1  0.4267520000000  0.5284030000000  0.4333010000000 1.0
C      1  0.5017990000000  0.5597720000000  0.5680470000000 1.0
C      1  0.5947830000000  0.4925700000000  0.5127560000000 1.0
C      1  0.5272480000000  0.5050180000000  0.5539190000000 1.0
C      1  0.4214240000000  0.4637630000000  0.4654820000000 1.0
C      1  0.4808550000000  0.4822430000000  0.4198300000000 1.0
C      1  0.4790230000000  0.5109040000000  0.4244080000000 1.0
C      1  0.4588490000000  0.5169370000000  0.5403940000000 1.0
C      1  0.4325550000000  0.5531660000000  0.4482900000000 1.0
C      1  0.4691480000000  0.5791350000000  0.4647790000000 1.0
C      1  0.4998810000000  0.4425160000000  0.4746000000000 1.0
C      1  0.5457190000000  0.4568260000000  0.5587660000000 1.0
C      1  0.5902230000000  0.5159550000000  0.4964690000000 1.0
C      1  0.5014650000000  0.5112730000000  0.4865660000000 1.0
C      1  0.4607220000000  0.5087140000000  0.5795530000000 1.0
C      1  0.4923740000000  0.6043570000000  0.4947090000000 1.0
C      1  0.5672060000000  0.5484150000000  0.4545240000000 1.0
C      1  0.5158550000000  0.4870290000000  0.5192200000000 1.0
C      1  0.4795630000000  0.4248290000000  0.4445760000000 1.0
C      1  0.4685310000000  0.4063860000000  0.5244840000000 1.0
C      1  0.4471610000000  0.5225790000000  0.5171830000000 1.0
C      1  0.5343940000000  0.5777760000000  0.5385800000000 1.0
C      1  0.5426310000000  0.5804070000000  0.4791280000000 1.0
C      1  0.4852120000000  0.4216030000000  0.4901530000000 1.0
C      1  0.5143110000000  0.4577030000000  0.4123790000000 1.0
C      1  0.5063150000000  0.4737390000000  0.4370410000000 1.0
C      1  0.5123730000000  0.5394110000000  0.5913700000000 1.0
C      1  0.5398260000000  0.5347560000000  0.5039400000000 1.0
C      1  0.5574000000000  0.5647070000000  0.5508220000000 1.0
C      1  0.5218550000000  0.5885030000000  0.4597320000000 1.0
C      1  0.4693530000000  0.4093070000000  0.4660260000000 1.0
C      1  0.4877160000000  0.4523040000000  0.5206530000000 1.0
C      1  0.5424090000000  0.4987080000000  0.5940440000000 1.0
C      1  0.5488030000000  0.4979410000000  0.5367770000000 1.0
C      1  0.5901520000000  0.4767710000000  0.4734460000000 1.0
C      1  0.5505630000000  0.4209150000000  0.4885870000000 1.0
C      1  0.5141460000000  0.5562740000000  0.5421360000000 1.0
C      1  0.4308460000000  0.4773030000000  0.5625010000000 1.0
C      1  0.5340370000000  0.5288300000000  0.5678470000000 1.0
C      1  0.4986450000000  0.4945390000000  0.5574320000000 1.0
C      1  0.5403470000000  0.4704480000000  0.5847220000000 1.0
C      1  0.4919240000000  0.4872490000000  0.4741260000000 1.0
C      1  0.5688960000000  0.5677380000000  0.4766880000000 1.0
C      1  0.5004850000000  0.5258860000000  0.4132250000000 1.0
C      1  0.4615810000000  0.5552940000000  0.4495880000000 1.0
C      1  0.4320390000000  0.4972020000000  0.4986290000000 1.0
C      1  0.5727130000000  0.5201350000000  0.5384670000000 1.0
C      1  0.4650540000000  0.5233800000000  0.4958810000000 1.0
C      1  0.4573980000000  0.4140680000000  0.4959460000000 1.0
C      1  0.5738850000000  0.5622390000000  0.5046530000000 1.0
C      1  0.4215890000000  0.5014770000000  0.5494840000000 1.0
C      1  0.5162320000000  0.4793770000000  0.4633070000000 1.0
C      1  0.4343610000000  0.4987960000000  0.4360040000000 1.0
C      1  0.5829090000000  0.5240400000000  0.4489280000000 1.0
C      1  0.5563140000000  0.4247720000000  0.5171370000000 1.0
C      1  0.4667510000000  0.5961350000000  0.5059770000000 1.0
C      1  0.5408900000000  0.4534690000000  0.4243330000000 1.0
C      1  0.5231100000000  0.4579400000000  0.4784090000000 1.0
C      1  0.5537270000000  0.4933750000000  0.4816460000000 1.0
C      1  0.5152970000000  0.5098370000000  0.5986120000000 1.0
C      1  0.5231210000000  0.4103510000000  0.4854390000000 1.0
C      1  0.5162710000000  0.4485650000000  0.5157620000000 1.0
C      1  0.5569670000000  0.4383420000000  0.4662690000000 1.0
C      1  0.4996180000000  0.4892170000000  0.5870330000000 1.0
C      1  0.3997230000000  0.5188410000000  0.5003480000000 1.0
C      1  0.4502390000000  0.4349810000000  0.5623600000000 1.0
C      1  0.5317800000000  0.4264820000000  0.5514550000000 1.0
C      1  0.4235160000000  0.4445970000000  0.5195920000000 1.0
C      1  0.5600340000000  0.4742540000000  0.4342440000000 1.0
C      1  0.4812230000000  0.4774320000000  0.5361150000000 1.0
C      1  0.5129170000000  0.4638580000000  0.5903580000000 1.0
C      1  0.4080710000000  0.4682000000000  0.5134730000000 1.0
C      1  0.5604240000000  0.5763540000000  0.5255750000000 1.0
C      1  0.5289600000000  0.5578120000000  0.4903640000000 1.0
C      1  0.5677350000000  0.4530760000000  0.5166260000000 1.0
C      1  0.5010430000000  0.5609580000000  0.4953100000000 1.0
C      1  0.5480920000000  0.4972320000000  0.4332140000000 1.0
C      1  0.4700220000000  0.5579160000000  0.5325750000000 1.0
C      1  0.5002420000000  0.4788750000000  0.3979900000000 1.0
C      1  0.4557190000000  0.4802380000000  0.5779300000000 1.0
C      1  0.5229020000000  0.5706490000000  0.4378690000000 1.0
C      1  0.4806080000000  0.5854610000000  0.5294400000000 1.0
C      1  0.4040740000000  0.4894250000000  0.4926010000000 1.0
C      1  0.5412470000000  0.5471140000000  0.4394300000000 1.0
C      1  0.5015880000000  0.5121750000000  0.5166120000000 1.0
C      1  0.4944370000000  0.5515860000000  0.4075940000000 1.0
C      1  0.4621010000000  0.4499120000000  0.4476670000000 1.0
C      1  0.5002380000000  0.5324930000000  0.4673790000000 1.0
C      1  0.5641990000000  0.5147300000000  0.4303160000000 1.0
C      1  0.4736150000000  0.5517730000000  0.5025950000000 1.0
C      1  0.4340440000000  0.4534560000000  0.5457570000000 1.0
C      1  0.4526600000000  0.5757790000000  0.4886800000000 1.0
C      1  0.5410790000000  0.4878290000000  0.5075770000000 1.0
C      1  0.4601570000000  0.4664600000000  0.4977730000000 1.0
C      1  0.5891230000000  0.4669510000000  0.5006980000000 1.0
C      1  0.4686880000000  0.4540320000000  0.5755960000000 1.0
C      1  0.4795020000000  0.5195430000000  0.4519820000000 1.0
C      1  0.5260380000000  0.5290630000000  0.4562880000000 1.0
C      1  0.4706550000000  0.4878190000000  0.5124420000000 1.0
C      1  0.4457010000000  0.4816000000000  0.4780910000000 1.0
C      1  0.4477160000000  0.4152100000000  0.5417620000000 1.0
C      1  0.4695080000000  0.4772990000000  0.4589140000000 1.0
C      1  0.5640740000000  0.4694810000000  0.4641730000000 1.0
C      1  0.5224370000000  0.4963570000000  0.4288070000000 1.0
C      1  0.4844520000000  0.5417970000000  0.5806300000000 1.0
C      1  0.4443870000000  0.4404090000000  0.4971550000000 1.0
C      1  0.4156640000000  0.5324230000000  0.4791040000000 1.0
C      1  0.4983370000000  0.5726990000000  0.4233950000000 1.0
C      1  0.4578800000000  0.5266600000000  0.4683600000000 1.0
C      1  0.5071350000000  0.4054730000000  0.5074750000000 1.0
C      1  0.4467880000000  0.5535610000000  0.5490150000000 1.0
C      1  0.4937580000000  0.5932470000000  0.4674890000000 1.0
C      1  0.5056670000000  0.5841350000000  0.5129770000000 1.0
C      1  0.4280070000000  0.5582610000000  0.4757360000000 1.0
C      1  0.4167610000000  0.5145930000000  0.4550580000000 1.0
C      1  0.4727170000000  0.5600970000000  0.4226910000000 1.0
C      1  0.5678790000000  0.5389690000000  0.5608530000000 1.0
C      1  0.5185480000000  0.5340490000000  0.5247880000000 1.0
C      1  0.4292830000000  0.5514950000000  0.5271810000000 1.0
C      1  0.5311610000000  0.4120730000000  0.5264050000000 1.0
C      1  0.4392600000000  0.4411110000000  0.4645580000000 1.0
C      1  0.4295080000000  0.4712340000000  0.4393270000000 1.0
C      1  0.5221480000000  0.4651320000000  0.5388420000000 1.0
C      1  0.5884550000000  0.4942560000000  0.5409840000000 1.0
C      1  0.5725120000000  0.5342240000000  0.5107370000000 1.0
C      1  0.5358510000000  0.5153310000000  0.4800110000000 1.0
C      1  0.4095520000000  0.5314840000000  0.5237400000000 1.0
C      1  0.5926330000000  0.5060990000000  0.4702860000000 1.0
C      1  0.5043520000000  0.4259130000000  0.5595880000000 1.0
C      1  0.5105640000000  0.4232330000000  0.4555950000000 1.0
C      1  0.4406770000000  0.5238370000000  0.5618990000000 1.0
END
