TITL C-2441156-4686-213 0.0733095602603905 125000 -20337.7644680114 0 0 149 (C1) n - 1
REM
REM in /home/bkarasulu/work/CARBON/AIRSS/Generating-Clusters/ReaxFF-fromJPCA2015/Units_Real/with-SteepDescent/Higher-Symm
REM
REM
REM
REM
REM
REM ./C.cell (1df0a924f5614ab8850e4351716899ee)
REM
REM compiler GCC version 9.2.1 20190827 (Red Hat 9.2.1-1)
REM options -cpp -mtune=generic -march=x86-64 -g -O0 -fpre-include=/usr/include/finclude/math-vector-fortran.h
REM seed 2131132950 138581296 970004461 639885660 1021660462 -755451526 77645564 851171554 105093472 1549424860 659959492 312561196 -2132819855 593041436 -1571812553 -1906871492 -1280082471 1987254175 -325221042 1707628195 1788672303 1555176672 76935895 -2087804525 958442495 1180251386 477482995 -1382323021 1968826476 1734644424 1816297665 -2108257473 1401439998
REM
CELL 1.54180   50.00000   50.00000   50.00000   90.00000   90.00000   90.00000
LATT -1
SFAC C  
C      1  0.4497500000000  0.4748510000000  0.5847270000000 1.0
C      1  0.5475930000000  0.4171330000000  0.4773490000000 1.0
C      1  0.4493370000000  0.5241570000000  0.4196190000000 1.0
C      1  0.5496250000000  0.5817940000000  0.5226600000000 1.0
C      1  0.5450780000000  0.5799260000000  0.4538780000000 1.0
C      1  0.4558550000000  0.5442380000000  0.5810220000000 1.0
C      1  0.5440000000000  0.4203240000000  0.5452790000000 1.0
C      1  0.4543750000000  0.4561820000000  0.4180390000000 1.0
C      1  0.4396510000000  0.4769480000000  0.4303290000000 1.0
C      1  0.5618220000000  0.5649940000000  0.4718860000000 1.0
C      1  0.4374760000000  0.5255700000000  0.5681050000000 1.0
C      1  0.5591410000000  0.4356070000000  0.5250260000000 1.0
C      1  0.5507850000000  0.4915610000000  0.5044610000000 1.0
C      1  0.4483120000000  0.4921810000000  0.4875230000000 1.0
C      1  0.5471470000000  0.5197420000000  0.4985950000000 1.0
C      1  0.4479060000000  0.5025400000000  0.5150860000000 1.0
C      1  0.4764570000000  0.4184200000000  0.4498670000000 1.0
C      1  0.5181270000000  0.5541630000000  0.4130100000000 1.0
C      1  0.4624620000000  0.5804850000000  0.5509960000000 1.0
C      1  0.5196480000000  0.4450930000000  0.5863370000000 1.0
C      1  0.4621290000000  0.5286030000000  0.5103940000000 1.0
C      1  0.5372790000000  0.4855350000000  0.5298470000000 1.0
C      1  0.4656660000000  0.4689750000000  0.4868390000000 1.0
C      1  0.5330230000000  0.5164760000000  0.4727080000000 1.0
C      1  0.4625390000000  0.4039430000000  0.5142010000000 1.0
C      1  0.5381580000000  0.4824680000000  0.4147630000000 1.0
C      1  0.4549340000000  0.5945640000000  0.4837170000000 1.0
C      1  0.5400150000000  0.5151090000000  0.5933370000000 1.0
C      1  0.4024680000000  0.4806870000000  0.5196290000000 1.0
C      1  0.5892210000000  0.4780480000000  0.4728590000000 1.0
C      1  0.4106090000000  0.5265530000000  0.4773480000000 1.0
C      1  0.6008880000000  0.5228200000000  0.5168240000000 1.0
C      1  0.5601550000000  0.4686880000000  0.5722650000000 1.0
C      1  0.4301750000000  0.4309870000000  0.4757050000000 1.0
C      1  0.5574450000000  0.5329660000000  0.4260220000000 1.0
C      1  0.4402850000000  0.5780970000000  0.5333930000000 1.0
C      1  0.5666390000000  0.5218090000000  0.5810810000000 1.0
C      1  0.4383530000000  0.4163220000000  0.5260040000000 1.0
C      1  0.5648630000000  0.4781110000000  0.4264950000000 1.0
C      1  0.4289560000000  0.5783550000000  0.4769990000000 1.0
C      1  0.5430740000000  0.5034790000000  0.4500940000000 1.0
C      1  0.4534220000000  0.5515840000000  0.4979770000000 1.0
C      1  0.5454790000000  0.5012220000000  0.5526080000000 1.0
C      1  0.4578430000000  0.4474310000000  0.5026430000000 1.0
C      1  0.4737650000000  0.4436820000000  0.4365730000000 1.0
C      1  0.5245890000000  0.5689390000000  0.4357580000000 1.0
C      1  0.4720690000000  0.5594970000000  0.5647070000000 1.0
C      1  0.5246780000000  0.4313320000000  0.5629620000000 1.0
C      1  0.4313740000000  0.5647820000000  0.5099720000000 1.0
C      1  0.5736440000000  0.4920850000000  0.5645160000000 1.0
C      1  0.4306410000000  0.4360030000000  0.5046150000000 1.0
C      1  0.5706860000000  0.5093290000000  0.4342920000000 1.0
C      1  0.5081710000000  0.4204490000000  0.4515010000000 1.0
C      1  0.4901910000000  0.5472120000000  0.4139580000000 1.0
C      1  0.5166300000000  0.5821150000000  0.5475810000000 1.0
C      1  0.4915580000000  0.4523620000000  0.5874890000000 1.0
C      1  0.4917290000000  0.5153930000000  0.6074760000000 1.0
C      1  0.5131860000000  0.3933210000000  0.5121530000000 1.0
C      1  0.4902080000000  0.4836080000000  0.3925970000000 1.0
C      1  0.5094670000000  0.6053720000000  0.4858820000000 1.0
C      1  0.4876410000000  0.4767510000000  0.5054360000000 1.0
C      1  0.5089880000000  0.5023410000000  0.4761970000000 1.0
C      1  0.4874780000000  0.5259840000000  0.5006860000000 1.0
C      1  0.5140800000000  0.5043020000000  0.5263350000000 1.0
C      1  0.5258010000000  0.4646610000000  0.4642860000000 1.0
C      1  0.4941940000000  0.5430560000000  0.4571650000000 1.0
C      1  0.5152480000000  0.5440960000000  0.5362740000000 1.0
C      1  0.4778430000000  0.4612110000000  0.5460180000000 1.0
C      1  0.5228790000000  0.6005730000000  0.4619910000000 1.0
C      1  0.4800830000000  0.5397200000000  0.5985500000000 1.0
C      1  0.5228110000000  0.4002660000000  0.5373510000000 1.0
C      1  0.4769670000000  0.4603130000000  0.3983940000000 1.0
C      1  0.5353210000000  0.5317570000000  0.4094680000000 1.0
C      1  0.4686100000000  0.5827510000000  0.5252970000000 1.0
C      1  0.5378800000000  0.4669740000000  0.5891710000000 1.0
C      1  0.4555970000000  0.4155230000000  0.4690520000000 1.0
C      1  0.4097100000000  0.4974520000000  0.4706410000000 1.0
C      1  0.5961490000000  0.5270750000000  0.4887270000000 1.0
C      1  0.4169550000000  0.5081430000000  0.5240710000000 1.0
C      1  0.5910900000000  0.4729490000000  0.5025280000000 1.0
C      1  0.5257260000000  0.4906180000000  0.6020290000000 1.0
C      1  0.4714420000000  0.3988660000000  0.4871920000000 1.0
C      1  0.5249400000000  0.5055100000000  0.4008520000000 1.0
C      1  0.4732450000000  0.6031720000000  0.5057730000000 1.0
C      1  0.5921280000000  0.5495450000000  0.5283760000000 1.0
C      1  0.4111060000000  0.4691150000000  0.5449460000000 1.0
C      1  0.5849680000000  0.4381000000000  0.4812670000000 1.0
C      1  0.4218650000000  0.5336150000000  0.4250400000000 1.0
C      1  0.4593110000000  0.5097220000000  0.4677800000000 1.0
C      1  0.5308910000000  0.5270530000000  0.5212300000000 1.0
C      1  0.4723680000000  0.4845970000000  0.5296210000000 1.0
C      1  0.5345090000000  0.4713860000000  0.4916140000000 1.0
C      1  0.5875750000000  0.4776990000000  0.5434090000000 1.0
C      1  0.4157540000000  0.4556580000000  0.4700670000000 1.0
C      1  0.5888240000000  0.5242920000000  0.4491900000000 1.0
C      1  0.4128640000000  0.5490020000000  0.5254400000000 1.0
C      1  0.4575500000000  0.4964360000000  0.4243750000000 1.0
C      1  0.5441840000000  0.5711620000000  0.4957270000000 1.0
C      1  0.4536850000000  0.5018730000000  0.5753420000000 1.0
C      1  0.5414550000000  0.4265280000000  0.5038230000000 1.0
C      1  0.4965250000000  0.5099250000000  0.3913560000000 1.0
C      1  0.5023440000000  0.6084990000000  0.5096650000000 1.0
C      1  0.4967260000000  0.4882690000000  0.6096560000000 1.0
C      1  0.5027900000000  0.3922860000000  0.4869000000000 1.0
C      1  0.4785960000000  0.4295450000000  0.5136920000000 1.0
C      1  0.5239400000000  0.4833470000000  0.4408260000000 1.0
C      1  0.4684090000000  0.5689560000000  0.4806070000000 1.0
C      1  0.5279810000000  0.5201810000000  0.5673880000000 1.0
C      1  0.4374190000000  0.4365800000000  0.5462770000000 1.0
C      1  0.5733950000000  0.4646480000000  0.4510560000000 1.0
C      1  0.4256220000000  0.5478010000000  0.4629190000000 1.0
C      1  0.5660050000000  0.5403970000000  0.5600210000000 1.0
C      1  0.4922080000000  0.4731630000000  0.5665310000000 1.0
C      1  0.5100230000000  0.4417540000000  0.4706510000000 1.0
C      1  0.4950870000000  0.5263960000000  0.4343260000000 1.0
C      1  0.5033170000000  0.5671910000000  0.5254450000000 1.0
C      1  0.5024490000000  0.5437180000000  0.4847740000000 1.0
C      1  0.4891170000000  0.5052170000000  0.5420530000000 1.0
C      1  0.5131750000000  0.4620350000000  0.5090750000000 1.0
C      1  0.4854280000000  0.4947830000000  0.4619590000000 1.0
C      1  0.5033710000000  0.5851530000000  0.4463050000000 1.0
C      1  0.4952230000000  0.5559920000000  0.5793200000000 1.0
C      1  0.5037080000000  0.4169480000000  0.5530190000000 1.0
C      1  0.4986630000000  0.4492390000000  0.4198970000000 1.0
C      1  0.4831860000000  0.5013340000000  0.5694640000000 1.0
C      1  0.5113310000000  0.4352100000000  0.4995780000000 1.0
C      1  0.4861980000000  0.4979540000000  0.4332130000000 1.0
C      1  0.5158720000000  0.5647200000000  0.4984090000000 1.0
C      1  0.5276700000000  0.6000300000000  0.5292550000000 1.0
C      1  0.4730300000000  0.4687050000000  0.6019570000000 1.0
C      1  0.5232720000000  0.4030890000000  0.4683090000000 1.0
C      1  0.4742930000000  0.5292320000000  0.3992300000000 1.0
C      1  0.5806870000000  0.4558350000000  0.5246940000000 1.0
C      1  0.4195740000000  0.4775710000000  0.4508080000000 1.0
C      1  0.5833020000000  0.5447770000000  0.4692520000000 1.0
C      1  0.4191630000000  0.5285750000000  0.5456620000000 1.0
C      1  0.5659040000000  0.5589370000000  0.5384070000000 1.0
C      1  0.4329680000000  0.4587630000000  0.5630600000000 1.0
C      1  0.5670650000000  0.4352490000000  0.4608400000000 1.0
C      1  0.4489040000000  0.5329980000000  0.4533370000000 1.0
C      1  0.4819800000000  0.5685870000000  0.4548340000000 1.0
C      1  0.5198100000000  0.5504630000000  0.5642000000000 1.0
C      1  0.4827510000000  0.4342000000000  0.5422880000000 1.0
C      1  0.5225540000000  0.4364060000000  0.4249620000000 1.0
C      1  0.4055170000000  0.4763370000000  0.4903760000000 1.0
C      1  0.5971730000000  0.5060260000000  0.4690670000000 1.0
C      1  0.4058020000000  0.5286700000000  0.5060820000000 1.0
C      1  0.5965450000000  0.4942920000000  0.5215890000000 1.0
C      1  0.5000880000000  0.5018840000000  0.5009080000000 1.0
END
