TITL C-2441156-4686-830 0.00334280711562886 125000 -9732.34214458483 0 0 68 (C1) n - 1
REM
REM in /home/bkarasulu/work/CARBON/AIRSS/Generating-Clusters/ReaxFF-fromJPCA2015/Units_Real/with-SteepDescent/Higher-Symm
REM
REM
REM
REM
REM
REM ./C.cell (1df0a924f5614ab8850e4351716899ee)
REM
REM compiler GCC version 9.2.1 20190827 (Red Hat 9.2.1-1)
REM options -cpp -mtune=generic -march=x86-64 -g -O0 -fpre-include=/usr/include/finclude/math-vector-fortran.h
REM seed -1783212069 -1161071133 -1914384466 -1678575565 396247517 971984500 110489478 -694586484 -954096854 -863024883 1556634056 1080348354 1367637862 -607283923 9817382 -1441310134 385855892 -1738472894 749816019 -1440916139 -979933706 -799751982 305062370 1032318831 1784247422 939405641 -1668758598 -605744185 -1349125715 -593334507 -1643268725 1519017036 -754436790
REM
CELL 1.54180   50.00000   50.00000   50.00000   90.00000   90.00000   90.00000
LATT -1
SFAC C  
C      1  0.4847670000000  0.4434770000000  0.5510220000000 1.0
C      1  0.5511510000000  0.4436570000000  0.4872150000000 1.0
C      1  0.4625380000000  0.4418210000000  0.4615660000000 1.0
C      1  0.4864480000000  0.5557560000000  0.4479310000000 1.0
C      1  0.5512400000000  0.5559480000000  0.5122080000000 1.0
C      1  0.4644900000000  0.5547330000000  0.5391530000000 1.0
C      1  0.5163440000000  0.5558150000000  0.4482270000000 1.0
C      1  0.4494340000000  0.5562950000000  0.5140740000000 1.0
C      1  0.5373790000000  0.5561460000000  0.5387840000000 1.0
C      1  0.5145830000000  0.4413540000000  0.5513850000000 1.0
C      1  0.4478140000000  0.4422940000000  0.4873630000000 1.0
C      1  0.5365880000000  0.4431720000000  0.4613630000000 1.0
C      1  0.5160060000000  0.4841270000000  0.4734290000000 1.0
C      1  0.4734910000000  0.4753760000000  0.5010000000000 1.0
C      1  0.5143940000000  0.4727500000000  0.5206700000000 1.0
C      1  0.5105370000000  0.5263670000000  0.5214600000000 1.0
C      1  0.4739860000000  0.5218760000000  0.4973200000000 1.0
C      1  0.5139710000000  0.5144390000000  0.4722840000000 1.0
C      1  0.4849340000000  0.5121780000000  0.5265350000000 1.0
C      1  0.5296160000000  0.5150600000000  0.5011390000000 1.0
C      1  0.4869540000000  0.5184830000000  0.4725700000000 1.0
C      1  0.4887620000000  0.4736310000000  0.4762820000000 1.0
C      1  0.5307430000000  0.4849290000000  0.4992610000000 1.0
C      1  0.4867020000000  0.4834800000000  0.5262930000000 1.0
C      1  0.4781880000000  0.5271010000000  0.4478280000000 1.0
C      1  0.4655630000000  0.5258630000000  0.5456740000000 1.0
C      1  0.5568460000000  0.5274660000000  0.5055530000000 1.0
C      1  0.4783080000000  0.4720200000000  0.5541360000000 1.0
C      1  0.4671540000000  0.4700910000000  0.4541820000000 1.0
C      1  0.5580270000000  0.4717980000000  0.4927250000000 1.0
C      1  0.5279530000000  0.4665600000000  0.5468110000000 1.0
C      1  0.5347540000000  0.4712290000000  0.4525610000000 1.0
C      1  0.4437520000000  0.4710760000000  0.4938880000000 1.0
C      1  0.5247520000000  0.5276310000000  0.4467370000000 1.0
C      1  0.5320950000000  0.5279920000000  0.5447890000000 1.0
C      1  0.4446550000000  0.5313300000000  0.5010060000000 1.0
C      1  0.5293810000000  0.5722030000000  0.5007010000000 1.0
C      1  0.4869590000000  0.5738960000000  0.4709890000000 1.0
C      1  0.4857730000000  0.5734400000000  0.5295770000000 1.0
C      1  0.5288770000000  0.4280620000000  0.4997170000000 1.0
C      1  0.4841970000000  0.4267350000000  0.5263210000000 1.0
C      1  0.4844120000000  0.4263880000000  0.4746210000000 1.0
C      1  0.4693350000000  0.4260760000000  0.4998530000000 1.0
C      1  0.5133380000000  0.4264240000000  0.5254850000000 1.0
C      1  0.5144560000000  0.4278380000000  0.4744500000000 1.0
C      1  0.4756260000000  0.5684250000000  0.5012070000000 1.0
C      1  0.5156670000000  0.5728550000000  0.4732350000000 1.0
C      1  0.5156940000000  0.5733070000000  0.5269340000000 1.0
C      1  0.4549520000000  0.5090470000000  0.4423660000000 1.0
C      1  0.4712320000000  0.5104780000000  0.5708170000000 1.0
C      1  0.5746780000000  0.5102670000000  0.4883120000000 1.0
C      1  0.4534740000000  0.4875920000000  0.5601900000000 1.0
C      1  0.4737670000000  0.4877650000000  0.4312770000000 1.0
C      1  0.5742230000000  0.4889510000000  0.5108840000000 1.0
C      1  0.5450270000000  0.4888470000000  0.5563020000000 1.0
C      1  0.5272670000000  0.4887670000000  0.4297680000000 1.0
C      1  0.4280270000000  0.4891530000000  0.5118830000000 1.0
C      1  0.5478000000000  0.5096680000000  0.4405470000000 1.0
C      1  0.5254000000000  0.5102350000000  0.5674620000000 1.0
C      1  0.4281120000000  0.5101430000000  0.4889290000000 1.0
C      1  0.4984410000000  0.5033610000000  0.5709710000000 1.0
C      1  0.5001550000000  0.4982870000000  0.4298880000000 1.0
C      1  0.4408840000000  0.4992030000000  0.4654660000000 1.0
C      1  0.5619090000000  0.5020530000000  0.4641860000000 1.0
C      1  0.4394220000000  0.4941790000000  0.5367620000000 1.0
C      1  0.5601770000000  0.4982530000000  0.5340460000000 1.0
C      1  0.4981970000000  0.4551300000000  0.5003900000000 1.0
C      1  0.4938140000000  0.5437820000000  0.5022880000000 1.0
END
