TITL C-2441160-1326-504 0.00900929409700888 125000 -12057.5932609914 0 0 84 (C1) n - 1
REM
REM in /home/bkarasulu/work/CARBON/AIRSS/Generating-Clusters/ReaxFF-fromJPCA2015/Units_Real/with-SteepDescent/Higher-Symm
REM
REM
REM
REM
REM
REM ./C.cell (1df0a924f5614ab8850e4351716899ee)
REM
REM compiler GCC version 9.2.1 20190827 (Red Hat 9.2.1-1)
REM options -cpp -mtune=generic -march=x86-64 -g -O0 -fpre-include=/usr/include/finclude/math-vector-fortran.h
REM seed 95634717 -646381064 -106886518 1689372035 1537280343 -1753182589 443707719 1933005977 11320081 -546856799 -827701534 1100330233 -893151833 -358196870 -1385013017 533004428 930380496 526153015 -1340660329 1099368311 1872062810 -853746739 -2012981121 480612672 1598130629 -1714585393 625800746 1404646881 -844074317 -1084416347 1102279145 -1234916458 354143882
REM
CELL 1.54180   50.00000   50.00000   50.00000   90.00000   90.00000   90.00000
LATT -1
SFAC C  
C      1  0.4916190000000  0.5044120000000  0.4878330000000 1.0
C      1  0.4882140000000  0.4804390000000  0.5059250000000 1.0
C      1  0.4944930000000  0.5216570000000  0.5104820000000 1.0
C      1  0.5599670000000  0.5410630000000  0.4754610000000 1.0
C      1  0.5609170000000  0.4583490000000  0.4758510000000 1.0
C      1  0.5625690000000  0.4998550000000  0.5501040000000 1.0
C      1  0.5359000000000  0.4842080000000  0.5039640000000 1.0
C      1  0.5362620000000  0.5078890000000  0.5202030000000 1.0
C      1  0.5371140000000  0.5003200000000  0.4802580000000 1.0
C      1  0.5006280000000  0.4830630000000  0.4388150000000 1.0
C      1  0.5012810000000  0.4488570000000  0.5468170000000 1.0
C      1  0.5004750000000  0.5642760000000  0.5206070000000 1.0
C      1  0.4588110000000  0.5195600000000  0.4426980000000 1.0
C      1  0.4551670000000  0.4412710000000  0.5096860000000 1.0
C      1  0.4599750000000  0.5400280000000  0.5477230000000 1.0
C      1  0.5137010000000  0.5090960000000  0.4695800000000 1.0
C      1  0.5134340000000  0.4663480000000  0.5067460000000 1.0
C      1  0.5137040000000  0.5192800000000  0.5319920000000 1.0
C      1  0.5500570000000  0.5570990000000  0.4981070000000 1.0
C      1  0.5515410000000  0.4697370000000  0.4501880000000 1.0
C      1  0.5511290000000  0.4728980000000  0.5514670000000 1.0
C      1  0.5058800000000  0.5894040000000  0.4883710000000 1.0
C      1  0.5068180000000  0.4433650000000  0.4287270000000 1.0
C      1  0.5053020000000  0.4659790000000  0.5838540000000 1.0
C      1  0.4461230000000  0.4882700000000  0.5565640000000 1.0
C      1  0.4464560000000  0.5548000000000  0.4793720000000 1.0
C      1  0.4470120000000  0.4533530000000  0.4607750000000 1.0
C      1  0.4680500000000  0.5162510000000  0.5291400000000 1.0
C      1  0.4635670000000  0.5141020000000  0.4730980000000 1.0
C      1  0.4609920000000  0.4686440000000  0.4988620000000 1.0
C      1  0.4701480000000  0.4682800000000  0.4724680000000 1.0
C      1  0.4812920000000  0.4900280000000  0.5331550000000 1.0
C      1  0.4706860000000  0.5396160000000  0.4851310000000 1.0
C      1  0.4977760000000  0.4668100000000  0.4634920000000 1.0
C      1  0.5027260000000  0.4779170000000  0.5455520000000 1.0
C      1  0.4965130000000  0.5469310000000  0.4955340000000 1.0
C      1  0.5469870000000  0.5463230000000  0.4502580000000 1.0
C      1  0.5475120000000  0.4342330000000  0.4839550000000 1.0
C      1  0.5501310000000  0.5210700000000  0.5659990000000 1.0
C      1  0.4376400000000  0.4732900000000  0.5352130000000 1.0
C      1  0.4385400000000  0.5460340000000  0.5073640000000 1.0
C      1  0.4371430000000  0.4807150000000  0.4536460000000 1.0
C      1  0.4777840000000  0.5846560000000  0.4846390000000 1.0
C      1  0.4783640000000  0.4434170000000  0.4334490000000 1.0
C      1  0.4772800000000  0.4718110000000  0.5790810000000 1.0
C      1  0.5564930000000  0.4555370000000  0.5276430000000 1.0
C      1  0.5564660000000  0.5470390000000  0.5250030000000 1.0
C      1  0.5576700000000  0.4981780000000  0.4453920000000 1.0
C      1  0.4412220000000  0.5177730000000  0.5139010000000 1.0
C      1  0.4377490000000  0.4968250000000  0.4777720000000 1.0
C      1  0.4339090000000  0.4901180000000  0.5062810000000 1.0
C      1  0.4615500000000  0.4990690000000  0.5760910000000 1.0
C      1  0.4634880000000  0.5706980000000  0.4616180000000 1.0
C      1  0.4655180000000  0.4308520000000  0.4588440000000 1.0
C      1  0.4682180000000  0.5287770000000  0.5730060000000 1.0
C      1  0.4671370000000  0.5474810000000  0.4391210000000 1.0
C      1  0.4693490000000  0.4256850000000  0.4890220000000 1.0
C      1  0.5326070000000  0.5785580000000  0.4862020000000 1.0
C      1  0.5339470000000  0.4483860000000  0.4382020000000 1.0
C      1  0.5323600000000  0.4739250000000  0.5754820000000 1.0
C      1  0.5008270000000  0.5571830000000  0.4605700000000 1.0
C      1  0.5033510000000  0.4375310000000  0.4691830000000 1.0
C      1  0.5070660000000  0.5108220000000  0.5640270000000 1.0
C      1  0.4541770000000  0.4925170000000  0.4327320000000 1.0
C      1  0.4525230000000  0.4485370000000  0.5381670000000 1.0
C      1  0.4540450000000  0.5604150000000  0.5274250000000 1.0
C      1  0.4748430000000  0.4494010000000  0.5590220000000 1.0
C      1  0.4754560000000  0.5774850000000  0.5148950000000 1.0
C      1  0.4764760000000  0.4733710000000  0.4262360000000 1.0
C      1  0.5118460000000  0.5140560000000  0.4397100000000 1.0
C      1  0.5123580000000  0.4387370000000  0.5168870000000 1.0
C      1  0.5123280000000  0.5500760000000  0.5458410000000 1.0
C      1  0.5420990000000  0.5454820000000  0.5500750000000 1.0
C      1  0.5415230000000  0.5209470000000  0.4362820000000 1.0
C      1  0.5427180000000  0.4344440000000  0.5128540000000 1.0
C      1  0.4957030000000  0.5371870000000  0.5695940000000 1.0
C      1  0.4952200000000  0.5415400000000  0.4372250000000 1.0
C      1  0.4968780000000  0.4260170000000  0.4940470000000 1.0
C      1  0.5626610000000  0.5115480000000  0.4714690000000 1.0
C      1  0.5620220000000  0.4696450000000  0.5028630000000 1.0
C      1  0.5629400000000  0.5176320000000  0.5257920000000 1.0
C      1  0.5307630000000  0.5032950000000  0.5794620000000 1.0
C      1  0.5277240000000  0.5678150000000  0.4588530000000 1.0
C      1  0.5290890000000  0.4304140000000  0.4610030000000 1.0
END
