TITL C-2441167-4473-791 0.0862938052500923 125000 -4164.50049455788 0 0 49 (C1) n - 1
REM
REM in /home/bkarasulu/work/CARBON/AIRSS/Generating-Clusters/ReaxFF-fromJPCA2015/Units_Real/with-SteepDescent/Higher-Symm
REM
REM
REM
REM
REM
REM ./C.cell (1df0a924f5614ab8850e4351716899ee)
REM
REM compiler GCC version 9.2.1 20190827 (Red Hat 9.2.1-1)
REM options -cpp -mtune=generic -march=x86-64 -g -O0 -fpre-include=/usr/include/finclude/math-vector-fortran.h
REM seed -690799777 1375877851 1127328659 -1898698198 594214051 882511564 -204206389 951028192 1784079214 -2144169561 -944316225 929472898 -699209064 297338312 -1728976718 471331267 782845985 -1950824778 -2084420876 909961603 1079091184 1852323191 1988362721 -964509010 -848346983 -1701854203 -132929695 -1453821045 -1504419798 812988136 1293584161 355534900 1177316272
REM
CELL 1.54180   50.00000   50.00000   50.00000   90.00000   90.00000   90.00000
LATT -1
SFAC C  
C      1  0.4702690000000  0.5273070000000  0.5127310000000 1.0
C      1  0.5282470000000  0.5270780000000  0.4875010000000 1.0
C      1  0.5284880000000  0.4723270000000  0.5116020000000 1.0
C      1  0.4704740000000  0.4724350000000  0.4869960000000 1.0
C      1  0.5119180000000  0.5272170000000  0.4702130000000 1.0
C      1  0.4881780000000  0.5264490000000  0.5284740000000 1.0
C      1  0.5117400000000  0.4726380000000  0.5283840000000 1.0
C      1  0.4874510000000  0.4723480000000  0.4705760000000 1.0
C      1  0.4813460000000  0.5128100000000  0.4642440000000 1.0
C      1  0.5169960000000  0.5115590000000  0.5330040000000 1.0
C      1  0.5155640000000  0.4893030000000  0.4674240000000 1.0
C      1  0.4827170000000  0.4891760000000  0.5335350000000 1.0
C      1  0.4664900000000  0.5104490000000  0.4824650000000 1.0
C      1  0.5342000000000  0.5096580000000  0.5144630000000 1.0
C      1  0.4665790000000  0.4896690000000  0.5159370000000 1.0
C      1  0.5341700000000  0.4895610000000  0.4854600000000 1.0
C      1  0.4690440000000  0.4771810000000  0.4462560000000 1.0
C      1  0.5303280000000  0.4769330000000  0.5527980000000 1.0
C      1  0.5315780000000  0.5223700000000  0.4466830000000 1.0
C      1  0.4688760000000  0.5221770000000  0.5532060000000 1.0
C      1  0.4467350000000  0.4774200000000  0.4690590000000 1.0
C      1  0.5527430000000  0.4773090000000  0.5303350000000 1.0
C      1  0.4470330000000  0.5220740000000  0.5315100000000 1.0
C      1  0.5528100000000  0.5222530000000  0.4687640000000 1.0
C      1  0.5189800000000  0.4647640000000  0.4512570000000 1.0
C      1  0.4802520000000  0.4644360000000  0.5479530000000 1.0
C      1  0.4821340000000  0.5362090000000  0.4484250000000 1.0
C      1  0.5193970000000  0.5358060000000  0.5483510000000 1.0
C      1  0.4513410000000  0.4646950000000  0.5188910000000 1.0
C      1  0.5484610000000  0.4642800000000  0.4803260000000 1.0
C      1  0.4494760000000  0.5349990000000  0.4821670000000 1.0
C      1  0.5487820000000  0.5356430000000  0.5189140000000 1.0
C      1  0.4329410000000  0.5265270000000  0.5060070000000 1.0
C      1  0.5657270000000  0.5270950000000  0.4936410000000 1.0
C      1  0.5658630000000  0.4727720000000  0.5058090000000 1.0
C      1  0.4336080000000  0.4727730000000  0.4940250000000 1.0
C      1  0.5067440000000  0.5265200000000  0.4324490000000 1.0
C      1  0.4933460000000  0.5270490000000  0.5659610000000 1.0
C      1  0.5056740000000  0.4727670000000  0.5659280000000 1.0
C      1  0.4936390000000  0.4727950000000  0.4332680000000 1.0
C      1  0.4930240000000  0.5503090000000  0.4726980000000 1.0
C      1  0.5058190000000  0.5505420000000  0.5260350000000 1.0
C      1  0.5060050000000  0.4489040000000  0.4729210000000 1.0
C      1  0.4934620000000  0.4492220000000  0.5260080000000 1.0
C      1  0.4726870000000  0.5498920000000  0.4928350000000 1.0
C      1  0.5260720000000  0.5503550000000  0.5060200000000 1.0
C      1  0.4731470000000  0.4493220000000  0.5058200000000 1.0
C      1  0.5262170000000  0.4489190000000  0.4929920000000 1.0
C      1  0.4959870000000  0.4984890000000  0.4986350000000 1.0
END
