TITL C-2441162-9305-446 0.0509564123024504 125000 -7583.69747794207 0 0 68 (C1) n - 1
REM
REM in /home/bkarasulu/work/CARBON/AIRSS/Generating-Clusters/ReaxFF-fromJPCA2015/Units_Real/with-SteepDescent/Higher-Symm
REM
REM
REM
REM
REM
REM ./C.cell (1df0a924f5614ab8850e4351716899ee)
REM
REM compiler GCC version 9.2.1 20190827 (Red Hat 9.2.1-1)
REM options -cpp -mtune=generic -march=x86-64 -g -O0 -fpre-include=/usr/include/finclude/math-vector-fortran.h
REM seed 1457535062 1366404155 -314100332 2033984496 -1516344142 1613415276 622613679 -1250652890 1777941111 -1038852480 -1482663922 -2000623796 2036655740 -1653298860 472805343 1926148138 -1786418478 985680823 -527540460 -298420886 434874170 313304994 1565631628 -2028373998 -1246614183 -1718812827 1870672774 -344482459 1715602915 1376890828 -522055696 -491902381 -1304639193
REM
CELL 1.54180   50.00000   50.00000   50.00000   90.00000   90.00000   90.00000
LATT -1
SFAC C  
C      1  0.4972110000000  0.5499540000000  0.4854440000000 1.0
C      1  0.4575960000000  0.5194980000000  0.5139620000000 1.0
C      1  0.4606180000000  0.4727930000000  0.4861320000000 1.0
C      1  0.5036930000000  0.4510650000000  0.5140110000000 1.0
C      1  0.5463770000000  0.4824240000000  0.4821450000000 1.0
C      1  0.5358360000000  0.5258830000000  0.5155790000000 1.0
C      1  0.4377220000000  0.4495960000000  0.5116920000000 1.0
C      1  0.5138590000000  0.4200810000000  0.4884260000000 1.0
C      1  0.5655290000000  0.4667920000000  0.5142760000000 1.0
C      1  0.5608780000000  0.5491610000000  0.4880160000000 1.0
C      1  0.4868350000000  0.5788740000000  0.5125830000000 1.0
C      1  0.4257780000000  0.5295800000000  0.4893420000000 1.0
C      1  0.5146690000000  0.4898940000000  0.5201600000000 1.0
C      1  0.5147770000000  0.5041420000000  0.4799410000000 1.0
C      1  0.5062290000000  0.5164900000000  0.5181730000000 1.0
C      1  0.4875860000000  0.5103490000000  0.4773570000000 1.0
C      1  0.4864130000000  0.4963310000000  0.5183200000000 1.0
C      1  0.4966010000000  0.4815760000000  0.4797180000000 1.0
C      1  0.4455640000000  0.4755110000000  0.5118040000000 1.0
C      1  0.4945910000000  0.4389390000000  0.4880270000000 1.0
C      1  0.5379300000000  0.4756530000000  0.5085470000000 1.0
C      1  0.5490000000000  0.5231340000000  0.4875320000000 1.0
C      1  0.5047300000000  0.5580540000000  0.5135090000000 1.0
C      1  0.4520930000000  0.5349190000000  0.4888840000000 1.0
C      1  0.5708140000000  0.5061920000000  0.4571640000000 1.0
C      1  0.5264470000000  0.5650670000000  0.5462150000000 1.0
C      1  0.4565190000000  0.5497490000000  0.4521730000000 1.0
C      1  0.4320980000000  0.4881950000000  0.5470060000000 1.0
C      1  0.4776110000000  0.4353030000000  0.4524240000000 1.0
C      1  0.5399470000000  0.4477840000000  0.5480420000000 1.0
C      1  0.4690540000000  0.5344130000000  0.5379730000000 1.0
C      1  0.4522210000000  0.4889400000000  0.4616690000000 1.0
C      1  0.4900050000000  0.4544200000000  0.5373420000000 1.0
C      1  0.5325530000000  0.4638910000000  0.4601510000000 1.0
C      1  0.5487620000000  0.5103920000000  0.5389150000000 1.0
C      1  0.5158370000000  0.5457940000000  0.4627770000000 1.0
C      1  0.4623020000000  0.4902170000000  0.5471440000000 1.0
C      1  0.4884440000000  0.4647300000000  0.4536070000000 1.0
C      1  0.5323920000000  0.4734610000000  0.5516950000000 1.0
C      1  0.5447070000000  0.5087930000000  0.4439510000000 1.0
C      1  0.5139290000000  0.5393030000000  0.5517520000000 1.0
C      1  0.4781340000000  0.5277050000000  0.4554110000000 1.0
C      1  0.5012070000000  0.5625830000000  0.5644060000000 1.0
C      1  0.4435750000000  0.5334720000000  0.4352300000000 1.0
C      1  0.4460730000000  0.4689700000000  0.5639840000000 1.0
C      1  0.4998480000000  0.4355730000000  0.4360650000000 1.0
C      1  0.5562710000000  0.4653620000000  0.5673980000000 1.0
C      1  0.5507850000000  0.5329150000000  0.4348110000000 1.0
C      1  0.4769920000000  0.5138770000000  0.5580530000000 1.0
C      1  0.4731950000000  0.4864310000000  0.4408730000000 1.0
C      1  0.5050710000000  0.4681350000000  0.5577460000000 1.0
C      1  0.5234810000000  0.4829670000000  0.4408170000000 1.0
C      1  0.5260990000000  0.5117990000000  0.5581620000000 1.0
C      1  0.5034380000000  0.5290640000000  0.4406440000000 1.0
C      1  0.5532670000000  0.4407970000000  0.5225950000000 1.0
C      1  0.5776610000000  0.5110070000000  0.4843720000000 1.0
C      1  0.5263400000000  0.5751870000000  0.5192520000000 1.0
C      1  0.4487350000000  0.5602430000000  0.4791400000000 1.0
C      1  0.4212990000000  0.4857400000000  0.5200740000000 1.0
C      1  0.4742910000000  0.4241460000000  0.4799120000000 1.0
C      1  0.4745750000000  0.5699300000000  0.4893460000000 1.0
C      1  0.4277160000000  0.5124340000000  0.5103720000000 1.0
C      1  0.4539570000000  0.4427190000000  0.4906430000000 1.0
C      1  0.5291080000000  0.4317090000000  0.5073190000000 1.0
C      1  0.5753510000000  0.4819970000000  0.4908370000000 1.0
C      1  0.5481470000000  0.5570180000000  0.5115790000000 1.0
C      1  0.5003070000000  0.4998600000000  0.4355440000000 1.0
C      1  0.5014560000000  0.4979190000000  0.5618370000000 1.0
END
