TITL C-2441167-4473-773 0.156382931057521 125000 -23996.823800341 0 0 183 (C1) n - 1
REM
REM in /home/bkarasulu/work/CARBON/AIRSS/Generating-Clusters/ReaxFF-fromJPCA2015/Units_Real/with-SteepDescent/Higher-Symm
REM
REM
REM
REM
REM
REM ./C.cell (1df0a924f5614ab8850e4351716899ee)
REM
REM compiler GCC version 9.2.1 20190827 (Red Hat 9.2.1-1)
REM options -cpp -mtune=generic -march=x86-64 -g -O0 -fpre-include=/usr/include/finclude/math-vector-fortran.h
REM seed 410131102 -743445109 1497817515 -961185556 69717745 -838106427 1423664859 -1057132978 1691515767 -975216810 -1328624274 1221508548 1812400323 387984490 435396947 -1038027161 1184277878 -1951441062 1344795232 -1742385914 534880846 -730777472 -817739705 -108754461 -1446450586 283150219 -841988802 -1017004094 839169214 -1240517838 1036983026 1449361401 2141676107
REM
CELL 1.54180   50.00000   50.00000   50.00000   90.00000   90.00000   90.00000
LATT -1
SFAC C  
C      1  0.4053120000000  0.4646290000000  0.4873230000000 1.0
C      1  0.5921580000000  0.4675020000000  0.4834890000000 1.0
C      1  0.4421400000000  0.5294300000000  0.5824080000000 1.0
C      1  0.5570880000000  0.5297350000000  0.5831600000000 1.0
C      1  0.5602930000000  0.5383280000000  0.5201960000000 1.0
C      1  0.4449250000000  0.5373930000000  0.5267260000000 1.0
C      1  0.4850270000000  0.4371390000000  0.5879130000000 1.0
C      1  0.5140410000000  0.4373860000000  0.5875330000000 1.0
C      1  0.4202820000000  0.5189930000000  0.4293440000000 1.0
C      1  0.5787160000000  0.5153020000000  0.4265290000000 1.0
C      1  0.5209060000000  0.4656650000000  0.5925060000000 1.0
C      1  0.4800180000000  0.4653830000000  0.5969540000000 1.0
C      1  0.5088570000000  0.4584730000000  0.5397730000000 1.0
C      1  0.4807630000000  0.4637970000000  0.5457230000000 1.0
C      1  0.4431180000000  0.4932070000000  0.4276790000000 1.0
C      1  0.5563410000000  0.4955620000000  0.4267220000000 1.0
C      1  0.5556020000000  0.4450300000000  0.4140040000000 1.0
C      1  0.4455150000000  0.4495720000000  0.4115420000000 1.0
C      1  0.4638580000000  0.4302020000000  0.5695500000000 1.0
C      1  0.5353650000000  0.4291320000000  0.5693210000000 1.0
C      1  0.5806630000000  0.5420430000000  0.4365410000000 1.0
C      1  0.4122990000000  0.5476400000000  0.4336210000000 1.0
C      1  0.5898560000000  0.4737400000000  0.4354930000000 1.0
C      1  0.4052680000000  0.4740240000000  0.4380480000000 1.0
C      1  0.4859980000000  0.5803320000000  0.4899970000000 1.0
C      1  0.5161010000000  0.5818180000000  0.4951360000000 1.0
C      1  0.4194500000000  0.5393080000000  0.5426040000000 1.0
C      1  0.5820020000000  0.5387260000000  0.5419540000000 1.0
C      1  0.4007550000000  0.4868200000000  0.5044810000000 1.0
C      1  0.6031740000000  0.5032670000000  0.5148850000000 1.0
C      1  0.5132660000000  0.4180130000000  0.4739700000000 1.0
C      1  0.4848840000000  0.4129700000000  0.4739950000000 1.0
C      1  0.5297230000000  0.5081840000000  0.4156130000000 1.0
C      1  0.4700510000000  0.5095060000000  0.4170040000000 1.0
C      1  0.5742750000000  0.4638020000000  0.4588810000000 1.0
C      1  0.4198390000000  0.4653120000000  0.4615270000000 1.0
C      1  0.4892070000000  0.4830300000000  0.5074650000000 1.0
C      1  0.5137530000000  0.4845040000000  0.4949950000000 1.0
C      1  0.5255700000000  0.5953940000000  0.4694930000000 1.0
C      1  0.4766750000000  0.5974510000000  0.4672220000000 1.0
C      1  0.4824380000000  0.4895350000000  0.3983520000000 1.0
C      1  0.5117100000000  0.4904900000000  0.3996730000000 1.0
C      1  0.5488440000000  0.5122780000000  0.5207610000000 1.0
C      1  0.4436880000000  0.5130040000000  0.5117930000000 1.0
C      1  0.4269990000000  0.4219550000000  0.5056250000000 1.0
C      1  0.5740850000000  0.4251510000000  0.5068630000000 1.0
C      1  0.5340420000000  0.4504730000000  0.4899870000000 1.0
C      1  0.4609590000000  0.4490990000000  0.4874770000000 1.0
C      1  0.3982770000000  0.5543780000000  0.5040080000000 1.0
C      1  0.6009490000000  0.5489930000000  0.5043060000000 1.0
C      1  0.4166520000000  0.4800160000000  0.5750500000000 1.0
C      1  0.5855820000000  0.4743830000000  0.5763560000000 1.0
C      1  0.5534910000000  0.5932650000000  0.4688060000000 1.0
C      1  0.4480360000000  0.5977480000000  0.4681360000000 1.0
C      1  0.5141320000000  0.5514890000000  0.5819880000000 1.0
C      1  0.4868380000000  0.5500050000000  0.5815010000000 1.0
C      1  0.4411980000000  0.5559900000000  0.4360710000000 1.0
C      1  0.5559530000000  0.5558770000000  0.4289230000000 1.0
C      1  0.5271640000000  0.4463390000000  0.4119940000000 1.0
C      1  0.4714400000000  0.4633460000000  0.4061290000000 1.0
C      1  0.5554970000000  0.5713250000000  0.4521330000000 1.0
C      1  0.4450990000000  0.5715970000000  0.4598880000000 1.0
C      1  0.5146890000000  0.5533160000000  0.5332650000000 1.0
C      1  0.4868860000000  0.5655180000000  0.5348970000000 1.0
C      1  0.4387490000000  0.4352450000000  0.4348430000000 1.0
C      1  0.5661270000000  0.4359000000000  0.4409510000000 1.0
C      1  0.4492200000000  0.4716120000000  0.5020880000000 1.0
C      1  0.5525390000000  0.4732080000000  0.5001120000000 1.0
C      1  0.5465940000000  0.4986150000000  0.5457560000000 1.0
C      1  0.4544140000000  0.4978670000000  0.5484700000000 1.0
C      1  0.5302240000000  0.5727870000000  0.5717430000000 1.0
C      1  0.4716200000000  0.5719590000000  0.5761060000000 1.0
C      1  0.5291890000000  0.5052330000000  0.5015930000000 1.0
C      1  0.4720760000000  0.5058730000000  0.5103090000000 1.0
C      1  0.4019980000000  0.5022660000000  0.4462760000000 1.0
C      1  0.5975270000000  0.5007540000000  0.4414030000000 1.0
C      1  0.4863700000000  0.4022010000000  0.5350380000000 1.0
C      1  0.5156840000000  0.4015460000000  0.5347840000000 1.0
C      1  0.4863760000000  0.4535230000000  0.5053100000000 1.0
C      1  0.5135430000000  0.4464870000000  0.5137180000000 1.0
C      1  0.5514040000000  0.4840950000000  0.4556490000000 1.0
C      1  0.4431700000000  0.4808420000000  0.4541900000000 1.0
C      1  0.4044000000000  0.5684900000000  0.4817920000000 1.0
C      1  0.5896350000000  0.5644090000000  0.4851060000000 1.0
C      1  0.4018610000000  0.5464620000000  0.4614240000000 1.0
C      1  0.5919000000000  0.5424870000000  0.4641120000000 1.0
C      1  0.5942290000000  0.4577670000000  0.5312950000000 1.0
C      1  0.4034980000000  0.4519360000000  0.5317960000000 1.0
C      1  0.4858800000000  0.5883780000000  0.4414830000000 1.0
C      1  0.5142770000000  0.5883780000000  0.4432090000000 1.0
C      1  0.5152250000000  0.3887050000000  0.5089820000000 1.0
C      1  0.4854310000000  0.3884340000000  0.5099800000000 1.0
C      1  0.4884800000000  0.5444430000000  0.3916450000000 1.0
C      1  0.5131940000000  0.5460330000000  0.3915750000000 1.0
C      1  0.5146420000000  0.5287110000000  0.6004750000000 1.0
C      1  0.4858010000000  0.5280650000000  0.5993720000000 1.0
C      1  0.5922010000000  0.4479410000000  0.5042920000000 1.0
C      1  0.4059480000000  0.4419270000000  0.5050280000000 1.0
C      1  0.4713390000000  0.5443720000000  0.4818940000000 1.0
C      1  0.5268430000000  0.5492410000000  0.4885480000000 1.0
C      1  0.5505690000000  0.4735800000000  0.5298620000000 1.0
C      1  0.4563010000000  0.4743780000000  0.5316200000000 1.0
C      1  0.4892160000000  0.5129770000000  0.4442580000000 1.0
C      1  0.5199720000000  0.5079180000000  0.4444200000000 1.0
C      1  0.4751350000000  0.5872990000000  0.5161010000000 1.0
C      1  0.5255710000000  0.5939500000000  0.5225300000000 1.0
C      1  0.4501840000000  0.5246550000000  0.4747620000000 1.0
C      1  0.5507130000000  0.5314720000000  0.4815640000000 1.0
C      1  0.5318800000000  0.5413750000000  0.4125100000000 1.0
C      1  0.4692260000000  0.5397300000000  0.4114910000000 1.0
C      1  0.4865170000000  0.4657390000000  0.4306370000000 1.0
C      1  0.5131170000000  0.4701500000000  0.4200500000000 1.0
C      1  0.4458100000000  0.5580370000000  0.5780920000000 1.0
C      1  0.5559370000000  0.5583370000000  0.5767620000000 1.0
C      1  0.4046740000000  0.4953260000000  0.5562870000000 1.0
C      1  0.5916090000000  0.4957980000000  0.5601060000000 1.0
C      1  0.5538690000000  0.5936030000000  0.5162390000000 1.0
C      1  0.4464210000000  0.5893410000000  0.5150020000000 1.0
C      1  0.5545620000000  0.4979490000000  0.4808580000000 1.0
C      1  0.4571090000000  0.4921660000000  0.4761230000000 1.0
C      1  0.4698630000000  0.5398210000000  0.5403860000000 1.0
C      1  0.5418080000000  0.5573520000000  0.5315260000000 1.0
C      1  0.5157170000000  0.4779320000000  0.5626870000000 1.0
C      1  0.4884440000000  0.4750590000000  0.5701470000000 1.0
C      1  0.5980590000000  0.5146240000000  0.4670000000000 1.0
C      1  0.4021180000000  0.5188300000000  0.4702340000000 1.0
C      1  0.4390800000000  0.4231030000000  0.5314700000000 1.0
C      1  0.5637750000000  0.4243910000000  0.5333250000000 1.0
C      1  0.5118350000000  0.4850660000000  0.4659130000000 1.0
C      1  0.4841140000000  0.4916550000000  0.4630880000000 1.0
C      1  0.4644260000000  0.4177530000000  0.5439090000000 1.0
C      1  0.5376370000000  0.4171890000000  0.5440790000000 1.0
C      1  0.4106050000000  0.5126710000000  0.4993290000000 1.0
C      1  0.5985800000000  0.4951080000000  0.4883060000000 1.0
C      1  0.4358040000000  0.5791720000000  0.5370160000000 1.0
C      1  0.5590030000000  0.5797040000000  0.5412560000000 1.0
C      1  0.5703610000000  0.4698710000000  0.4148230000000 1.0
C      1  0.4261960000000  0.4706770000000  0.4173710000000 1.0
C      1  0.4349830000000  0.4675990000000  0.5912380000000 1.0
C      1  0.5635460000000  0.4661880000000  0.5907640000000 1.0
C      1  0.5612030000000  0.4201510000000  0.4606960000000 1.0
C      1  0.4384770000000  0.4220380000000  0.4578790000000 1.0
C      1  0.4867240000000  0.3997970000000  0.4488350000000 1.0
C      1  0.5156520000000  0.4000950000000  0.4481130000000 1.0
C      1  0.4258970000000  0.5665330000000  0.5582070000000 1.0
C      1  0.5769350000000  0.5640630000000  0.5577110000000 1.0
C      1  0.4407790000000  0.4098910000000  0.4835890000000 1.0
C      1  0.5589970000000  0.4098740000000  0.4864850000000 1.0
C      1  0.5701380000000  0.5156590000000  0.5601590000000 1.0
C      1  0.4296340000000  0.5151930000000  0.5584020000000 1.0
C      1  0.5161720000000  0.5895320000000  0.5509750000000 1.0
C      1  0.4873000000000  0.5868300000000  0.5561460000000 1.0
C      1  0.5392480000000  0.5288300000000  0.4553700000000 1.0
C      1  0.4462270000000  0.5297690000000  0.4471710000000 1.0
C      1  0.4236090000000  0.4398980000000  0.5477990000000 1.0
C      1  0.5787670000000  0.4424240000000  0.5507330000000 1.0
C      1  0.4608360000000  0.5127790000000  0.5972500000000 1.0
C      1  0.5387450000000  0.5128990000000  0.5975300000000 1.0
C      1  0.4869640000000  0.4226260000000  0.4307670000000 1.0
C      1  0.5181630000000  0.4232820000000  0.4295990000000 1.0
C      1  0.4787420000000  0.5147950000000  0.5511460000000 1.0
C      1  0.5075080000000  0.5081370000000  0.5535390000000 1.0
C      1  0.3996090000000  0.5331210000000  0.5197810000000 1.0
C      1  0.6066070000000  0.5310600000000  0.5238870000000 1.0
C      1  0.5416120000000  0.4832250000000  0.6011940000000 1.0
C      1  0.4578250000000  0.4838310000000  0.6011730000000 1.0
C      1  0.4676800000000  0.4049340000000  0.4940340000000 1.0
C      1  0.5308920000000  0.4053510000000  0.4921700000000 1.0
C      1  0.4848540000000  0.5266110000000  0.4993000000000 1.0
C      1  0.5124230000000  0.5276970000000  0.5025950000000 1.0
C      1  0.4874550000000  0.5405440000000  0.4571650000000 1.0
C      1  0.5156440000000  0.5473020000000  0.4611970000000 1.0
C      1  0.5137390000000  0.5597490000000  0.4346760000000 1.0
C      1  0.4836160000000  0.5584560000000  0.4334710000000 1.0
C      1  0.4391260000000  0.4452550000000  0.5712780000000 1.0
C      1  0.5587980000000  0.4444110000000  0.5718820000000 1.0
C      1  0.5949080000000  0.4853570000000  0.5342790000000 1.0
C      1  0.3984000000000  0.4798520000000  0.5317180000000 1.0
C      1  0.5663490000000  0.5833100000000  0.4914290000000 1.0
C      1  0.4330130000000  0.5801110000000  0.4858900000000 1.0
C      1  0.4899080000000  0.4454620000000  0.4488660000000 1.0
C      1  0.5173910000000  0.4421760000000  0.4580390000000 1.0
C      1  0.5130800000000  0.5267000000000  0.5323420000000 1.0
END
