TITL C-2441167-4473-572 0.0323734971369126 125000 -14313.4070806476 0 0 101 (C1) n - 1
REM
REM in /home/bkarasulu/work/CARBON/AIRSS/Generating-Clusters/ReaxFF-fromJPCA2015/Units_Real/with-SteepDescent/Higher-Symm
REM
REM
REM
REM
REM
REM ./C.cell (1df0a924f5614ab8850e4351716899ee)
REM
REM compiler GCC version 9.2.1 20190827 (Red Hat 9.2.1-1)
REM options -cpp -mtune=generic -march=x86-64 -g -O0 -fpre-include=/usr/include/finclude/math-vector-fortran.h
REM seed 580023075 -1852939095 1359027899 -1451843391 1795452423 1036669495 -1239076952 1380011714 1715179407 1317758526 -180154763 1931689176 978126594 942155671 113534409 -870396565 868811257 -333269158 -1677059935 -389634466 907079 2125877293 913955795 610457998 527835863 -131880568 -459209801 -1595064627 1268119416 1919207402 1019190262 1965714400 -1797918356
REM
CELL 1.54180   50.00000   50.00000   50.00000   90.00000   90.00000   90.00000
LATT -1
SFAC C  
C      1  0.4711800000000  0.5252990000000  0.5801030000000 1.0
C      1  0.5309940000000  0.4748400000000  0.4209170000000 1.0
C      1  0.5795090000000  0.4871320000000  0.4799670000000 1.0
C      1  0.4090200000000  0.5209260000000  0.5089770000000 1.0
C      1  0.5194000000000  0.5520150000000  0.4269900000000 1.0
C      1  0.4822330000000  0.4413320000000  0.5769120000000 1.0
C      1  0.4095820000000  0.5355900000000  0.4859880000000 1.0
C      1  0.5943340000000  0.4608900000000  0.5091950000000 1.0
C      1  0.5085480000000  0.5703320000000  0.5047470000000 1.0
C      1  0.4917950000000  0.4343950000000  0.4918500000000 1.0
C      1  0.4939010000000  0.4639200000000  0.4886140000000 1.0
C      1  0.5100280000000  0.5419320000000  0.5061900000000 1.0
C      1  0.5698980000000  0.4905720000000  0.4526310000000 1.0
C      1  0.4357410000000  0.5063520000000  0.5549520000000 1.0
C      1  0.5047810000000  0.4403890000000  0.4447940000000 1.0
C      1  0.4984520000000  0.5587970000000  0.5548270000000 1.0
C      1  0.5217260000000  0.5024660000000  0.4744570000000 1.0
C      1  0.4768800000000  0.4894170000000  0.5284090000000 1.0
C      1  0.4373580000000  0.5274840000000  0.5150710000000 1.0
C      1  0.5648100000000  0.4634700000000  0.4914380000000 1.0
C      1  0.4871090000000  0.5325210000000  0.5165740000000 1.0
C      1  0.5210520000000  0.4745100000000  0.4815820000000 1.0
C      1  0.4456070000000  0.5077300000000  0.4954740000000 1.0
C      1  0.5402190000000  0.4750680000000  0.5022980000000 1.0
C      1  0.5425960000000  0.4783830000000  0.5567110000000 1.0
C      1  0.4578130000000  0.5217380000000  0.4435430000000 1.0
C      1  0.5096210000000  0.4481080000000  0.5684300000000 1.0
C      1  0.4918070000000  0.5503830000000  0.4318760000000 1.0
C      1  0.5381310000000  0.5796600000000  0.4711300000000 1.0
C      1  0.4530420000000  0.4322960000000  0.5292000000000 1.0
C      1  0.4644960000000  0.4613040000000  0.5650670000000 1.0
C      1  0.5373480000000  0.5412450000000  0.4380890000000 1.0
C      1  0.4605010000000  0.4332510000000  0.5589450000000 1.0
C      1  0.5512660000000  0.5608450000000  0.4516220000000 1.0
C      1  0.4539710000000  0.4161550000000  0.5033620000000 1.0
C      1  0.5470470000000  0.5852710000000  0.4989860000000 1.0
C      1  0.4947150000000  0.5432130000000  0.5789430000000 1.0
C      1  0.5074250000000  0.4579740000000  0.4219400000000 1.0
C      1  0.4790690000000  0.5069280000000  0.4587640000000 1.0
C      1  0.5207700000000  0.4954230000000  0.5412110000000 1.0
C      1  0.4454820000000  0.4833100000000  0.5713840000000 1.0
C      1  0.5462030000000  0.5207700000000  0.4261580000000 1.0
C      1  0.4606510000000  0.5700470000000  0.5028450000000 1.0
C      1  0.5387490000000  0.4251090000000  0.4978060000000 1.0
C      1  0.5631300000000  0.5323890000000  0.4931150000000 1.0
C      1  0.4292530000000  0.4653290000000  0.5013160000000 1.0
C      1  0.5336530000000  0.4524110000000  0.4579970000000 1.0
C      1  0.4731810000000  0.5456340000000  0.5386650000000 1.0
C      1  0.5357250000000  0.4360800000000  0.5271120000000 1.0
C      1  0.4667840000000  0.5583260000000  0.4756420000000 1.0
C      1  0.4489860000000  0.5453270000000  0.4590360000000 1.0
C      1  0.5537430000000  0.4537700000000  0.5405270000000 1.0
C      1  0.4708140000000  0.4973850000000  0.4845560000000 1.0
C      1  0.5324360000000  0.4990380000000  0.5154110000000 1.0
C      1  0.4396780000000  0.4524260000000  0.4787270000000 1.0
C      1  0.5641400000000  0.5482890000000  0.5179280000000 1.0
C      1  0.4649300000000  0.4572050000000  0.4316980000000 1.0
C      1  0.5371480000000  0.5386240000000  0.5661600000000 1.0
C      1  0.4309240000000  0.4695300000000  0.4567710000000 1.0
C      1  0.5745850000000  0.5314050000000  0.5370190000000 1.0
C      1  0.4772710000000  0.5267870000000  0.4223300000000 1.0
C      1  0.5230920000000  0.4720000000000  0.5785670000000 1.0
C      1  0.4215310000000  0.5369820000000  0.4603200000000 1.0
C      1  0.5789170000000  0.4635850000000  0.5327030000000 1.0
C      1  0.4467870000000  0.4772560000000  0.4358050000000 1.0
C      1  0.5624600000000  0.5237220000000  0.5610260000000 1.0
C      1  0.4194100000000  0.4935980000000  0.4928670000000 1.0
C      1  0.5776460000000  0.5077020000000  0.4998340000000 1.0
C      1  0.5679140000000  0.5405260000000  0.4644100000000 1.0
C      1  0.4349070000000  0.4583460000000  0.5272920000000 1.0
C      1  0.5452240000000  0.5693840000000  0.5240390000000 1.0
C      1  0.4591650000000  0.4295820000000  0.4774230000000 1.0
C      1  0.4774530000000  0.4375710000000  0.4504660000000 1.0
C      1  0.5261120000000  0.5593530000000  0.5483780000000 1.0
C      1  0.4901620000000  0.5597510000000  0.4600850000000 1.0
C      1  0.5109270000000  0.4373720000000  0.5408530000000 1.0
C      1  0.5804370000000  0.5045030000000  0.5289820000000 1.0
C      1  0.4173190000000  0.4921490000000  0.4642080000000 1.0
C      1  0.4901460000000  0.5028210000000  0.4132430000000 1.0
C      1  0.5108010000000  0.4968360000000  0.5878490000000 1.0
C      1  0.4827540000000  0.4666350000000  0.5142410000000 1.0
C      1  0.5295450000000  0.5217500000000  0.4952910000000 1.0
C      1  0.4277100000000  0.5112880000000  0.4461410000000 1.0
C      1  0.5668210000000  0.4957590000000  0.5544430000000 1.0
C      1  0.5058990000000  0.5064660000000  0.4516900000000 1.0
C      1  0.4935620000000  0.4966780000000  0.5501340000000 1.0
C      1  0.5683480000000  0.5185740000000  0.4455830000000 1.0
C      1  0.4287470000000  0.4781680000000  0.5476920000000 1.0
C      1  0.5110410000000  0.5709660000000  0.4757260000000 1.0
C      1  0.4869670000000  0.4388720000000  0.5220310000000 1.0
C      1  0.4836880000000  0.5861050000000  0.5123940000000 1.0
C      1  0.5140690000000  0.4133980000000  0.4872350000000 1.0
C      1  0.4532950000000  0.5292450000000  0.5578930000000 1.0
C      1  0.5505430000000  0.4711030000000  0.4413260000000 1.0
C      1  0.4832510000000  0.4983920000000  0.5778130000000 1.0
C      1  0.5186220000000  0.5024190000000  0.4236380000000 1.0
C      1  0.4496110000000  0.5530990000000  0.5241340000000 1.0
C      1  0.5519320000000  0.4406560000000  0.4773740000000 1.0
C      1  0.5177540000000  0.5255860000000  0.5834770000000 1.0
C      1  0.4833430000000  0.4745960000000  0.4175630000000 1.0
C      1  0.4845030000000  0.5061920000000  0.5084250000000 1.0
END
