TITL C-2441161-5029-31 0.146047815814229 125000 -22429.032971098 0 0 177 (C1) n - 1
REM
REM in /home/bkarasulu/work/CARBON/AIRSS/Generating-Clusters/ReaxFF-fromJPCA2015/Units_Real/with-SteepDescent/Higher-Symm
REM
REM
REM
REM
REM
REM ./C.cell (1df0a924f5614ab8850e4351716899ee)
REM
REM compiler GCC version 9.2.1 20190827 (Red Hat 9.2.1-1)
REM options -cpp -mtune=generic -march=x86-64 -g -O0 -fpre-include=/usr/include/finclude/math-vector-fortran.h
REM seed -378832027 -887784980 2041361508 409022621 -998221280 -803930304 -188645973 2013176671 15480507 -714000542 -1826541353 -1715856350 1333654413 1010780525 276756625 -95131775 -1678575913 1984623670 451267597 1829123372 -763405683 954277749 -1891577979 -605313607 -334851456 -1087740434 2075289043 1071291175 1583715918 -783783547 -866844830 410819908 -1684622877
REM
CELL 1.54180   50.00000   50.00000   50.00000   90.00000   90.00000   90.00000
LATT -1
SFAC C  
C      1  0.4646680000000  0.5689990000000  0.4701500000000 1.0
C      1  0.5345530000000  0.4382680000000  0.4663300000000 1.0
C      1  0.6012800000000  0.5333360000000  0.5061470000000 1.0
C      1  0.3952750000000  0.4632000000000  0.5100900000000 1.0
C      1  0.4988460000000  0.5502720000000  0.4596750000000 1.0
C      1  0.4968540000000  0.4533500000000  0.4734280000000 1.0
C      1  0.4545210000000  0.4820490000000  0.5200540000000 1.0
C      1  0.5480140000000  0.5176430000000  0.5226710000000 1.0
C      1  0.5420310000000  0.5017930000000  0.4369790000000 1.0
C      1  0.4572340000000  0.4927440000000  0.4396880000000 1.0
C      1  0.5520130000000  0.5155980000000  0.4143170000000 1.0
C      1  0.4548370000000  0.4838900000000  0.4116010000000 1.0
C      1  0.4310860000000  0.4690300000000  0.5775340000000 1.0
C      1  0.5705460000000  0.5307390000000  0.5756060000000 1.0
C      1  0.4799270000000  0.6032470000000  0.5289250000000 1.0
C      1  0.5199050000000  0.3963910000000  0.5296810000000 1.0
C      1  0.5600570000000  0.4249880000000  0.5566720000000 1.0
C      1  0.4396250000000  0.5746030000000  0.5552200000000 1.0
C      1  0.5274020000000  0.4777030000000  0.5167140000000 1.0
C      1  0.4753270000000  0.5214540000000  0.5161340000000 1.0
C      1  0.5250810000000  0.4247650000000  0.4972610000000 1.0
C      1  0.4758910000000  0.5746750000000  0.4972090000000 1.0
C      1  0.4842410000000  0.4965970000000  0.5600570000000 1.0
C      1  0.5103400000000  0.5071520000000  0.5573030000000 1.0
C      1  0.4556300000000  0.4636420000000  0.4314880000000 1.0
C      1  0.5527920000000  0.5424630000000  0.4239960000000 1.0
C      1  0.5063420000000  0.5734640000000  0.5422240000000 1.0
C      1  0.4936690000000  0.4266560000000  0.5419240000000 1.0
C      1  0.5226240000000  0.4130000000000  0.4548340000000 1.0
C      1  0.4802300000000  0.5870510000000  0.4530900000000 1.0
C      1  0.5130130000000  0.5457700000000  0.4003990000000 1.0
C      1  0.4879020000000  0.4519280000000  0.3971150000000 1.0
C      1  0.4130210000000  0.4853940000000  0.4362930000000 1.0
C      1  0.5903210000000  0.5138500000000  0.4430360000000 1.0
C      1  0.4463350000000  0.4472260000000  0.5594830000000 1.0
C      1  0.5538760000000  0.5526310000000  0.5621890000000 1.0
C      1  0.5003110000000  0.4370270000000  0.5150100000000 1.0
C      1  0.5026720000000  0.5623120000000  0.5145160000000 1.0
C      1  0.3978580000000  0.5106550000000  0.5296700000000 1.0
C      1  0.6018960000000  0.4906820000000  0.5284110000000 1.0
C      1  0.4284340000000  0.4603450000000  0.4417050000000 1.0
C      1  0.5753930000000  0.5395670000000  0.4417170000000 1.0
C      1  0.5901920000000  0.4761300000000  0.5516480000000 1.0
C      1  0.4120500000000  0.5248630000000  0.5509850000000 1.0
C      1  0.4594340000000  0.5435640000000  0.4407220000000 1.0
C      1  0.5354780000000  0.4543170000000  0.4407970000000 1.0
C      1  0.4426540000000  0.4365090000000  0.5193430000000 1.0
C      1  0.5563370000000  0.5778220000000  0.5234340000000 1.0
C      1  0.4782890000000  0.4152140000000  0.4382960000000 1.0
C      1  0.5248050000000  0.5827090000000  0.4377620000000 1.0
C      1  0.5474750000000  0.4381680000000  0.5096270000000 1.0
C      1  0.4545110000000  0.5585830000000  0.5077590000000 1.0
C      1  0.4282710000000  0.4340600000000  0.4541480000000 1.0
C      1  0.5715930000000  0.5635510000000  0.4565510000000 1.0
C      1  0.4633760000000  0.4913440000000  0.6047080000000 1.0
C      1  0.5406790000000  0.5077750000000  0.6041320000000 1.0
C      1  0.4307500000000  0.4750060000000  0.4814260000000 1.0
C      1  0.5678170000000  0.5222330000000  0.4787330000000 1.0
C      1  0.5716180000000  0.4644020000000  0.5332390000000 1.0
C      1  0.4301640000000  0.5352650000000  0.5315420000000 1.0
C      1  0.5641060000000  0.5037870000000  0.5862300000000 1.0
C      1  0.4379360000000  0.4946580000000  0.5903780000000 1.0
C      1  0.4748070000000  0.4979200000000  0.4760020000000 1.0
C      1  0.5272550000000  0.4974280000000  0.4801120000000 1.0
C      1  0.5230990000000  0.4822080000000  0.4321690000000 1.0
C      1  0.4707960000000  0.5179400000000  0.4314730000000 1.0
C      1  0.4997390000000  0.4877320000000  0.4473280000000 1.0
C      1  0.4950490000000  0.5144170000000  0.4457590000000 1.0
C      1  0.4879170000000  0.5253490000000  0.4729860000000 1.0
C      1  0.5102070000000  0.4775830000000  0.4699600000000 1.0
C      1  0.5964270000000  0.5186290000000  0.5307190000000 1.0
C      1  0.4045660000000  0.4822190000000  0.5333850000000 1.0
C      1  0.5168370000000  0.4537460000000  0.3993760000000 1.0
C      1  0.4848880000000  0.5505350000000  0.4057590000000 1.0
C      1  0.4928820000000  0.5245340000000  0.5893960000000 1.0
C      1  0.5143360000000  0.4726670000000  0.5887210000000 1.0
C      1  0.5250650000000  0.5550650000000  0.4681290000000 1.0
C      1  0.4702210000000  0.4461100000000  0.4694740000000 1.0
C      1  0.5199740000000  0.5134960000000  0.5018500000000 1.0
C      1  0.4781160000000  0.4839820000000  0.5005850000000 1.0
C      1  0.5851570000000  0.4494330000000  0.4846540000000 1.0
C      1  0.4167950000000  0.5484540000000  0.4846050000000 1.0
C      1  0.5973360000000  0.4576910000000  0.4601440000000 1.0
C      1  0.4043850000000  0.5398270000000  0.4599000000000 1.0
C      1  0.5450020000000  0.4651390000000  0.4994330000000 1.0
C      1  0.4591320000000  0.5335740000000  0.4953580000000 1.0
C      1  0.5392270000000  0.5372390000000  0.5424980000000 1.0
C      1  0.4623340000000  0.4647550000000  0.5423470000000 1.0
C      1  0.4881190000000  0.5683950000000  0.5630880000000 1.0
C      1  0.5140340000000  0.4300290000000  0.5617080000000 1.0
C      1  0.5731090000000  0.5708710000000  0.4841560000000 1.0
C      1  0.4263600000000  0.4243880000000  0.4819360000000 1.0
C      1  0.4314250000000  0.5232260000000  0.4892320000000 1.0
C      1  0.5712390000000  0.4739640000000  0.4906340000000 1.0
C      1  0.4590320000000  0.5094310000000  0.5569200000000 1.0
C      1  0.5316990000000  0.4883700000000  0.5607270000000 1.0
C      1  0.5252300000000  0.5911740000000  0.5555270000000 1.0
C      1  0.4729190000000  0.4095280000000  0.5534820000000 1.0
C      1  0.4687560000000  0.5186360000000  0.6013620000000 1.0
C      1  0.5268720000000  0.4891420000000  0.6055260000000 1.0
C      1  0.4347820000000  0.5489680000000  0.4269240000000 1.0
C      1  0.5633620000000  0.4528590000000  0.4286320000000 1.0
C      1  0.5356530000000  0.5711090000000  0.5753990000000 1.0
C      1  0.4640590000000  0.4294580000000  0.5739000000000 1.0
C      1  0.4175940000000  0.5628250000000  0.4460570000000 1.0
C      1  0.5805880000000  0.4371060000000  0.4457710000000 1.0
C      1  0.4886430000000  0.4721890000000  0.5481690000000 1.0
C      1  0.5116340000000  0.5313960000000  0.5459500000000 1.0
C      1  0.5519100000000  0.4523680000000  0.5682270000000 1.0
C      1  0.4501440000000  0.5505060000000  0.5695910000000 1.0
C      1  0.4338380000000  0.5716300000000  0.4696950000000 1.0
C      1  0.5639220000000  0.4277770000000  0.4686890000000 1.0
C      1  0.5488500000000  0.5057290000000  0.4639320000000 1.0
C      1  0.4472140000000  0.4952250000000  0.4678140000000 1.0
C      1  0.5473450000000  0.4863580000000  0.5355750000000 1.0
C      1  0.4516470000000  0.5142150000000  0.5301790000000 1.0
C      1  0.5216440000000  0.5285590000000  0.5976770000000 1.0
C      1  0.4846300000000  0.4716350000000  0.5956620000000 1.0
C      1  0.4868070000000  0.5538100000000  0.5889740000000 1.0
C      1  0.5127080000000  0.4425980000000  0.5880090000000 1.0
C      1  0.5115340000000  0.4614110000000  0.5312580000000 1.0
C      1  0.4893540000000  0.5406970000000  0.5303190000000 1.0
C      1  0.4098800000000  0.5143750000000  0.4459400000000 1.0
C      1  0.5900930000000  0.4845600000000  0.4504890000000 1.0
C      1  0.4412470000000  0.4630990000000  0.5052790000000 1.0
C      1  0.5535940000000  0.5348990000000  0.5000550000000 1.0
C      1  0.4051520000000  0.4838800000000  0.4909030000000 1.0
C      1  0.5952610000000  0.5138180000000  0.4846560000000 1.0
C      1  0.4933360000000  0.3944800000000  0.5130060000000 1.0
C      1  0.5071410000000  0.6052900000000  0.5124450000000 1.0
C      1  0.4632900000000  0.6053660000000  0.4913350000000 1.0
C      1  0.5369730000000  0.3948560000000  0.4919360000000 1.0
C      1  0.5080730000000  0.5923700000000  0.4606940000000 1.0
C      1  0.4941970000000  0.4069570000000  0.4612970000000 1.0
C      1  0.5789550000000  0.4767060000000  0.4245820000000 1.0
C      1  0.4206890000000  0.5236420000000  0.4204290000000 1.0
C      1  0.4799770000000  0.4525050000000  0.4970000000000 1.0
C      1  0.5257940000000  0.5455400000000  0.4962800000000 1.0
C      1  0.5685410000000  0.4351080000000  0.5305460000000 1.0
C      1  0.4335720000000  0.5641420000000  0.5275050000000 1.0
C      1  0.4587740000000  0.5925080000000  0.5432320000000 1.0
C      1  0.5417670000000  0.4061620000000  0.5442660000000 1.0
C      1  0.5478570000000  0.4000340000000  0.4654760000000 1.0
C      1  0.4456250000000  0.6038390000000  0.4691710000000 1.0
C      1  0.5306560000000  0.6018720000000  0.5290950000000 1.0
C      1  0.4692120000000  0.3985960000000  0.5271510000000 1.0
C      1  0.5444140000000  0.5735930000000  0.4563520000000 1.0
C      1  0.4567640000000  0.4256820000000  0.4548250000000 1.0
C      1  0.5158380000000  0.4396200000000  0.4249910000000 1.0
C      1  0.4827760000000  0.5610180000000  0.4356270000000 1.0
C      1  0.5298710000000  0.4495650000000  0.5500420000000 1.0
C      1  0.4714480000000  0.5514040000000  0.5506340000000 1.0
C      1  0.4172660000000  0.4782910000000  0.5567960000000 1.0
C      1  0.5836230000000  0.5233480000000  0.5539980000000 1.0
C      1  0.5955980000000  0.4878290000000  0.4995480000000 1.0
C      1  0.4063760000000  0.5110070000000  0.5008000000000 1.0
C      1  0.5297300000000  0.5592550000000  0.4208890000000 1.0
C      1  0.4853830000000  0.4413210000000  0.4260300000000 1.0
C      1  0.4519660000000  0.4167370000000  0.4972490000000 1.0
C      1  0.5489100000000  0.5837090000000  0.4969160000000 1.0
C      1  0.4837730000000  0.4432900000000  0.5912930000000 1.0
C      1  0.5174680000000  0.5566760000000  0.5931870000000 1.0
C      1  0.4137750000000  0.4390340000000  0.5225410000000 1.0
C      1  0.5793280000000  0.5630500000000  0.5236570000000 1.0
C      1  0.4853760000000  0.4806690000000  0.3971810000000 1.0
C      1  0.5059990000000  0.5167720000000  0.3956800000000 1.0
C      1  0.4787460000000  0.5222940000000  0.4024440000000 1.0
C      1  0.5145430000000  0.4841280000000  0.4027430000000 1.0
C      1  0.5690800000000  0.4776730000000  0.5728170000000 1.0
C      1  0.4360860000000  0.5213570000000  0.5709030000000 1.0
C      1  0.4268370000000  0.4958250000000  0.4129170000000 1.0
C      1  0.5782970000000  0.5050400000000  0.4171430000000 1.0
C      1  0.4038390000000  0.4354400000000  0.4970870000000 1.0
C      1  0.5945120000000  0.5600520000000  0.5013280000000 1.0
C      1  0.5198100000000  0.5950740000000  0.4884400000000 1.0
C      1  0.4799310000000  0.4057570000000  0.4882520000000 1.0
C      1  0.4969760000000  0.5014700000000  0.5135610000000 1.0
END
