TITL C-2441154-10-1299 0.0441842040599071 125000 -8903.61641105318 0 0 71 (C1) n - 1
REM
REM in /home/bkarasulu/work/CARBON/AIRSS/Generating-Clusters/ReaxFF-fromJPCA2015/Units_Real/with-SteepDescent/Higher-Symm
REM
REM
REM
REM
REM
REM ./C.cell (1df0a924f5614ab8850e4351716899ee)
REM
REM compiler GCC version 9.2.1 20190827 (Red Hat 9.2.1-1)
REM options -cpp -mtune=generic -march=x86-64 -g -O0 -fpre-include=/usr/include/finclude/math-vector-fortran.h
REM seed -407550907 1667075073 977323825 -2096547916 1465341025 1530795450 -1024699475 661127064 -1226363640 -1946823879 -919928442 -720312554 -41455283 -768814390 -378591207 667401198 -1343228978 1271495710 1397323842 910533290 -305149683 -782079769 1770144447 219116429 -1995989355 -1187320330 963644211 1372084584 42725152 -549528320 470265928 -2046511096 -1885333122
REM
CELL 1.54180   50.00000   50.00000   50.00000   90.00000   90.00000   90.00000
LATT -1
SFAC C  
C      1  0.5368320000000  0.4967270000000  0.5475350000000 1.0
C      1  0.4634110000000  0.4960400000000  0.5440860000000 1.0
C      1  0.4305320000000  0.5027970000000  0.4691810000000 1.0
C      1  0.5699940000000  0.5032830000000  0.4694140000000 1.0
C      1  0.5400400000000  0.4350260000000  0.4726670000000 1.0
C      1  0.4606470000000  0.4340310000000  0.4720570000000 1.0
C      1  0.4687630000000  0.5335200000000  0.5630510000000 1.0
C      1  0.5319720000000  0.5349380000000  0.5624990000000 1.0
C      1  0.5255010000000  0.4581950000000  0.5649570000000 1.0
C      1  0.4754800000000  0.4573300000000  0.5652030000000 1.0
C      1  0.5154570000000  0.5591460000000  0.5564590000000 1.0
C      1  0.4846990000000  0.5586900000000  0.5577470000000 1.0
C      1  0.5360520000000  0.5168510000000  0.4346050000000 1.0
C      1  0.4647050000000  0.5162900000000  0.4340040000000 1.0
C      1  0.5139530000000  0.5398730000000  0.4955980000000 1.0
C      1  0.4884070000000  0.5428790000000  0.4971550000000 1.0
C      1  0.4819050000000  0.5315420000000  0.4554390000000 1.0
C      1  0.5179800000000  0.5328110000000  0.4545500000000 1.0
C      1  0.5256610000000  0.5586750000000  0.5299510000000 1.0
C      1  0.4739120000000  0.5585290000000  0.5316110000000 1.0
C      1  0.4403190000000  0.4491430000000  0.4876940000000 1.0
C      1  0.5569820000000  0.4509180000000  0.4886500000000 1.0
C      1  0.4476060000000  0.5516060000000  0.5006510000000 1.0
C      1  0.5532620000000  0.5530720000000  0.5013150000000 1.0
C      1  0.5253200000000  0.4876970000000  0.4592580000000 1.0
C      1  0.4744880000000  0.4868330000000  0.4587080000000 1.0
C      1  0.4868250000000  0.4995450000000  0.5004640000000 1.0
C      1  0.5169040000000  0.4990070000000  0.5017490000000 1.0
C      1  0.4489890000000  0.5223150000000  0.5425510000000 1.0
C      1  0.5503610000000  0.5225510000000  0.5422750000000 1.0
C      1  0.5505790000000  0.4943000000000  0.4481860000000 1.0
C      1  0.4493790000000  0.4941840000000  0.4473770000000 1.0
C      1  0.4441420000000  0.5494070000000  0.4727740000000 1.0
C      1  0.5607980000000  0.5473810000000  0.4753460000000 1.0
C      1  0.4860790000000  0.4974050000000  0.4287480000000 1.0
C      1  0.5146610000000  0.4977380000000  0.4292780000000 1.0
C      1  0.4779470000000  0.5093470000000  0.4752410000000 1.0
C      1  0.5247510000000  0.5111310000000  0.4761500000000 1.0
C      1  0.5633900000000  0.4735940000000  0.5051790000000 1.0
C      1  0.4390750000000  0.4736590000000  0.5038520000000 1.0
C      1  0.5129800000000  0.5611730000000  0.4637330000000 1.0
C      1  0.4833680000000  0.5611990000000  0.4637780000000 1.0
C      1  0.4322320000000  0.5016480000000  0.4985750000000 1.0
C      1  0.5688430000000  0.5026330000000  0.4989020000000 1.0
C      1  0.5277280000000  0.5659270000000  0.4895110000000 1.0
C      1  0.4736710000000  0.5674660000000  0.4921070000000 1.0
C      1  0.4506950000000  0.4733060000000  0.5606750000000 1.0
C      1  0.5484560000000  0.4732490000000  0.5573710000000 1.0
C      1  0.5238670000000  0.4536710000000  0.5194700000000 1.0
C      1  0.4772290000000  0.4547140000000  0.5194780000000 1.0
C      1  0.5151840000000  0.5107760000000  0.5634730000000 1.0
C      1  0.4863640000000  0.5099240000000  0.5636260000000 1.0
C      1  0.5119920000000  0.4487650000000  0.4950780000000 1.0
C      1  0.4873920000000  0.4486860000000  0.4956280000000 1.0
C      1  0.5128460000000  0.4449000000000  0.4437640000000 1.0
C      1  0.4876570000000  0.4447410000000  0.4440840000000 1.0
C      1  0.5241950000000  0.4595450000000  0.4656730000000 1.0
C      1  0.4756610000000  0.4587770000000  0.4662350000000 1.0
C      1  0.4857100000000  0.4202650000000  0.4834410000000 1.0
C      1  0.5140350000000  0.4206440000000  0.4834660000000 1.0
C      1  0.5595020000000  0.5254240000000  0.5150570000000 1.0
C      1  0.4411130000000  0.5255470000000  0.5146830000000 1.0
C      1  0.5348720000000  0.4779260000000  0.5114610000000 1.0
C      1  0.4675540000000  0.4803250000000  0.5158080000000 1.0
C      1  0.4856860000000  0.5328060000000  0.5224740000000 1.0
C      1  0.5158620000000  0.5324940000000  0.5224220000000 1.0
C      1  0.5149070000000  0.4398840000000  0.5431180000000 1.0
C      1  0.4856400000000  0.4400560000000  0.5427030000000 1.0
C      1  0.4337830000000  0.5285500000000  0.4581290000000 1.0
C      1  0.5674510000000  0.5286850000000  0.4569210000000 1.0
C      1  0.4999280000000  0.4725560000000  0.5650990000000 1.0
END
