TITL C-2441158-471-384 0.00210149472768078 125000 -4975.24501465706 0 0 35 (Cs) n - 1
REM
REM in /home/bkarasulu/work/CARBON/AIRSS/Generating-Clusters/ReaxFF-fromJPCA2015/Units_Real/with-SteepDescent/Higher-Symm
REM
REM
REM
REM
REM
REM ./C.cell (1df0a924f5614ab8850e4351716899ee)
REM
REM compiler GCC version 9.2.1 20190827 (Red Hat 9.2.1-1)
REM options -cpp -mtune=generic -march=x86-64 -g -O0 -fpre-include=/usr/include/finclude/math-vector-fortran.h
REM seed -1165037989 -54311926 533767530 1618188982 2021338229 1496729139 1582439682 1230494622 10195412 -1168427902 -395877277 -1316565649 1388795268 -442541836 1154074277 1306107786 458890577 -484888373 522235527 389252715 676296933 -318826766 397603370 226376251 1867946130 950702130 1684559207 -546393152 605167282 -1290237251 -1592356514 35527916 63760933
REM
CELL 1.54180   50.00000   50.00000   50.00000   90.00000   90.00000   90.00000
LATT -1
SFAC C  
C      1  0.4969920000000  0.4497990000000  0.4761440000000 1.0
C      1  0.5312140000000  0.4589900000000  0.4757130000000 1.0
C      1  0.5493500000000  0.4894240000000  0.4760430000000 1.0
C      1  0.5296940000000  0.5484710000000  0.4761710000000 1.0
C      1  0.4969480000000  0.5565870000000  0.4762020000000 1.0
C      1  0.4465390000000  0.5178680000000  0.4761810000000 1.0
C      1  0.4454740000000  0.4841540000000  0.4761400000000 1.0
C      1  0.4482980000000  0.5251350000000  0.5055460000000 1.0
C      1  0.4474370000000  0.4767440000000  0.5054750000000 1.0
C      1  0.4884830000000  0.4456320000000  0.5042970000000 1.0
C      1  0.5354310000000  0.4535960000000  0.5073970000000 1.0
C      1  0.5554340000000  0.4968100000000  0.5041850000000 1.0
C      1  0.5362040000000  0.5446360000000  0.5055180000000 1.0
C      1  0.4893000000000  0.5565720000000  0.5055290000000 1.0
C      1  0.5469190000000  0.5209630000000  0.5181070000000 1.0
C      1  0.5130170000000  0.5517690000000  0.5214680000000 1.0
C      1  0.4684040000000  0.5413610000000  0.5186070000000 1.0
C      1  0.4466400000000  0.5009590000000  0.5214340000000 1.0
C      1  0.4673940000000  0.4601790000000  0.5181900000000 1.0
C      1  0.5117940000000  0.4473420000000  0.5220090000000 1.0
C      1  0.5476650000000  0.4748130000000  0.5219320000000 1.0
C      1  0.4797490000000  0.5264660000000  0.5416750000000 1.0
C      1  0.4666060000000  0.5005810000000  0.5431800000000 1.0
C      1  0.4788720000000  0.4741810000000  0.5416790000000 1.0
C      1  0.5069020000000  0.4670660000000  0.5438890000000 1.0
C      1  0.5299460000000  0.4846980000000  0.5438560000000 1.0
C      1  0.5304000000000  0.5136320000000  0.5416220000000 1.0
C      1  0.5081470000000  0.5323700000000  0.5431660000000 1.0
C      1  0.4841260000000  0.4438840000000  0.4553800000000 1.0
C      1  0.5424940000000  0.4437840000000  0.4563430000000 1.0
C      1  0.5588830000000  0.4998010000000  0.4552330000000 1.0
C      1  0.5447410000000  0.5469320000000  0.4554870000000 1.0
C      1  0.4832750000000  0.5625900000000  0.4553920000000 1.0
C      1  0.4450480000000  0.5327570000000  0.4553810000000 1.0
C      1  0.4421790000000  0.4694530000000  0.4554300000000 1.0
END
