TITL C-2441160-1326-777 0.036947833214017 125000 -9727.06153213637 0 0 73 (C1) n - 1
REM
REM in /home/bkarasulu/work/CARBON/AIRSS/Generating-Clusters/ReaxFF-fromJPCA2015/Units_Real/with-SteepDescent/Higher-Symm
REM
REM
REM
REM
REM
REM ./C.cell (1df0a924f5614ab8850e4351716899ee)
REM
REM compiler GCC version 9.2.1 20190827 (Red Hat 9.2.1-1)
REM options -cpp -mtune=generic -march=x86-64 -g -O0 -fpre-include=/usr/include/finclude/math-vector-fortran.h
REM seed 2118737969 796439683 -1337836317 765100463 206869409 411723012 228824070 -409686563 -221205992 -577437553 -1477282891 2125128139 -1936762345 -1999894147 1624733079 1720884671 -1062384395 -48446949 -1316253660 303362148 -1985989208 -623069319 1453680563 1420093391 1113147545 -1652146184 -1390976861 6621521 -1479660667 57013580 -2142422471 -1322392149 -1096609040
REM
CELL 1.54180   50.00000   50.00000   50.00000   90.00000   90.00000   90.00000
LATT -1
SFAC C  
C      1  0.4659550000000  0.4425650000000  0.4991920000000 1.0
C      1  0.4369580000000  0.5129850000000  0.5009830000000 1.0
C      1  0.4941020000000  0.5588190000000  0.4981060000000 1.0
C      1  0.5537530000000  0.5249460000000  0.5003510000000 1.0
C      1  0.5391160000000  0.4562380000000  0.4971210000000 1.0
C      1  0.4649560000000  0.5560240000000  0.5039460000000 1.0
C      1  0.4372910000000  0.4858000000000  0.5030570000000 1.0
C      1  0.4940290000000  0.4353190000000  0.5027900000000 1.0
C      1  0.5629910000000  0.4730980000000  0.5031260000000 1.0
C      1  0.5446320000000  0.5513700000000  0.5029490000000 1.0
C      1  0.5679680000000  0.4859040000000  0.5290960000000 1.0
C      1  0.5074430000000  0.4317790000000  0.5283190000000 1.0
C      1  0.4375770000000  0.4730710000000  0.5294270000000 1.0
C      1  0.4537950000000  0.5493160000000  0.5304120000000 1.0
C      1  0.5339520000000  0.5609780000000  0.5275390000000 1.0
C      1  0.5679420000000  0.5147980000000  0.4757650000000 1.0
C      1  0.5074410000000  0.5702470000000  0.4744070000000 1.0
C      1  0.4374390000000  0.5263780000000  0.4740870000000 1.0
C      1  0.4537790000000  0.4484200000000  0.4730900000000 1.0
C      1  0.5366530000000  0.4383560000000  0.4730180000000 1.0
C      1  0.4908820000000  0.4756030000000  0.4771540000000 1.0
C      1  0.4790020000000  0.5056180000000  0.4816140000000 1.0
C      1  0.4982030000000  0.5261130000000  0.4741780000000 1.0
C      1  0.5225830000000  0.5086070000000  0.4718110000000 1.0
C      1  0.5198830000000  0.4791320000000  0.4741610000000 1.0
C      1  0.4964750000000  0.5202400000000  0.5287530000000 1.0
C      1  0.4809530000000  0.4959150000000  0.5196020000000 1.0
C      1  0.4960130000000  0.4747980000000  0.5315620000000 1.0
C      1  0.5223410000000  0.4865710000000  0.5295270000000 1.0
C      1  0.5227650000000  0.5140450000000  0.5196580000000 1.0
C      1  0.4860740000000  0.4221870000000  0.4587600000000 1.0
C      1  0.4194050000000  0.4913170000000  0.4618680000000 1.0
C      1  0.4679060000000  0.5662940000000  0.4607960000000 1.0
C      1  0.5516520000000  0.5478050000000  0.4587160000000 1.0
C      1  0.5669450000000  0.4637570000000  0.4620340000000 1.0
C      1  0.4860400000000  0.5697140000000  0.5432590000000 1.0
C      1  0.4128380000000  0.5085440000000  0.5343290000000 1.0
C      1  0.4631530000000  0.4276040000000  0.5446680000000 1.0
C      1  0.5553480000000  0.4455800000000  0.5451070000000 1.0
C      1  0.5702680000000  0.5365070000000  0.5459450000000 1.0
C      1  0.5434310000000  0.5488980000000  0.5528960000000 1.0
C      1  0.5566560000000  0.4745380000000  0.5538260000000 1.0
C      1  0.4902580000000  0.4376280000000  0.5519790000000 1.0
C      1  0.4469330000000  0.4927130000000  0.5490740000000 1.0
C      1  0.4709790000000  0.5493930000000  0.5535990000000 1.0
C      1  0.5452650000000  0.4527520000000  0.4483130000000 1.0
C      1  0.5576120000000  0.5224120000000  0.4492560000000 1.0
C      1  0.4932930000000  0.5654240000000  0.4489120000000 1.0
C      1  0.4463560000000  0.5110170000000  0.4516410000000 1.0
C      1  0.4699090000000  0.4454050000000  0.4488380000000 1.0
C      1  0.4856490000000  0.5193940000000  0.5577510000000 1.0
C      1  0.5258650000000  0.5300040000000  0.5644450000000 1.0
C      1  0.5304480000000  0.4875850000000  0.5579980000000 1.0
C      1  0.4886110000000  0.4668610000000  0.5581070000000 1.0
C      1  0.4716650000000  0.4912700000000  0.5628120000000 1.0
C      1  0.4828300000000  0.4723370000000  0.4472680000000 1.0
C      1  0.5267490000000  0.4769700000000  0.4447760000000 1.0
C      1  0.5313850000000  0.5062390000000  0.4440030000000 1.0
C      1  0.4924090000000  0.5353730000000  0.4463290000000 1.0
C      1  0.4719060000000  0.5154020000000  0.4366520000000 1.0
C      1  0.4512030000000  0.4465650000000  0.5244480000000 1.0
C      1  0.4388040000000  0.5206320000000  0.5297640000000 1.0
C      1  0.5063330000000  0.5694070000000  0.5237690000000 1.0
C      1  0.5625560000000  0.5148620000000  0.5264680000000 1.0
C      1  0.5348420000000  0.4409630000000  0.5240690000000 1.0
C      1  0.4496080000000  0.5545130000000  0.4786220000000 1.0
C      1  0.4393570000000  0.4752080000000  0.4751710000000 1.0
C      1  0.5084400000000  0.4301380000000  0.4774390000000 1.0
C      1  0.5739100000000  0.4857750000000  0.4783780000000 1.0
C      1  0.5367070000000  0.5631340000000  0.4770760000000 1.0
C      1  0.4930250000000  0.4956560000000  0.4341460000000 1.0
C      1  0.5118460000000  0.5078810000000  0.5710220000000 1.0
C      1  0.4914930000000  0.4930480000000  0.4978250000000 1.0
END
