TITL C-2441155-8282-107 0.0082942361641871 125000 -6053.3001370709 0 0 45 (C1) n - 1
REM
REM in /home/bkarasulu/work/CARBON/AIRSS/Generating-Clusters/ReaxFF-fromJPCA2015/Units_Real/with-SteepDescent/Higher-Symm
REM
REM
REM
REM
REM
REM ./C.cell (1df0a924f5614ab8850e4351716899ee)
REM
REM compiler GCC version 9.2.1 20190827 (Red Hat 9.2.1-1)
REM options -cpp -mtune=generic -march=x86-64 -g -O0 -fpre-include=/usr/include/finclude/math-vector-fortran.h
REM seed 882589311 -1452596242 -134937754 -876537029 -949823212 -384670579 -417084350 903227009 -1768299280 1605449385 432112162 2110029839 1708439689 -1664635081 -455608816 1154840801 -1461459690 1215677213 451277644 1270954241 -659069649 -52749641 -1675028684 1414220794 1412496561 1088588533 -138971339 1715615329 944090030 1860698836 -1552812950 162016274 -637343788
REM
CELL 1.54180   50.00000   50.00000   50.00000   90.00000   90.00000   90.00000
LATT -1
SFAC C  
C      1  0.5066380000000  0.5676100000000  0.5184130000000 1.0
C      1  0.4992080000000  0.5024700000000  0.5609260000000 1.0
C      1  0.4455230000000  0.5364030000000  0.5112970000000 1.0
C      1  0.4553640000000  0.5119160000000  0.4726100000000 1.0
C      1  0.4998160000000  0.4673920000000  0.4937030000000 1.0
C      1  0.5299250000000  0.5752350000000  0.5163350000000 1.0
C      1  0.5104990000000  0.5240410000000  0.4992860000000 1.0
C      1  0.5343040000000  0.5338570000000  0.4876320000000 1.0
C      1  0.4413680000000  0.4868650000000  0.4772550000000 1.0
C      1  0.5108660000000  0.5420790000000  0.4394970000000 1.0
C      1  0.4648140000000  0.4816280000000  0.5355090000000 1.0
C      1  0.4783020000000  0.4781790000000  0.4511180000000 1.0
C      1  0.4516150000000  0.5390050000000  0.4815850000000 1.0
C      1  0.4955880000000  0.5432150000000  0.5125670000000 1.0
C      1  0.4815850000000  0.4558800000000  0.4673080000000 1.0
C      1  0.4518320000000  0.4507880000000  0.5128090000000 1.0
C      1  0.4936890000000  0.5570990000000  0.4526520000000 1.0
C      1  0.5120270000000  0.4855840000000  0.5402120000000 1.0
C      1  0.4353790000000  0.4860490000000  0.5273100000000 1.0
C      1  0.4730830000000  0.5508500000000  0.4670680000000 1.0
C      1  0.4734580000000  0.4539110000000  0.5306160000000 1.0
C      1  0.5677760000000  0.4658970000000  0.4792250000000 1.0
C      1  0.4797200000000  0.5014790000000  0.5202590000000 1.0
C      1  0.5499800000000  0.4617540000000  0.5382870000000 1.0
C      1  0.5029350000000  0.5192040000000  0.4459700000000 1.0
C      1  0.5490160000000  0.4947400000000  0.5094370000000 1.0
C      1  0.5067230000000  0.5291780000000  0.5669840000000 1.0
C      1  0.4964520000000  0.4983680000000  0.4958540000000 1.0
C      1  0.5040600000000  0.4588230000000  0.5254400000000 1.0
C      1  0.4814470000000  0.5265630000000  0.5566290000000 1.0
C      1  0.5406050000000  0.4897120000000  0.5363310000000 1.0
C      1  0.5602910000000  0.5103780000000  0.4686500000000 1.0
C      1  0.4845510000000  0.5032630000000  0.4624220000000 1.0
C      1  0.5300540000000  0.4441620000000  0.5284050000000 1.0
C      1  0.5216750000000  0.4565100000000  0.4766710000000 1.0
C      1  0.5559550000000  0.5187880000000  0.4954310000000 1.0
C      1  0.5542770000000  0.4494810000000  0.5133260000000 1.0
C      1  0.4352480000000  0.5132010000000  0.5202430000000 1.0
C      1  0.5424700000000  0.5556750000000  0.5048140000000 1.0
C      1  0.5687420000000  0.4871200000000  0.4648130000000 1.0
C      1  0.4548290000000  0.4678920000000  0.4599620000000 1.0
C      1  0.4344500000000  0.4703960000000  0.5017880000000 1.0
C      1  0.5491020000000  0.4691070000000  0.4948980000000 1.0
C      1  0.5116820000000  0.4484000000000  0.4521570000000 1.0
C      1  0.4730760000000  0.5298490000000  0.5262980000000 1.0
END
