TITL C-2441169-1362-883 0.00273038735518006 125000 -8680.84354145995 0 0 58 (C1) n - 1
REM
REM in /home/bkarasulu/work/CARBON/AIRSS/Generating-Clusters/ReaxFF-fromJPCA2015/Units_Real/with-SteepDescent/Higher-Symm
REM
REM
REM
REM
REM
REM ./C.cell (1df0a924f5614ab8850e4351716899ee)
REM
REM compiler GCC version 9.2.1 20190827 (Red Hat 9.2.1-1)
REM options -cpp -mtune=generic -march=x86-64 -g -O0 -fpre-include=/usr/include/finclude/math-vector-fortran.h
REM seed -1504772366 2080172143 -1830242999 -2023548430 -874730384 522992566 1189044236 -1956106729 363561061 1557162390 91889854 1223303749 910859312 -519035437 1910492263 908983437 -1789048563 -1070895191 61110599 1030824946 1393398863 423992573 295835217 1630889251 -1828807518 1446559569 1304079784 963851297 1059418646 -1549470843 -2109242057 -1330933514 -695011001
REM
CELL 1.54180   50.00000   50.00000   50.00000   90.00000   90.00000   90.00000
LATT -1
SFAC C  
C      1  0.4729980000000  0.4908910000000  0.4679600000000 1.0
C      1  0.5070970000000  0.5277080000000  0.4678660000000 1.0
C      1  0.5219020000000  0.4798560000000  0.4677630000000 1.0
C      1  0.4682870000000  0.4899590000000  0.5329900000000 1.0
C      1  0.5087260000000  0.5314340000000  0.5326270000000 1.0
C      1  0.5236500000000  0.4764900000000  0.5328900000000 1.0
C      1  0.4450150000000  0.4765170000000  0.5170340000000 1.0
C      1  0.5089250000000  0.5581450000000  0.5168080000000 1.0
C      1  0.5470800000000  0.4631150000000  0.5168210000000 1.0
C      1  0.4471140000000  0.4743870000000  0.4840080000000 1.0
C      1  0.5059270000000  0.5582650000000  0.4841170000000 1.0
C      1  0.5488560000000  0.4656040000000  0.4839570000000 1.0
C      1  0.5319800000000  0.5245940000000  0.5488360000000 1.0
C      1  0.5062870000000  0.4593730000000  0.5487450000000 1.0
C      1  0.4625290000000  0.5145030000000  0.5476710000000 1.0
C      1  0.5305210000000  0.5233950000000  0.4516020000000 1.0
C      1  0.5063730000000  0.4617100000000  0.4515730000000 1.0
C      1  0.4650850000000  0.5134420000000  0.4518010000000 1.0
C      1  0.4619350000000  0.4510630000000  0.4724040000000 1.0
C      1  0.4781970000000  0.5571910000000  0.4725310000000 1.0
C      1  0.5618270000000  0.4901050000000  0.4724050000000 1.0
C      1  0.4567400000000  0.4504860000000  0.5304150000000 1.0
C      1  0.4802970000000  0.5618310000000  0.5304560000000 1.0
C      1  0.5639070000000  0.4856150000000  0.5302880000000 1.0
C      1  0.5776280000000  0.5083400000000  0.5164550000000 1.0
C      1  0.4698410000000  0.4276590000000  0.5163360000000 1.0
C      1  0.4545940000000  0.5651910000000  0.5158750000000 1.0
C      1  0.5728170000000  0.5126660000000  0.4869180000000 1.0
C      1  0.4759860000000  0.4301440000000  0.4867740000000 1.0
C      1  0.4531690000000  0.5557980000000  0.4870190000000 1.0
C      1  0.4336980000000  0.5207610000000  0.5411510000000 1.0
C      1  0.5508910000000  0.5478550000000  0.5438330000000 1.0
C      1  0.5174380000000  0.4314830000000  0.5437140000000 1.0
C      1  0.4368970000000  0.5173830000000  0.4579320000000 1.0
C      1  0.5479290000000  0.5459910000000  0.4573830000000 1.0
C      1  0.5172920000000  0.4353380000000  0.4572960000000 1.0
C      1  0.5663570000000  0.5402880000000  0.4796790000000 1.0
C      1  0.5031520000000  0.4220900000000  0.4795070000000 1.0
C      1  0.4329070000000  0.5357680000000  0.4805450000000 1.0
C      1  0.5683690000000  0.5313930000000  0.5298080000000 1.0
C      1  0.4946510000000  0.4243090000000  0.5294250000000 1.0
C      1  0.4407750000000  0.5465920000000  0.5318880000000 1.0
C      1  0.4823870000000  0.5363360000000  0.5440720000000 1.0
C      1  0.5412500000000  0.4965120000000  0.5449330000000 1.0
C      1  0.4771770000000  0.4649080000000  0.5450600000000 1.0
C      1  0.4829990000000  0.5349880000000  0.4550380000000 1.0
C      1  0.5402450000000  0.4971040000000  0.4548670000000 1.0
C      1  0.4787820000000  0.4664600000000  0.4550170000000 1.0
C      1  0.4272120000000  0.4944920000000  0.4740720000000 1.0
C      1  0.5332530000000  0.5656370000000  0.4739870000000 1.0
C      1  0.5416290000000  0.4382280000000  0.4739080000000 1.0
C      1  0.4262680000000  0.5001080000000  0.5212840000000 1.0
C      1  0.5389150000000  0.5628790000000  0.5212990000000 1.0
C      1  0.5363220000000  0.4345040000000  0.5211950000000 1.0
C      1  0.4198320000000  0.5125630000000  0.4960520000000 1.0
C      1  0.5528570000000  0.5626100000000  0.4957010000000 1.0
C      1  0.5292350000000  0.4226660000000  0.4955860000000 1.0
C      1  0.5006730000000  0.4994870000000  0.4833580000000 1.0
END
