TITL C-2441160-1326-872 0.1033383933404 125000 -15979.839563493 0 0 127 (C1) n - 1
REM
REM in /home/bkarasulu/work/CARBON/AIRSS/Generating-Clusters/ReaxFF-fromJPCA2015/Units_Real/with-SteepDescent/Higher-Symm
REM
REM
REM
REM
REM
REM ./C.cell (1df0a924f5614ab8850e4351716899ee)
REM
REM compiler GCC version 9.2.1 20190827 (Red Hat 9.2.1-1)
REM options -cpp -mtune=generic -march=x86-64 -g -O0 -fpre-include=/usr/include/finclude/math-vector-fortran.h
REM seed 727696993 471067250 -76577805 71054648 -785458593 -1700819497 1925624996 -1663652128 -1560309593 1476619682 131868363 2028648507 -1997893188 -1459888607 -384052819 1183561936 -951342059 -1755905529 -1201067489 1285653498 1089440246 1126560508 -1433799454 -701831136 368609147 -855533628 -436539814 405418923 -1286902324 -702796996 -2073229674 1531247847 419578158
REM
CELL 1.54180   50.00000   50.00000   50.00000   90.00000   90.00000   90.00000
LATT -1
SFAC C  
C      1  0.5517180000000  0.5713590000000  0.5579870000000 1.0
C      1  0.5516330000000  0.4301820000000  0.4427290000000 1.0
C      1  0.5516940000000  0.5708810000000  0.4415220000000 1.0
C      1  0.5520630000000  0.4296290000000  0.5564770000000 1.0
C      1  0.5293970000000  0.5130680000000  0.5547900000000 1.0
C      1  0.5284250000000  0.4872870000000  0.4438880000000 1.0
C      1  0.5288430000000  0.5125180000000  0.4437600000000 1.0
C      1  0.5289460000000  0.4873870000000  0.5553170000000 1.0
C      1  0.5185920000000  0.4178070000000  0.5235100000000 1.0
C      1  0.5212790000000  0.5818930000000  0.4767380000000 1.0
C      1  0.5201060000000  0.4165510000000  0.4761420000000 1.0
C      1  0.5190450000000  0.5801160000000  0.5240960000000 1.0
C      1  0.5990200000000  0.4704490000000  0.5101670000000 1.0
C      1  0.5991110000000  0.5298720000000  0.4895260000000 1.0
C      1  0.6002110000000  0.4705940000000  0.4882560000000 1.0
C      1  0.5997770000000  0.5299520000000  0.5114740000000 1.0
C      1  0.4925170000000  0.4590940000000  0.5866380000000 1.0
C      1  0.4964010000000  0.5418480000000  0.4113920000000 1.0
C      1  0.4985760000000  0.4580320000000  0.4101200000000 1.0
C      1  0.4988640000000  0.5417400000000  0.5900970000000 1.0
C      1  0.4602500000000  0.5753170000000  0.4694620000000 1.0
C      1  0.4630930000000  0.4245220000000  0.5358960000000 1.0
C      1  0.4630210000000  0.5759500000000  0.5350030000000 1.0
C      1  0.4609140000000  0.4264810000000  0.4687610000000 1.0
C      1  0.5627690000000  0.5572160000000  0.5353160000000 1.0
C      1  0.5637830000000  0.4429510000000  0.4651200000000 1.0
C      1  0.5639440000000  0.5574520000000  0.4641740000000 1.0
C      1  0.5633470000000  0.4428980000000  0.5338180000000 1.0
C      1  0.5360360000000  0.4472500000000  0.4248190000000 1.0
C      1  0.5360780000000  0.5532110000000  0.5750520000000 1.0
C      1  0.5369600000000  0.4472790000000  0.5735660000000 1.0
C      1  0.5356660000000  0.5527530000000  0.4246150000000 1.0
C      1  0.5079810000000  0.4430590000000  0.5679170000000 1.0
C      1  0.5077190000000  0.5588930000000  0.4323360000000 1.0
C      1  0.5079790000000  0.4416720000000  0.4323950000000 1.0
C      1  0.5078570000000  0.5586110000000  0.5678830000000 1.0
C      1  0.4885000000000  0.4156150000000  0.4838630000000 1.0
C      1  0.4883060000000  0.5838650000000  0.5165710000000 1.0
C      1  0.4893270000000  0.4158080000000  0.5168570000000 1.0
C      1  0.4878760000000  0.5844690000000  0.4842990000000 1.0
C      1  0.4296760000000  0.5402220000000  0.4463500000000 1.0
C      1  0.4293170000000  0.4612360000000  0.5494980000000 1.0
C      1  0.4294490000000  0.5393020000000  0.5481350000000 1.0
C      1  0.4278780000000  0.4608200000000  0.4490880000000 1.0
C      1  0.5056200000000  0.4864900000000  0.4091810000000 1.0
C      1  0.5054500000000  0.5131970000000  0.5907840000000 1.0
C      1  0.5038970000000  0.4849540000000  0.5931160000000 1.0
C      1  0.5058120000000  0.5139920000000  0.4079730000000 1.0
C      1  0.4017380000000  0.5117490000000  0.4673240000000 1.0
C      1  0.3995940000000  0.4865080000000  0.5352860000000 1.0
C      1  0.3991790000000  0.5137430000000  0.5346680000000 1.0
C      1  0.4015520000000  0.4869560000000  0.4666720000000 1.0
C      1  0.4882830000000  0.5559390000000  0.5139720000000 1.0
C      1  0.4927390000000  0.4441360000000  0.4848030000000 1.0
C      1  0.4918980000000  0.5557830000000  0.4841470000000 1.0
C      1  0.4885200000000  0.4447160000000  0.5148530000000 1.0
C      1  0.4481150000000  0.4443190000000  0.4892120000000 1.0
C      1  0.4600070000000  0.5552480000000  0.5146230000000 1.0
C      1  0.4602550000000  0.4433700000000  0.5149470000000 1.0
C      1  0.4449000000000  0.5636890000000  0.4909320000000 1.0
C      1  0.5403350000000  0.4412610000000  0.5153560000000 1.0
C      1  0.5401610000000  0.5589600000000  0.4796260000000 1.0
C      1  0.5407950000000  0.4403290000000  0.4836700000000 1.0
C      1  0.5379120000000  0.5570130000000  0.5212800000000 1.0
C      1  0.5111130000000  0.5237760000000  0.4637460000000 1.0
C      1  0.5104390000000  0.4759970000000  0.5365600000000 1.0
C      1  0.5075290000000  0.5237810000000  0.5396560000000 1.0
C      1  0.5107290000000  0.4758880000000  0.4636740000000 1.0
C      1  0.5486150000000  0.4743440000000  0.5723200000000 1.0
C      1  0.5484200000000  0.5258900000000  0.4270630000000 1.0
C      1  0.5482400000000  0.4744900000000  0.4271740000000 1.0
C      1  0.5482570000000  0.5260810000000  0.5723720000000 1.0
C      1  0.5586120000000  0.5142590000000  0.4781320000000 1.0
C      1  0.5581200000000  0.4867740000000  0.5217490000000 1.0
C      1  0.5582650000000  0.5138970000000  0.5217000000000 1.0
C      1  0.5584940000000  0.4872160000000  0.4777160000000 1.0
C      1  0.5735710000000  0.4859880000000  0.4363910000000 1.0
C      1  0.5735350000000  0.5143740000000  0.5630870000000 1.0
C      1  0.5738170000000  0.4859460000000  0.5628530000000 1.0
C      1  0.5737540000000  0.5144320000000  0.4366690000000 1.0
C      1  0.4541480000000  0.4451560000000  0.5542510000000 1.0
C      1  0.4548300000000  0.5553000000000  0.4492840000000 1.0
C      1  0.4537320000000  0.4451620000000  0.4481640000000 1.0
C      1  0.4534250000000  0.5565820000000  0.5539430000000 1.0
C      1  0.5320440000000  0.4071150000000  0.4517270000000 1.0
C      1  0.5320550000000  0.5925290000000  0.5471340000000 1.0
C      1  0.5313480000000  0.4078190000000  0.5471400000000 1.0
C      1  0.5328630000000  0.5931930000000  0.4527670000000 1.0
C      1  0.5339750000000  0.4719360000000  0.4849670000000 1.0
C      1  0.5348170000000  0.5290610000000  0.5133330000000 1.0
C      1  0.5335530000000  0.4720740000000  0.5140400000000 1.0
C      1  0.5352720000000  0.5294180000000  0.4855220000000 1.0
C      1  0.5791450000000  0.4693610000000  0.4634650000000 1.0
C      1  0.5788240000000  0.5309010000000  0.5362030000000 1.0
C      1  0.5789280000000  0.4690640000000  0.5357610000000 1.0
C      1  0.5790960000000  0.5306090000000  0.4638810000000 1.0
C      1  0.5008700000000  0.5493080000000  0.4588640000000 1.0
C      1  0.5017200000000  0.4508640000000  0.5410200000000 1.0
C      1  0.4985810000000  0.5496610000000  0.5420340000000 1.0
C      1  0.5007190000000  0.4509090000000  0.4588600000000 1.0
C      1  0.4430910000000  0.5152040000000  0.5564720000000 1.0
C      1  0.4424000000000  0.4856260000000  0.4427040000000 1.0
C      1  0.4429820000000  0.5143410000000  0.4426460000000 1.0
C      1  0.4421300000000  0.4863880000000  0.5567100000000 1.0
C      1  0.4924770000000  0.5134900000000  0.5191780000000 1.0
C      1  0.4912660000000  0.4863480000000  0.4798680000000 1.0
C      1  0.4908580000000  0.5107930000000  0.4777810000000 1.0
C      1  0.4920250000000  0.4882740000000  0.5213980000000 1.0
C      1  0.4797790000000  0.5190950000000  0.4204320000000 1.0
C      1  0.4788830000000  0.4815700000000  0.5782240000000 1.0
C      1  0.4798260000000  0.5211760000000  0.5825110000000 1.0
C      1  0.4798830000000  0.4790440000000  0.4169080000000 1.0
C      1  0.4684670000000  0.5280860000000  0.4466080000000 1.0
C      1  0.4674710000000  0.4727850000000  0.5545600000000 1.0
C      1  0.4676530000000  0.5304580000000  0.5591360000000 1.0
C      1  0.4665740000000  0.4707900000000  0.4400480000000 1.0
C      1  0.4177320000000  0.4678740000000  0.5214590000000 1.0
C      1  0.4110220000000  0.5383640000000  0.4697740000000 1.0
C      1  0.4114370000000  0.4615070000000  0.4721950000000 1.0
C      1  0.4171400000000  0.5321960000000  0.5205450000000 1.0
C      1  0.4634380000000  0.4816280000000  0.4874730000000 1.0
C      1  0.4633320000000  0.5176090000000  0.5127650000000 1.0
C      1  0.4637730000000  0.4858170000000  0.5173160000000 1.0
C      1  0.4622930000000  0.5125150000000  0.4828960000000 1.0
C      1  0.4216100000000  0.5483360000000  0.4946610000000 1.0
C      1  0.4213770000000  0.4526030000000  0.4963140000000 1.0
C      1  0.4234400000000  0.4999920000000  0.5063070000000 1.0
END
