TITL C-2441167-4473-579 0.0311557945312776 125000 -9763.83407213618 0 0 72 (C1) n - 1
REM
REM in /home/bkarasulu/work/CARBON/AIRSS/Generating-Clusters/ReaxFF-fromJPCA2015/Units_Real/with-SteepDescent/Higher-Symm
REM
REM
REM
REM
REM
REM ./C.cell (1df0a924f5614ab8850e4351716899ee)
REM
REM compiler GCC version 9.2.1 20190827 (Red Hat 9.2.1-1)
REM options -cpp -mtune=generic -march=x86-64 -g -O0 -fpre-include=/usr/include/finclude/math-vector-fortran.h
REM seed 1270016385 197715087 -1421235187 -1335840573 391260276 1651354445 2125608882 409087661 -1731114571 -17330720 93617853 -154879665 833951084 -1538586476 -1719962317 979951887 1195436952 -527322959 -473163738 420883829 -1566286514 1231403428 897730965 872806253 1477244096 2022085623 588805388 -764357735 -432784343 1226383652 885368502 -1196694918 -492666435
REM
CELL 1.54180   50.00000   50.00000   50.00000   90.00000   90.00000   90.00000
LATT -1
SFAC C  
C      1  0.4812640000000  0.4431660000000  0.5335440000000 1.0
C      1  0.4812470000000  0.4456290000000  0.4670330000000 1.0
C      1  0.5389140000000  0.4440250000000  0.4998080000000 1.0
C      1  0.4908970000000  0.5358430000000  0.4768530000000 1.0
C      1  0.5184990000000  0.5396300000000  0.5102570000000 1.0
C      1  0.4897120000000  0.5372840000000  0.5057360000000 1.0
C      1  0.4724500000000  0.5589730000000  0.5168620000000 1.0
C      1  0.4979160000000  0.5609470000000  0.4642730000000 1.0
C      1  0.5294130000000  0.5657600000000  0.5175600000000 1.0
C      1  0.5312530000000  0.5336600000000  0.4463130000000 1.0
C      1  0.5325570000000  0.5351330000000  0.5534260000000 1.0
C      1  0.4371000000000  0.5371680000000  0.5058630000000 1.0
C      1  0.5689150000000  0.4643910000000  0.5259640000000 1.0
C      1  0.4456600000000  0.4722640000000  0.5425510000000 1.0
C      1  0.4930180000000  0.4732000000000  0.4287710000000 1.0
C      1  0.4338550000000  0.4613420000000  0.4578620000000 1.0
C      1  0.5711620000000  0.4598400000000  0.4748060000000 1.0
C      1  0.4888840000000  0.4623200000000  0.5750120000000 1.0
C      1  0.4427170000000  0.4724570000000  0.5139000000000 1.0
C      1  0.5176180000000  0.4732020000000  0.4434390000000 1.0
C      1  0.5447410000000  0.4743540000000  0.5395680000000 1.0
C      1  0.5155280000000  0.4524090000000  0.4643220000000 1.0
C      1  0.5249060000000  0.4512930000000  0.5273480000000 1.0
C      1  0.4625720000000  0.4516970000000  0.5055180000000 1.0
C      1  0.4892540000000  0.4909270000000  0.5701400000000 1.0
C      1  0.4526140000000  0.4802260000000  0.4498240000000 1.0
C      1  0.5593560000000  0.4876720000000  0.4767750000000 1.0
C      1  0.4500080000000  0.5626580000000  0.4988130000000 1.0
C      1  0.5271060000000  0.5600010000000  0.4568310000000 1.0
C      1  0.5244080000000  0.5624140000000  0.5463530000000 1.0
C      1  0.5057490000000  0.5193850000000  0.4515650000000 1.0
C      1  0.5358940000000  0.5231680000000  0.5268640000000 1.0
C      1  0.4526060000000  0.5164900000000  0.5194530000000 1.0
C      1  0.4398690000000  0.5374120000000  0.4625090000000 1.0
C      1  0.5642930000000  0.5364430000000  0.4708870000000 1.0
C      1  0.4947870000000  0.5372550000000  0.5707160000000 1.0
C      1  0.4899740000000  0.5018960000000  0.4308850000000 1.0
C      1  0.5660060000000  0.4902560000000  0.5260200000000 1.0
C      1  0.4473420000000  0.5010770000000  0.5435410000000 1.0
C      1  0.5210830000000  0.4995160000000  0.5368060000000 1.0
C      1  0.4459740000000  0.4974030000000  0.4994590000000 1.0
C      1  0.5228340000000  0.4976430000000  0.4592540000000 1.0
C      1  0.5324410000000  0.4695610000000  0.4849740000000 1.0
C      1  0.4992190000000  0.4657680000000  0.5267510000000 1.0
C      1  0.4758200000000  0.4681800000000  0.4854300000000 1.0
C      1  0.4346620000000  0.4394930000000  0.4712830000000 1.0
C      1  0.5582320000000  0.4392530000000  0.4595180000000 1.0
C      1  0.5079760000000  0.4406230000000  0.5687120000000 1.0
C      1  0.5507370000000  0.5619670000000  0.4739850000000 1.0
C      1  0.4975310000000  0.5637780000000  0.5580320000000 1.0
C      1  0.4513790000000  0.5637740000000  0.4693650000000 1.0
C      1  0.5677340000000  0.4494260000000  0.5021670000000 1.0
C      1  0.4666100000000  0.4561830000000  0.5559260000000 1.0
C      1  0.4707660000000  0.4587340000000  0.4416680000000 1.0
C      1  0.5092620000000  0.4300740000000  0.5431830000000 1.0
C      1  0.4587240000000  0.4311850000000  0.4829860000000 1.0
C      1  0.5347510000000  0.4308160000000  0.4715230000000 1.0
C      1  0.4726670000000  0.5597750000000  0.4487960000000 1.0
C      1  0.5541450000000  0.5602720000000  0.5029640000000 1.0
C      1  0.4707240000000  0.5593770000000  0.5460640000000 1.0
C      1  0.4619560000000  0.5052030000000  0.4357430000000 1.0
C      1  0.5656820000000  0.5034830000000  0.5006310000000 1.0
C      1  0.4661190000000  0.5070000000000  0.5649520000000 1.0
C      1  0.5524330000000  0.5152050000000  0.4542550000000 1.0
C      1  0.5137190000000  0.5145880000000  0.5656560000000 1.0
C      1  0.4317670000000  0.5185510000000  0.4839770000000 1.0
C      1  0.4584100000000  0.5336030000000  0.4407170000000 1.0
C      1  0.5656500000000  0.5327490000000  0.5000590000000 1.0
C      1  0.4672840000000  0.5358880000000  0.5639230000000 1.0
C      1  0.4961620000000  0.4934320000000  0.5220250000000 1.0
C      1  0.4901760000000  0.4908230000000  0.4940830000000 1.0
C      1  0.5173080000000  0.4934050000000  0.4873670000000 1.0
END
