TITL C-2441165-58-1463 0.0791896647867384 125000 -18829.2845304479 0 0 137 (C1) n - 1
REM
REM in /home/bkarasulu/work/CARBON/AIRSS/Generating-Clusters/ReaxFF-fromJPCA2015/Units_Real/with-SteepDescent/Higher-Symm
REM
REM
REM
REM
REM
REM ./C.cell (1df0a924f5614ab8850e4351716899ee)
REM
REM compiler GCC version 9.2.1 20190827 (Red Hat 9.2.1-1)
REM options -cpp -mtune=generic -march=x86-64 -g -O0 -fpre-include=/usr/include/finclude/math-vector-fortran.h
REM seed 1499784207 991669509 -230653116 1739486636 -1771795168 837356096 -183909408 -919167883 -1419916159 -970482113 -1268068793 1309850063 -1250825251 1672524994 857146501 498167271 34609149 473663950 439069117 -809266552 -1388015260 -920576618 -1950979469 1422822939 -162424400 925964732 1788539272 646579022 2101941742 -1651109956 -1923028842 487634055 -1211922371
REM
CELL 1.54180   50.00000   50.00000   50.00000   90.00000   90.00000   90.00000
LATT -1
SFAC C  
C      1  0.5358590000000  0.4371520000000  0.4820460000000 1.0
C      1  0.4272230000000  0.4841160000000  0.5338190000000 1.0
C      1  0.4863660000000  0.5313540000000  0.4400530000000 1.0
C      1  0.4812680000000  0.5570600000000  0.4851650000000 1.0
C      1  0.5296220000000  0.5598000000000  0.5140390000000 1.0
C      1  0.4689500000000  0.4401500000000  0.5117640000000 1.0
C      1  0.5596960000000  0.5133540000000  0.5303810000000 1.0
C      1  0.4388810000000  0.5143340000000  0.4711210000000 1.0
C      1  0.5596430000000  0.4835850000000  0.4817750000000 1.0
C      1  0.5147270000000  0.4797720000000  0.4376120000000 1.0
C      1  0.4831960000000  0.4786050000000  0.5551920000000 1.0
C      1  0.5136420000000  0.5263830000000  0.5609950000000 1.0
C      1  0.5512240000000  0.5220600000000  0.4343350000000 1.0
C      1  0.5358660000000  0.4425560000000  0.5614650000000 1.0
C      1  0.4358000000000  0.5517530000000  0.5218500000000 1.0
C      1  0.4360830000000  0.4611500000000  0.4417440000000 1.0
C      1  0.5536590000000  0.4675390000000  0.5655900000000 1.0
C      1  0.4489030000000  0.5160690000000  0.5639880000000 1.0
C      1  0.4805350000000  0.5623930000000  0.5518730000000 1.0
C      1  0.5337450000000  0.5656590000000  0.4436420000000 1.0
C      1  0.4795400000000  0.4333800000000  0.4464520000000 1.0
C      1  0.5661770000000  0.4487270000000  0.5233500000000 1.0
C      1  0.4336330000000  0.4433450000000  0.4665550000000 1.0
C      1  0.5580360000000  0.5630990000000  0.4619820000000 1.0
C      1  0.5902010000000  0.4825810000000  0.5289550000000 1.0
C      1  0.4815790000000  0.5284070000000  0.5924710000000 1.0
C      1  0.5310640000000  0.5919450000000  0.4819890000000 1.0
C      1  0.4042000000000  0.5224880000000  0.5264010000000 1.0
C      1  0.5880020000000  0.5197070000000  0.4676930000000 1.0
C      1  0.4075520000000  0.4805880000000  0.4697710000000 1.0
C      1  0.5189240000000  0.4686610000000  0.5915730000000 1.0
C      1  0.4791660000000  0.4663240000000  0.4106380000000 1.0
C      1  0.5176620000000  0.5281840000000  0.4101630000000 1.0
C      1  0.4705260000000  0.4087950000000  0.4843360000000 1.0
C      1  0.5336840000000  0.4107230000000  0.5176350000000 1.0
C      1  0.4711430000000  0.5910840000000  0.5181740000000 1.0
C      1  0.5472880000000  0.5259790000000  0.4904110000000 1.0
C      1  0.5163180000000  0.4959450000000  0.5333280000000 1.0
C      1  0.4888370000000  0.5437720000000  0.5308170000000 1.0
C      1  0.4654540000000  0.4863570000000  0.4970820000000 1.0
C      1  0.5484200000000  0.4710530000000  0.5067130000000 1.0
C      1  0.4506620000000  0.5285510000000  0.5130180000000 1.0
C      1  0.4711060000000  0.5026320000000  0.5453930000000 1.0
C      1  0.5283640000000  0.5089750000000  0.4507930000000 1.0
C      1  0.4723710000000  0.4898520000000  0.4515570000000 1.0
C      1  0.5102970000000  0.4487970000000  0.5228870000000 1.0
C      1  0.4851480000000  0.4523680000000  0.4673670000000 1.0
C      1  0.5062310000000  0.5465190000000  0.4767280000000 1.0
C      1  0.4322330000000  0.5158420000000  0.4409770000000 1.0
C      1  0.5173410000000  0.4519130000000  0.4287500000000 1.0
C      1  0.4398710000000  0.4278710000000  0.5123890000000 1.0
C      1  0.5688070000000  0.4820550000000  0.4419900000000 1.0
C      1  0.4275570000000  0.4974760000000  0.5595440000000 1.0
C      1  0.5690830000000  0.5128850000000  0.5612820000000 1.0
C      1  0.4862440000000  0.5615540000000  0.4303410000000 1.0
C      1  0.5155970000000  0.5530780000000  0.5712690000000 1.0
C      1  0.4836330000000  0.4401200000000  0.5661750000000 1.0
C      1  0.5588540000000  0.5671480000000  0.5166920000000 1.0
C      1  0.4384670000000  0.5734390000000  0.4838410000000 1.0
C      1  0.5654910000000  0.4298020000000  0.4863250000000 1.0
C      1  0.4912770000000  0.4417530000000  0.4207830000000 1.0
C      1  0.4451010000000  0.4219980000000  0.4827210000000 1.0
C      1  0.4204310000000  0.4847590000000  0.4440900000000 1.0
C      1  0.5168850000000  0.5536580000000  0.4235570000000 1.0
C      1  0.4874160000000  0.5540070000000  0.5793860000000 1.0
C      1  0.5122930000000  0.4444000000000  0.5773320000000 1.0
C      1  0.5564700000000  0.5794180000000  0.4856250000000 1.0
C      1  0.4456580000000  0.5777030000000  0.5117710000000 1.0
C      1  0.5605840000000  0.4215720000000  0.5138240000000 1.0
C      1  0.5768360000000  0.5105130000000  0.4427570000000 1.0
C      1  0.4153580000000  0.5206750000000  0.5525000000000 1.0
C      1  0.5752840000000  0.4833270000000  0.5540350000000 1.0
C      1  0.4856840000000  0.4161930000000  0.5092430000000 1.0
C      1  0.4157570000000  0.5029400000000  0.4861050000000 1.0
C      1  0.4979300000000  0.4877650000000  0.4146440000000 1.0
C      1  0.5146760000000  0.5856130000000  0.5073090000000 1.0
C      1  0.4859300000000  0.5843410000000  0.4945120000000 1.0
C      1  0.5150920000000  0.4118360000000  0.4947410000000 1.0
C      1  0.5834440000000  0.4989800000000  0.4874570000000 1.0
C      1  0.4106880000000  0.4978600000000  0.5139900000000 1.0
C      1  0.5852630000000  0.5095760000000  0.5152370000000 1.0
C      1  0.4890920000000  0.5156470000000  0.4143780000000 1.0
C      1  0.5054990000000  0.5136650000000  0.5856330000000 1.0
C      1  0.4934360000000  0.4850930000000  0.5834260000000 1.0
C      1  0.4740540000000  0.4598950000000  0.4924600000000 1.0
C      1  0.4614300000000  0.4998830000000  0.4735900000000 1.0
C      1  0.4961930000000  0.4777140000000  0.4609270000000 1.0
C      1  0.5240400000000  0.5390700000000  0.4976950000000 1.0
C      1  0.4762750000000  0.5385700000000  0.5058770000000 1.0
C      1  0.5226460000000  0.4595600000000  0.4991380000000 1.0
C      1  0.5377410000000  0.5021100000000  0.4781660000000 1.0
C      1  0.4552850000000  0.5002870000000  0.5202910000000 1.0
C      1  0.5410900000000  0.4936350000000  0.5236700000000 1.0
C      1  0.5060770000000  0.5255320000000  0.4583350000000 1.0
C      1  0.4986280000000  0.5187020000000  0.5395370000000 1.0
C      1  0.5027240000000  0.4722670000000  0.5364130000000 1.0
C      1  0.5359620000000  0.4253780000000  0.4554610000000 1.0
C      1  0.4228860000000  0.4564810000000  0.5383890000000 1.0
C      1  0.4569360000000  0.5512350000000  0.4201890000000 1.0
C      1  0.4543270000000  0.5782650000000  0.4593560000000 1.0
C      1  0.5450640000000  0.5813350000000  0.5449670000000 1.0
C      1  0.4501300000000  0.4219970000000  0.5426340000000 1.0
C      1  0.5770750000000  0.5432820000000  0.5518100000000 1.0
C      1  0.4193590000000  0.5439810000000  0.4521800000000 1.0
C      1  0.5763330000000  0.4556640000000  0.4541120000000 1.0
C      1  0.5439500000000  0.4547250000000  0.4180760000000 1.0
C      1  0.4593620000000  0.4546810000000  0.5775810000000 1.0
C      1  0.5414470000000  0.5446470000000  0.5820780000000 1.0
C      1  0.5789920000000  0.5464540000000  0.5237570000000 1.0
C      1  0.5469170000000  0.5153920000000  0.5813650000000 1.0
C      1  0.5188220000000  0.5917290000000  0.5381690000000 1.0
C      1  0.4182340000000  0.4471100000000  0.5122240000000 1.0
C      1  0.5858370000000  0.4496280000000  0.4815080000000 1.0
C      1  0.4178630000000  0.5525180000000  0.4803300000000 1.0
C      1  0.4638620000000  0.4799310000000  0.5918890000000 1.0
C      1  0.5519190000000  0.4829050000000  0.4175440000000 1.0
C      1  0.4528120000000  0.5231500000000  0.4202560000000 1.0
C      1  0.4781490000000  0.4202310000000  0.5450650000000 1.0
C      1  0.5155260000000  0.4065400000000  0.4647660000000 1.0
C      1  0.4827920000000  0.5813050000000  0.4526370000000 1.0
C      1  0.5140830000000  0.5790780000000  0.4612610000000 1.0
C      1  0.5894760000000  0.4591570000000  0.5104790000000 1.0
C      1  0.4591200000000  0.5087060000000  0.5906160000000 1.0
C      1  0.4867080000000  0.4084070000000  0.4597560000000 1.0
C      1  0.5232720000000  0.4283690000000  0.5383910000000 1.0
C      1  0.4897800000000  0.5884280000000  0.5415080000000 1.0
C      1  0.4112470000000  0.5448240000000  0.5081330000000 1.0
C      1  0.5691290000000  0.5402760000000  0.4775950000000 1.0
C      1  0.4154210000000  0.4559960000000  0.4846360000000 1.0
C      1  0.5413170000000  0.4861410000000  0.5844700000000 1.0
C      1  0.4587190000000  0.4761990000000  0.4297050000000 1.0
C      1  0.5415190000000  0.5099890000000  0.4100540000000 1.0
C      1  0.4392100000000  0.4434500000000  0.5588280000000 1.0
C      1  0.5566030000000  0.4391540000000  0.4399410000000 1.0
C      1  0.4380760000000  0.5626350000000  0.4400090000000 1.0
C      1  0.5569210000000  0.5617250000000  0.5634590000000 1.0
C      1  0.5098240000000  0.4879650000000  0.4895330000000 1.0
END
