TITL C-2441159-1093-453 0.0691617877406664 125000 -20072.4315467053 0 0 140 (C1) n - 1
REM
REM in /home/bkarasulu/work/CARBON/AIRSS/Generating-Clusters/ReaxFF-fromJPCA2015/Units_Real/with-SteepDescent/Higher-Symm
REM
REM
REM
REM
REM
REM ./C.cell (1df0a924f5614ab8850e4351716899ee)
REM
REM compiler GCC version 9.2.1 20190827 (Red Hat 9.2.1-1)
REM options -cpp -mtune=generic -march=x86-64 -g -O0 -fpre-include=/usr/include/finclude/math-vector-fortran.h
REM seed -149964814 1152932522 -198921512 -398695301 271575557 -1491263780 -2098847688 683807910 -910457997 -956805102 1690525213 -2022763058 -897115237 1517506277 -1344597853 -666072898 -626394794 -1291136887 2052410097 1829550618 1067482608 -1568306337 1727176388 854245550 248218397 126037805 -1565556930 -974620671 2125648459 -1852843791 385508649 -648567386 1764823607
REM
CELL 1.54180   50.00000   50.00000   50.00000   90.00000   90.00000   90.00000
LATT -1
SFAC C  
C      1  0.4673830000000  0.4972960000000  0.4092430000000 1.0
C      1  0.4670040000000  0.4281000000000  0.4447270000000 1.0
C      1  0.4700300000000  0.4123410000000  0.5242260000000 1.0
C      1  0.4669930000000  0.4635620000000  0.5816510000000 1.0
C      1  0.4687380000000  0.5438810000000  0.5798710000000 1.0
C      1  0.4664350000000  0.5865200000000  0.5179160000000 1.0
C      1  0.4684990000000  0.5706860000000  0.4422300000000 1.0
C      1  0.4825930000000  0.5689120000000  0.5789790000000 1.0
C      1  0.4767510000000  0.6083360000000  0.5012760000000 1.0
C      1  0.4832600000000  0.5633060000000  0.4192200000000 1.0
C      1  0.4806050000000  0.4755850000000  0.3971290000000 1.0
C      1  0.4806000000000  0.4055120000000  0.4557120000000 1.0
C      1  0.4824170000000  0.4074860000000  0.5500840000000 1.0
C      1  0.4773340000000  0.4795650000000  0.6041530000000 1.0
C      1  0.5775350000000  0.4895950000000  0.4544430000000 1.0
C      1  0.5833890000000  0.4481700000000  0.4750430000000 1.0
C      1  0.5828660000000  0.4496810000000  0.5041220000000 1.0
C      1  0.5687900000000  0.4840640000000  0.5448130000000 1.0
C      1  0.5857550000000  0.5347060000000  0.5378560000000 1.0
C      1  0.5815900000000  0.5523310000000  0.5149790000000 1.0
C      1  0.5751910000000  0.5370510000000  0.4679860000000 1.0
C      1  0.4742010000000  0.4680910000000  0.4945480000000 1.0
C      1  0.4777930000000  0.4730640000000  0.5221060000000 1.0
C      1  0.4713440000000  0.4993020000000  0.5352930000000 1.0
C      1  0.4800760000000  0.5252930000000  0.5218090000000 1.0
C      1  0.4744020000000  0.5345100000000  0.4949460000000 1.0
C      1  0.4723040000000  0.5168490000000  0.4721540000000 1.0
C      1  0.4671790000000  0.4862570000000  0.4720730000000 1.0
C      1  0.4290050000000  0.5299410000000  0.4849460000000 1.0
C      1  0.4281880000000  0.5078430000000  0.4667990000000 1.0
C      1  0.4320740000000  0.4792620000000  0.4740250000000 1.0
C      1  0.4280550000000  0.4664590000000  0.5011390000000 1.0
C      1  0.4279090000000  0.4789890000000  0.5264690000000 1.0
C      1  0.4341160000000  0.5073080000000  0.5321990000000 1.0
C      1  0.4295190000000  0.5298490000000  0.5137380000000 1.0
C      1  0.5585950000000  0.4709680000000  0.5684610000000 1.0
C      1  0.5725190000000  0.5396390000000  0.5640380000000 1.0
C      1  0.5610820000000  0.5726390000000  0.5142760000000 1.0
C      1  0.5613380000000  0.5509970000000  0.4480340000000 1.0
C      1  0.5687540000000  0.4885560000000  0.4281870000000 1.0
C      1  0.5643380000000  0.4337920000000  0.4593080000000 1.0
C      1  0.5699520000000  0.4281040000000  0.5198190000000 1.0
C      1  0.5100840000000  0.4754740000000  0.3944950000000 1.0
C      1  0.5099940000000  0.4074800000000  0.4525940000000 1.0
C      1  0.5109600000000  0.4111680000000  0.5535100000000 1.0
C      1  0.5073180000000  0.4831620000000  0.6044110000000 1.0
C      1  0.5110390000000  0.5682970000000  0.5721960000000 1.0
C      1  0.5059060000000  0.6146820000000  0.5067360000000 1.0
C      1  0.5125930000000  0.5635260000000  0.4226000000000 1.0
C      1  0.5112460000000  0.5295920000000  0.5877460000000 1.0
C      1  0.5146770000000  0.5911630000000  0.5242850000000 1.0
C      1  0.5066910000000  0.5956670000000  0.4573560000000 1.0
C      1  0.5139100000000  0.5154940000000  0.4070770000000 1.0
C      1  0.5159190000000  0.4277670000000  0.4176560000000 1.0
C      1  0.5259540000000  0.4033870000000  0.5066060000000 1.0
C      1  0.5145750000000  0.4493850000000  0.5836650000000 1.0
C      1  0.5496010000000  0.5751880000000  0.5421080000000 1.0
C      1  0.5449510000000  0.5696790000000  0.4613100000000 1.0
C      1  0.5546830000000  0.5097970000000  0.4148890000000 1.0
C      1  0.5455340000000  0.4452330000000  0.4402190000000 1.0
C      1  0.5548590000000  0.4086320000000  0.5043130000000 1.0
C      1  0.5503460000000  0.4427970000000  0.5639210000000 1.0
C      1  0.5629060000000  0.5192950000000  0.5844310000000 1.0
C      1  0.5508380000000  0.4735510000000  0.5250490000000 1.0
C      1  0.5712000000000  0.5104610000000  0.5317180000000 1.0
C      1  0.5530290000000  0.5178970000000  0.5103930000000 1.0
C      1  0.5689250000000  0.5365500000000  0.4952100000000 1.0
C      1  0.5762140000000  0.5112670000000  0.4650750000000 1.0
C      1  0.5682920000000  0.4732410000000  0.4749920000000 1.0
C      1  0.5685730000000  0.4749020000000  0.5036280000000 1.0
C      1  0.4406280000000  0.5775630000000  0.5110020000000 1.0
C      1  0.4436440000000  0.5585980000000  0.4454760000000 1.0
C      1  0.4424100000000  0.4932620000000  0.4212950000000 1.0
C      1  0.4417720000000  0.4336420000000  0.4561170000000 1.0
C      1  0.4430620000000  0.4237600000000  0.5246630000000 1.0
C      1  0.4410160000000  0.4722190000000  0.5742640000000 1.0
C      1  0.4430920000000  0.5409900000000  0.5689100000000 1.0
C      1  0.4636290000000  0.4253810000000  0.5625710000000 1.0
C      1  0.4641850000000  0.5042560000000  0.5973620000000 1.0
C      1  0.4638040000000  0.5783240000000  0.5593130000000 1.0
C      1  0.4632660000000  0.5960410000000  0.4783590000000 1.0
C      1  0.4677450000000  0.5402190000000  0.4125790000000 1.0
C      1  0.4655360000000  0.4569990000000  0.4135400000000 1.0
C      1  0.4667090000000  0.4058390000000  0.4812280000000 1.0
C      1  0.5462360000000  0.4951760000000  0.5806270000000 1.0
C      1  0.5471300000000  0.5501070000000  0.5559380000000 1.0
C      1  0.5430370000000  0.5725420000000  0.4912990000000 1.0
C      1  0.5525900000000  0.5371250000000  0.4240620000000 1.0
C      1  0.5463800000000  0.4714530000000  0.4283350000000 1.0
C      1  0.5506680000000  0.4160970000000  0.4767590000000 1.0
C      1  0.5469710000000  0.4337100000000  0.5364590000000 1.0
C      1  0.4388330000000  0.5635230000000  0.5528240000000 1.0
C      1  0.4395000000000  0.5803170000000  0.4844190000000 1.0
C      1  0.4423650000000  0.5376060000000  0.4264620000000 1.0
C      1  0.4398970000000  0.4660080000000  0.4253970000000 1.0
C      1  0.4412410000000  0.4208530000000  0.4802480000000 1.0
C      1  0.4387620000000  0.4346050000000  0.5501830000000 1.0
C      1  0.4403970000000  0.4987250000000  0.5819280000000 1.0
C      1  0.4323970000000  0.5129110000000  0.4388480000000 1.0
C      1  0.4314490000000  0.4592010000000  0.4519850000000 1.0
C      1  0.4319680000000  0.4378150000000  0.5017870000000 1.0
C      1  0.4302870000000  0.4622370000000  0.5497610000000 1.0
C      1  0.4329800000000  0.5157900000000  0.5605540000000 1.0
C      1  0.4310290000000  0.5559640000000  0.5255970000000 1.0
C      1  0.4323480000000  0.5558130000000  0.4715390000000 1.0
C      1  0.5165300000000  0.5306910000000  0.4874080000000 1.0
C      1  0.5152910000000  0.5116130000000  0.4657680000000 1.0
C      1  0.5135400000000  0.4813680000000  0.4695650000000 1.0
C      1  0.5161420000000  0.4647540000000  0.4929600000000 1.0
C      1  0.5206650000000  0.4727650000000  0.5228400000000 1.0
C      1  0.5144350000000  0.5008260000000  0.5334660000000 1.0
C      1  0.5245600000000  0.5218840000000  0.5149930000000 1.0
C      1  0.4953680000000  0.4543150000000  0.5361040000000 1.0
C      1  0.4944120000000  0.4983680000000  0.5546670000000 1.0
C      1  0.4948570000000  0.5447090000000  0.5371800000000 1.0
C      1  0.4962000000000  0.5537170000000  0.4873940000000 1.0
C      1  0.4916860000000  0.5198080000000  0.4511930000000 1.0
C      1  0.4890340000000  0.4738920000000  0.4550440000000 1.0
C      1  0.4935690000000  0.4463140000000  0.4907870000000 1.0
C      1  0.5169100000000  0.5694800000000  0.5039890000000 1.0
C      1  0.5246160000000  0.5783130000000  0.4437540000000 1.0
C      1  0.5275260000000  0.4907410000000  0.4147640000000 1.0
C      1  0.5207960000000  0.4316130000000  0.4442910000000 1.0
C      1  0.5200700000000  0.4231590000000  0.5283080000000 1.0
C      1  0.5076660000000  0.4752680000000  0.5761140000000 1.0
C      1  0.5183610000000  0.5416360000000  0.5616920000000 1.0
C      1  0.5237000000000  0.5855910000000  0.5516140000000 1.0
C      1  0.5117510000000  0.6098950000000  0.4802390000000 1.0
C      1  0.5266560000000  0.5406560000000  0.4137490000000 1.0
C      1  0.5136210000000  0.4486900000000  0.4021870000000 1.0
C      1  0.5243250000000  0.4066870000000  0.4774180000000 1.0
C      1  0.5267060000000  0.4262990000000  0.5736580000000 1.0
C      1  0.5253000000000  0.5064540000000  0.5986620000000 1.0
C      1  0.4826840000000  0.4517880000000  0.4370340000000 1.0
C      1  0.4847450000000  0.4190460000000  0.4997980000000 1.0
C      1  0.4805320000000  0.4485190000000  0.5606260000000 1.0
C      1  0.4841260000000  0.5204050000000  0.5821580000000 1.0
C      1  0.4809700000000  0.5700440000000  0.5373160000000 1.0
C      1  0.4828300000000  0.5788840000000  0.4645180000000 1.0
C      1  0.4855460000000  0.5180070000000  0.4188430000000 1.0
END
