TITL C-2441164-471-786 -1.2735740746574e-09 125000 -616.374149786112 0 0 5 (D(inf)h) n - 1
REM
REM in /home/bkarasulu/work/CARBON/AIRSS/Generating-Clusters/ReaxFF-fromJPCA2015/Units_Real/with-SteepDescent/Higher-Symm
REM
REM
REM
REM
REM
REM ./C.cell (1df0a924f5614ab8850e4351716899ee)
REM
REM compiler GCC version 9.2.1 20190827 (Red Hat 9.2.1-1)
REM options -cpp -mtune=generic -march=x86-64 -g -O0 -fpre-include=/usr/include/finclude/math-vector-fortran.h
REM seed 1059465017 1643969719 -1754554816 -754281224 1201468346 1333939081 -1735740331 286342557 -1287309104 -1142645597 998392908 1741991445 1113147763 1706515928 1335257301 1314842482 1783918869 1145030844 1222975053 -975923214 1910852792 2064678950 1218963794 -719801743 -23345157 -128382451 -990090853 -1368896562 -491435549 -1864567130 7038976 -471939199 237164666
REM
CELL 1.54180   50.00000   50.00000   50.00000   90.00000   90.00000   90.00000
LATT -1
SFAC C  
C      1  0.5257130000000  0.5009500000000  0.4997820000000 1.0
C      1  0.5000000000000  0.5009500000000  0.4997820000000 1.0
C      1  0.4742870000000  0.5009500000000  0.4997820000000 1.0
C      1  0.4498650000000  0.5009500000000  0.4997820000000 1.0
C      1  0.5501350000000  0.5009500000000  0.4997820000000 1.0
END
