TITL C-2441163-1170-1042 0.00379262617469461 125000 -4854.65085099201 0 0 35 (C1) n - 1
REM
REM in /home/bkarasulu/work/CARBON/AIRSS/Generating-Clusters/ReaxFF-fromJPCA2015/Units_Real/with-SteepDescent/Higher-Symm
REM
REM
REM
REM
REM
REM ./C.cell (1df0a924f5614ab8850e4351716899ee)
REM
REM compiler GCC version 9.2.1 20190827 (Red Hat 9.2.1-1)
REM options -cpp -mtune=generic -march=x86-64 -g -O0 -fpre-include=/usr/include/finclude/math-vector-fortran.h
REM seed -1736739717 -736142386 963952245 -452455559 -328948467 -204554751 52287157 1569157486 763057226 989497817 -1238460488 -877268747 513779574 1742131114 1660011909 -252931407 805903140 -776238565 211848754 1208191546 -944557549 848389974 2072119357 686643131 -56829732 123181788 -733761186 -465149322 -1660057498 -187250123 574606300 1113979481 -61468804
REM
CELL 1.54180   50.00000   50.00000   50.00000   90.00000   90.00000   90.00000
LATT -1
SFAC C  
C      1  0.5109370000000  0.4484550000000  0.5159490000000 1.0
C      1  0.4830340000000  0.4351650000000  0.4773500000000 1.0
C      1  0.5517030000000  0.4999050000000  0.4561540000000 1.0
C      1  0.4932410000000  0.5409740000000  0.5235880000000 1.0
C      1  0.4731400000000  0.4436800000000  0.4551030000000 1.0
C      1  0.5355740000000  0.5218290000000  0.4442100000000 1.0
C      1  0.5090870000000  0.5518580000000  0.4563130000000 1.0
C      1  0.5055620000000  0.5240770000000  0.4462850000000 1.0
C      1  0.4998500000000  0.4913300000000  0.4847450000000 1.0
C      1  0.4955240000000  0.4376530000000  0.4997630000000 1.0
C      1  0.5431230000000  0.4835200000000  0.5412140000000 1.0
C      1  0.4847170000000  0.5144390000000  0.5285850000000 1.0
C      1  0.4498900000000  0.4777440000000  0.5314460000000 1.0
C      1  0.5376760000000  0.5460520000000  0.4629820000000 1.0
C      1  0.4894490000000  0.5054260000000  0.4617510000000 1.0
C      1  0.4932720000000  0.5616010000000  0.4782920000000 1.0
C      1  0.4611130000000  0.4818880000000  0.5570630000000 1.0
C      1  0.4875540000000  0.4679460000000  0.5676530000000 1.0
C      1  0.4533030000000  0.5300120000000  0.4858520000000 1.0
C      1  0.5259510000000  0.4781410000000  0.4916600000000 1.0
C      1  0.5299420000000  0.5018820000000  0.5586430000000 1.0
C      1  0.4773560000000  0.5069790000000  0.5560950000000 1.0
C      1  0.5449500000000  0.5353660000000  0.4881820000000 1.0
C      1  0.4968260000000  0.5617560000000  0.5058560000000 1.0
C      1  0.4550940000000  0.4801070000000  0.5046280000000 1.0
C      1  0.4819080000000  0.4932220000000  0.5080930000000 1.0
C      1  0.5471570000000  0.5116150000000  0.5366390000000 1.0
C      1  0.5016120000000  0.4944230000000  0.5674930000000 1.0
C      1  0.5293940000000  0.4673230000000  0.5189840000000 1.0
C      1  0.4589520000000  0.5094800000000  0.4676980000000 1.0
C      1  0.5500630000000  0.4943540000000  0.4856030000000 1.0
C      1  0.4855450000000  0.5383370000000  0.4936320000000 1.0
C      1  0.4593180000000  0.4634330000000  0.4600490000000 1.0
C      1  0.5511820000000  0.5172890000000  0.5070010000000 1.0
C      1  0.4470030000000  0.4827400000000  0.4754490000000 1.0
END
