TITL C-2441161-5029-1257 0.0180512545006041 125000 -13408.5392284721 0 0 93 (C1) n - 1
REM
REM in /home/bkarasulu/work/CARBON/AIRSS/Generating-Clusters/ReaxFF-fromJPCA2015/Units_Real/with-SteepDescent/Higher-Symm
REM
REM
REM
REM
REM
REM ./C.cell (1df0a924f5614ab8850e4351716899ee)
REM
REM compiler GCC version 9.2.1 20190827 (Red Hat 9.2.1-1)
REM options -cpp -mtune=generic -march=x86-64 -g -O0 -fpre-include=/usr/include/finclude/math-vector-fortran.h
REM seed 1894606447 496608 -831675574 1982385162 -175193525 1408600956 -722604319 1647440673 -1559806487 437838242 -742373428 1945422331 1914247225 490905217 -1590099649 -92119558 2146476123 1536995764 232789163 -1949873833 -1844234384 685150141 2083327956 -1538538639 2053747465 -2115738116 -258190391 -1925806345 -1635258659 1311845956 1377481162 1141401053 422904333
REM
CELL 1.54180   50.00000   50.00000   50.00000   90.00000   90.00000   90.00000
LATT -1
SFAC C  
C      1  0.4499890000000  0.5693490000000  0.4651380000000 1.0
C      1  0.4489340000000  0.5324650000000  0.5669850000000 1.0
C      1  0.4567770000000  0.4346170000000  0.5347510000000 1.0
C      1  0.4548570000000  0.4637080000000  0.4344510000000 1.0
C      1  0.5446830000000  0.4701360000000  0.4413140000000 1.0
C      1  0.5438530000000  0.5477400000000  0.4667910000000 1.0
C      1  0.5408030000000  0.5308380000000  0.5596650000000 1.0
C      1  0.5406950000000  0.4413030000000  0.5325170000000 1.0
C      1  0.5311350000000  0.5555740000000  0.4423700000000 1.0
C      1  0.5320270000000  0.5578470000000  0.5565440000000 1.0
C      1  0.5276060000000  0.4452260000000  0.5591480000000 1.0
C      1  0.5279300000000  0.4453600000000  0.4437370000000 1.0
C      1  0.4513710000000  0.5559020000000  0.4365400000000 1.0
C      1  0.4526420000000  0.5605130000000  0.5531000000000 1.0
C      1  0.4555850000000  0.4515800000000  0.5614830000000 1.0
C      1  0.4589850000000  0.4370550000000  0.4513620000000 1.0
C      1  0.5217830000000  0.4668050000000  0.4889390000000 1.0
C      1  0.5192770000000  0.5026080000000  0.4661190000000 1.0
C      1  0.5193520000000  0.5276190000000  0.5116960000000 1.0
C      1  0.5260720000000  0.4877730000000  0.5313900000000 1.0
C      1  0.5027770000000  0.5622650000000  0.5433630000000 1.0
C      1  0.4999180000000  0.4555970000000  0.5549460000000 1.0
C      1  0.4994330000000  0.4512580000000  0.4532090000000 1.0
C      1  0.5024630000000  0.5424410000000  0.4373380000000 1.0
C      1  0.5005970000000  0.5808330000000  0.5191330000000 1.0
C      1  0.5107430000000  0.4979050000000  0.5730950000000 1.0
C      1  0.4916990000000  0.4125780000000  0.4802470000000 1.0
C      1  0.4999700000000  0.5156650000000  0.4202470000000 1.0
C      1  0.4285510000000  0.4500080000000  0.4909740000000 1.0
C      1  0.4326960000000  0.5112400000000  0.4503700000000 1.0
C      1  0.4269940000000  0.5503280000000  0.5098750000000 1.0
C      1  0.4236740000000  0.4908360000000  0.5442720000000 1.0
C      1  0.4393720000000  0.4772100000000  0.4951650000000 1.0
C      1  0.4427010000000  0.5178810000000  0.4776300000000 1.0
C      1  0.4247030000000  0.5212070000000  0.5005650000000 1.0
C      1  0.4251270000000  0.4949690000000  0.5130230000000 1.0
C      1  0.5343030000000  0.4243200000000  0.5099680000000 1.0
C      1  0.5361030000000  0.4928300000000  0.4246970000000 1.0
C      1  0.5201930000000  0.5729130000000  0.4986660000000 1.0
C      1  0.5395030000000  0.5064330000000  0.5751860000000 1.0
C      1  0.4774850000000  0.4887780000000  0.5183070000000 1.0
C      1  0.4712340000000  0.4822400000000  0.4902840000000 1.0
C      1  0.4712440000000  0.5182000000000  0.4841660000000 1.0
C      1  0.4752450000000  0.5169010000000  0.5135260000000 1.0
C      1  0.4966130000000  0.5294850000000  0.5286770000000 1.0
C      1  0.4992220000000  0.4779770000000  0.5355970000000 1.0
C      1  0.4945040000000  0.4656460000000  0.4786810000000 1.0
C      1  0.4955380000000  0.5369600000000  0.4713330000000 1.0
C      1  0.5741240000000  0.4955620000000  0.5362800000000 1.0
C      1  0.5742440000000  0.4568910000000  0.4938790000000 1.0
C      1  0.5751570000000  0.5032770000000  0.4572450000000 1.0
C      1  0.5669350000000  0.5373680000000  0.5014250000000 1.0
C      1  0.5360010000000  0.4659840000000  0.5158880000000 1.0
C      1  0.5372000000000  0.4812040000000  0.4687020000000 1.0
C      1  0.5209500000000  0.5274930000000  0.4816780000000 1.0
C      1  0.5381880000000  0.5169260000000  0.5297880000000 1.0
C      1  0.5546730000000  0.5393500000000  0.4406040000000 1.0
C      1  0.5444940000000  0.5629370000000  0.5320800000000 1.0
C      1  0.5457370000000  0.4656300000000  0.5664900000000 1.0
C      1  0.5434600000000  0.4357720000000  0.4644520000000 1.0
C      1  0.4331180000000  0.5598290000000  0.4847500000000 1.0
C      1  0.4322300000000  0.5144610000000  0.5561790000000 1.0
C      1  0.4369410000000  0.4419590000000  0.5165390000000 1.0
C      1  0.4379980000000  0.4848230000000  0.4414710000000 1.0
C      1  0.5554560000000  0.4336010000000  0.4894130000000 1.0
C      1  0.5580330000000  0.5098760000000  0.4345210000000 1.0
C      1  0.5492780000000  0.5632970000000  0.5043160000000 1.0
C      1  0.5610070000000  0.4886080000000  0.5633000000000 1.0
C      1  0.4797820000000  0.4619460000000  0.5754530000000 1.0
C      1  0.4854070000000  0.4257460000000  0.4539750000000 1.0
C      1  0.4779330000000  0.5554200000000  0.4303700000000 1.0
C      1  0.4777380000000  0.5729730000000  0.5526740000000 1.0
C      1  0.5801280000000  0.5209940000000  0.4803740000000 1.0
C      1  0.5674020000000  0.5213150000000  0.5255680000000 1.0
C      1  0.5815980000000  0.4751310000000  0.5164210000000 1.0
C      1  0.5813610000000  0.4783810000000  0.4738120000000 1.0
C      1  0.4728450000000  0.5154640000000  0.5743270000000 1.0
C      1  0.4784990000000  0.4215910000000  0.5189930000000 1.0
C      1  0.4751050000000  0.4823170000000  0.4251430000000 1.0
C      1  0.4734110000000  0.5781280000000  0.4815040000000 1.0
C      1  0.4655890000000  0.4142200000000  0.4934200000000 1.0
C      1  0.4714590000000  0.5095490000000  0.4181230000000 1.0
C      1  0.4722230000000  0.5798770000000  0.5108220000000 1.0
C      1  0.4847450000000  0.4896530000000  0.5853420000000 1.0
C      1  0.4493400000000  0.5646560000000  0.5238510000000 1.0
C      1  0.4426660000000  0.4752400000000  0.5586470000000 1.0
C      1  0.4465840000000  0.4307560000000  0.4766990000000 1.0
C      1  0.4490070000000  0.5266370000000  0.4307050000000 1.0
C      1  0.5097500000000  0.4956980000000  0.4391460000000 1.0
C      1  0.4995130000000  0.5647390000000  0.4796750000000 1.0
C      1  0.4959550000000  0.5182840000000  0.5575450000000 1.0
C      1  0.5051510000000  0.4232130000000  0.5045890000000 1.0
C      1  0.5779470000000  0.4962920000000  0.4962310000000 1.0
END
