TITL C-2441167-4473-1091 0.0459208347017776 125000 -13670.2710426346 0 0 102 (C1) n - 1
REM
REM in /home/bkarasulu/work/CARBON/AIRSS/Generating-Clusters/ReaxFF-fromJPCA2015/Units_Real/with-SteepDescent/Higher-Symm
REM
REM
REM
REM
REM
REM ./C.cell (1df0a924f5614ab8850e4351716899ee)
REM
REM compiler GCC version 9.2.1 20190827 (Red Hat 9.2.1-1)
REM options -cpp -mtune=generic -march=x86-64 -g -O0 -fpre-include=/usr/include/finclude/math-vector-fortran.h
REM seed -2028980311 1814286909 235273899 858336430 1772506735 -1002547333 -451330990 -168467397 1378253909 -848282968 -110662861 -1219195112 -855182804 -757281027 -1248546614 -857871546 460720038 57565400 -1096822211 479239815 284844892 -828483267 -545171597 1118860347 -401666827 1792398374 -158379785 1764017808 -1001013777 -527484703 -2109775827 617420815 1629597921
REM
CELL 1.54180   50.00000   50.00000   50.00000   90.00000   90.00000   90.00000
LATT -1
SFAC C  
C      1  0.5059750000000  0.5831950000000  0.5048470000000 1.0
C      1  0.5289120000000  0.5110010000000  0.5072060000000 1.0
C      1  0.5288240000000  0.4806300000000  0.4555790000000 1.0
C      1  0.4349560000000  0.4645420000000  0.4465540000000 1.0
C      1  0.4483110000000  0.4678800000000  0.5079590000000 1.0
C      1  0.5438300000000  0.5282470000000  0.5692970000000 1.0
C      1  0.4571920000000  0.5660960000000  0.5220440000000 1.0
C      1  0.4347040000000  0.4445130000000  0.4960670000000 1.0
C      1  0.5791560000000  0.5310320000000  0.5369460000000 1.0
C      1  0.4896420000000  0.4355150000000  0.5443800000000 1.0
C      1  0.5071110000000  0.4667600000000  0.4418640000000 1.0
C      1  0.4760930000000  0.4328020000000  0.4489470000000 1.0
C      1  0.4586670000000  0.5663050000000  0.4584930000000 1.0
C      1  0.5151630000000  0.4965460000000  0.5624610000000 1.0
C      1  0.5504660000000  0.4959670000000  0.5654030000000 1.0
C      1  0.4734080000000  0.5831080000000  0.4774300000000 1.0
C      1  0.4185290000000  0.4959470000000  0.5338330000000 1.0
C      1  0.4489290000000  0.5134410000000  0.4455240000000 1.0
C      1  0.4749960000000  0.5149280000000  0.5436170000000 1.0
C      1  0.5122300000000  0.4147230000000  0.5295130000000 1.0
C      1  0.4598210000000  0.4357960000000  0.5385750000000 1.0
C      1  0.4261560000000  0.4625490000000  0.4740350000000 1.0
C      1  0.5249320000000  0.4689870000000  0.4834180000000 1.0
C      1  0.4616780000000  0.5212960000000  0.5808780000000 1.0
C      1  0.4486950000000  0.4628100000000  0.5382040000000 1.0
C      1  0.4700510000000  0.4705450000000  0.4157990000000 1.0
C      1  0.4750310000000  0.4702990000000  0.4782470000000 1.0
C      1  0.4960130000000  0.5632520000000  0.5529260000000 1.0
C      1  0.4832710000000  0.4984680000000  0.5216980000000 1.0
C      1  0.4303100000000  0.4902280000000  0.5075070000000 1.0
C      1  0.5144910000000  0.4967700000000  0.5308800000000 1.0
C      1  0.4384700000000  0.5394970000000  0.4824290000000 1.0
C      1  0.5672470000000  0.4728190000000  0.4848980000000 1.0
C      1  0.4506420000000  0.5579920000000  0.5490200000000 1.0
C      1  0.4902940000000  0.5400020000000  0.5367000000000 1.0
C      1  0.4891040000000  0.4553620000000  0.4576420000000 1.0
C      1  0.4217080000000  0.4905410000000  0.4803760000000 1.0
C      1  0.5316930000000  0.4522380000000  0.5518250000000 1.0
C      1  0.4998260000000  0.5233960000000  0.4250480000000 1.0
C      1  0.5552840000000  0.4780190000000  0.4377890000000 1.0
C      1  0.4336870000000  0.5144360000000  0.4693450000000 1.0
C      1  0.5261290000000  0.4438010000000  0.4958350000000 1.0
C      1  0.4548190000000  0.4939950000000  0.4113000000000 1.0
C      1  0.4638810000000  0.4992090000000  0.5660360000000 1.0
C      1  0.4725360000000  0.5561800000000  0.5705760000000 1.0
C      1  0.5177730000000  0.5373160000000  0.4960930000000 1.0
C      1  0.5700180000000  0.5058980000000  0.5453830000000 1.0
C      1  0.5500890000000  0.4336860000000  0.5107290000000 1.0
C      1  0.4361820000000  0.4909980000000  0.4320660000000 1.0
C      1  0.4850080000000  0.4522070000000  0.4995830000000 1.0
C      1  0.5143520000000  0.4043290000000  0.5028230000000 1.0
C      1  0.5450420000000  0.5295580000000  0.4466960000000 1.0
C      1  0.5196860000000  0.5447070000000  0.4305640000000 1.0
C      1  0.5632260000000  0.5488840000000  0.5266110000000 1.0
C      1  0.4743740000000  0.5839520000000  0.5066370000000 1.0
C      1  0.4825600000000  0.5349150000000  0.5878530000000 1.0
C      1  0.5174450000000  0.5682080000000  0.4561440000000 1.0
C      1  0.5908670000000  0.5301920000000  0.5130430000000 1.0
C      1  0.5735080000000  0.5183830000000  0.4801270000000 1.0
C      1  0.5014960000000  0.4542190000000  0.5644900000000 1.0
C      1  0.4344170000000  0.5350010000000  0.5390640000000 1.0
C      1  0.4874880000000  0.4165380000000  0.4704390000000 1.0
C      1  0.4716120000000  0.5559670000000  0.4344180000000 1.0
C      1  0.5587290000000  0.5420340000000  0.4710160000000 1.0
C      1  0.5159320000000  0.5010850000000  0.4167920000000 1.0
C      1  0.5560250000000  0.4686960000000  0.5565150000000 1.0
C      1  0.5058070000000  0.5199290000000  0.5811990000000 1.0
C      1  0.5017720000000  0.5815580000000  0.4749350000000 1.0
C      1  0.4778280000000  0.4231310000000  0.4974980000000 1.0
C      1  0.5223190000000  0.5378420000000  0.5841230000000 1.0
C      1  0.5435000000000  0.5466630000000  0.5457100000000 1.0
C      1  0.5231980000000  0.5665930000000  0.5408520000000 1.0
C      1  0.5342320000000  0.5083710000000  0.4637440000000 1.0
C      1  0.5118250000000  0.4918560000000  0.4919450000000 1.0
C      1  0.5426120000000  0.4337680000000  0.4595880000000 1.0
C      1  0.5446890000000  0.5018300000000  0.4258100000000 1.0
C      1  0.5377540000000  0.4261270000000  0.5357760000000 1.0
C      1  0.4571490000000  0.4504950000000  0.4348890000000 1.0
C      1  0.4728520000000  0.5182830000000  0.5039080000000 1.0
C      1  0.4979960000000  0.5512630000000  0.5116500000000 1.0
C      1  0.5750390000000  0.4637750000000  0.5352310000000 1.0
C      1  0.4922490000000  0.4799810000000  0.5692280000000 1.0
C      1  0.5514140000000  0.5004500000000  0.4854930000000 1.0
C      1  0.5189050000000  0.4200630000000  0.4745440000000 1.0
C      1  0.4637480000000  0.5409060000000  0.4700350000000 1.0
C      1  0.4994210000000  0.4766690000000  0.4170810000000 1.0
C      1  0.5896100000000  0.5040950000000  0.5011540000000 1.0
C      1  0.4948400000000  0.4605480000000  0.5241330000000 1.0
C      1  0.5599170000000  0.4571650000000  0.4599840000000 1.0
C      1  0.5399310000000  0.5562190000000  0.4884720000000 1.0
C      1  0.4517630000000  0.4266950000000  0.5120330000000 1.0
C      1  0.5218550000000  0.4687800000000  0.5278100000000 1.0
C      1  0.5330250000000  0.5731470000000  0.5137000000000 1.0
C      1  0.4898900000000  0.4957780000000  0.4751520000000 1.0
C      1  0.4704470000000  0.5275340000000  0.4280190000000 1.0
C      1  0.5833370000000  0.4898970000000  0.5271790000000 1.0
C      1  0.4854360000000  0.5238810000000  0.4788830000000 1.0
C      1  0.4079620000000  0.5252300000000  0.5309480000000 1.0
C      1  0.5702720000000  0.4544890000000  0.5073260000000 1.0
C      1  0.4507540000000  0.5369890000000  0.5095300000000 1.0
C      1  0.4386910000000  0.4856360000000  0.5523550000000 1.0
C      1  0.4992710000000  0.5659210000000  0.4340490000000 1.0
END
