TITL C-2441169-1362-1277 0.00244542169727997 125000 -4549.30061758728 0 0 33 (C1) n - 1
REM
REM in /home/bkarasulu/work/CARBON/AIRSS/Generating-Clusters/ReaxFF-fromJPCA2015/Units_Real/with-SteepDescent/Higher-Symm
REM
REM
REM
REM
REM
REM ./C.cell (1df0a924f5614ab8850e4351716899ee)
REM
REM compiler GCC version 9.2.1 20190827 (Red Hat 9.2.1-1)
REM options -cpp -mtune=generic -march=x86-64 -g -O0 -fpre-include=/usr/include/finclude/math-vector-fortran.h
REM seed -636093402 600615397 -1931035480 1615378487 1002643410 -1652537541 2098422728 -1895516738 -1065276642 -1026570251 1285595768 -1575946187 1838425918 -1616670399 1343387826 2072977516 205107554 593073664 742038566 284653153 -738686113 621878540 -699157892 165243234 631210129 -1987582152 -276840861 -933500164 -644519703 -955587169 -1972142371 -844797462 -472393243
REM
CELL 1.54180   50.00000   50.00000   50.00000   90.00000   90.00000   90.00000
LATT -1
SFAC C  
C      1  0.5157140000000  0.5328760000000  0.5464310000000 1.0
C      1  0.5233330000000  0.4923640000000  0.5461130000000 1.0
C      1  0.5016120000000  0.4722260000000  0.5465590000000 1.0
C      1  0.4756720000000  0.4854020000000  0.5468040000000 1.0
C      1  0.4786340000000  0.5148320000000  0.5460770000000 1.0
C      1  0.5229520000000  0.4571890000000  0.5063210000000 1.0
C      1  0.4677630000000  0.4582730000000  0.5091310000000 1.0
C      1  0.4515640000000  0.5133450000000  0.5060140000000 1.0
C      1  0.5034740000000  0.5539610000000  0.5069040000000 1.0
C      1  0.5460550000000  0.5154030000000  0.5078480000000 1.0
C      1  0.4725710000000  0.4764860000000  0.4853140000000 1.0
C      1  0.4696450000000  0.5172600000000  0.4822130000000 1.0
C      1  0.5129870000000  0.5400510000000  0.4818700000000 1.0
C      1  0.5348540000000  0.5041790000000  0.4827210000000 1.0
C      1  0.5026390000000  0.4624580000000  0.4836370000000 1.0
C      1  0.5453870000000  0.5449900000000  0.5109250000000 1.0
C      1  0.5502850000000  0.4677690000000  0.5111170000000 1.0
C      1  0.4868030000000  0.4362580000000  0.5120630000000 1.0
C      1  0.4380940000000  0.4873440000000  0.5106880000000 1.0
C      1  0.4742320000000  0.5548110000000  0.5125340000000 1.0
C      1  0.5403560000000  0.5511820000000  0.4810940000000 1.0
C      1  0.5502490000000  0.4807810000000  0.4858980000000 1.0
C      1  0.4959650000000  0.4343250000000  0.4817210000000 1.0
C      1  0.4430510000000  0.4784530000000  0.4815890000000 1.0
C      1  0.4679250000000  0.5452860000000  0.4864560000000 1.0
C      1  0.4547850000000  0.4732290000000  0.5306290000000 1.0
C      1  0.4632160000000  0.5312790000000  0.5262090000000 1.0
C      1  0.5236850000000  0.5532550000000  0.5289650000000 1.0
C      1  0.5460140000000  0.4922950000000  0.5264700000000 1.0
C      1  0.5068990000000  0.4491900000000  0.5293900000000 1.0
C      1  0.5054140000000  0.5123970000000  0.5410150000000 1.0
C      1  0.5021270000000  0.5090290000000  0.4710450000000 1.0
C      1  0.5004880000000  0.5012970000000  0.4459810000000 1.0
END
