TITL C-2441164-471-957 0.0647526037261915 125000 -17027.5103651723 0 0 121 (C1) n - 1
REM
REM in /home/bkarasulu/work/CARBON/AIRSS/Generating-Clusters/ReaxFF-fromJPCA2015/Units_Real/with-SteepDescent/Higher-Symm
REM
REM
REM
REM
REM
REM ./C.cell (1df0a924f5614ab8850e4351716899ee)
REM
REM compiler GCC version 9.2.1 20190827 (Red Hat 9.2.1-1)
REM options -cpp -mtune=generic -march=x86-64 -g -O0 -fpre-include=/usr/include/finclude/math-vector-fortran.h
REM seed -1681499035 -332865743 -187985338 -1764402952 -1344983320 80442610 184275268 1227887017 -1994170648 -2111944797 120672347 -865393450 -18326465 -1652983754 1777476462 1263081511 -69266048 -1854783585 1691085246 481901859 -433815365 1554899067 -1258348569 -1985441258 -1756173039 1469969831 -1400248201 -681186884 347975442 1311885525 379092880 -1499636267 -121718626
REM
CELL 1.54180   50.00000   50.00000   50.00000   90.00000   90.00000   90.00000
LATT -1
SFAC C  
C      1  0.5918530000000  0.4772920000000  0.4637320000000 1.0
C      1  0.5880010000000  0.5280910000000  0.4611750000000 1.0
C      1  0.5537600000000  0.5638330000000  0.4570320000000 1.0
C      1  0.5150200000000  0.5905320000000  0.4655060000000 1.0
C      1  0.4656470000000  0.5774410000000  0.4603120000000 1.0
C      1  0.4208600000000  0.5486180000000  0.4743970000000 1.0
C      1  0.4051960000000  0.4953890000000  0.4714680000000 1.0
C      1  0.4245560000000  0.4456220000000  0.4621700000000 1.0
C      1  0.4659680000000  0.4138630000000  0.4644600000000 1.0
C      1  0.5205420000000  0.4046780000000  0.4710300000000 1.0
C      1  0.5644990000000  0.4344000000000  0.4634990000000 1.0
C      1  0.4969820000000  0.4071730000000  0.5149410000000 1.0
C      1  0.5473540000000  0.4210510000000  0.5139780000000 1.0
C      1  0.5828280000000  0.4606870000000  0.5153440000000 1.0
C      1  0.5874160000000  0.5123760000000  0.5119900000000 1.0
C      1  0.5668270000000  0.5615330000000  0.5141530000000 1.0
C      1  0.5229900000000  0.5888630000000  0.5151710000000 1.0
C      1  0.4721250000000  0.5889670000000  0.5158980000000 1.0
C      1  0.4284850000000  0.5623100000000  0.5184500000000 1.0
C      1  0.4089150000000  0.5156390000000  0.5150570000000 1.0
C      1  0.4164690000000  0.4636650000000  0.5135630000000 1.0
C      1  0.4478690000000  0.4230070000000  0.5151870000000 1.0
C      1  0.4711930000000  0.4104270000000  0.5035290000000 1.0
C      1  0.5230240000000  0.4086590000000  0.4996330000000 1.0
C      1  0.5674610000000  0.4386520000000  0.5036140000000 1.0
C      1  0.5885710000000  0.4863540000000  0.5011930000000 1.0
C      1  0.5800490000000  0.5409160000000  0.4992590000000 1.0
C      1  0.5468740000000  0.5806550000000  0.5021030000000 1.0
C      1  0.4961990000000  0.5944700000000  0.5015270000000 1.0
C      1  0.4469020000000  0.5786250000000  0.5027690000000 1.0
C      1  0.4139210000000  0.5424700000000  0.5027810000000 1.0
C      1  0.4079080000000  0.4905550000000  0.5005810000000 1.0
C      1  0.4290830000000  0.4410120000000  0.5015710000000 1.0
C      1  0.5402460000000  0.4691470000000  0.4407820000000 1.0
C      1  0.5507000000000  0.4952040000000  0.4417520000000 1.0
C      1  0.5391100000000  0.5190290000000  0.4531110000000 1.0
C      1  0.5346840000000  0.5466920000000  0.4432830000000 1.0
C      1  0.4757710000000  0.5518620000000  0.4594140000000 1.0
C      1  0.4715200000000  0.5345790000000  0.4413260000000 1.0
C      1  0.4510850000000  0.5158450000000  0.4393060000000 1.0
C      1  0.4563770000000  0.4929030000000  0.4550590000000 1.0
C      1  0.4649080000000  0.4665030000000  0.4460290000000 1.0
C      1  0.4913690000000  0.4532340000000  0.4454650000000 1.0
C      1  0.5173120000000  0.4631540000000  0.4557780000000 1.0
C      1  0.5026240000000  0.5453500000000  0.4119300000000 1.0
C      1  0.4759500000000  0.5416850000000  0.4134390000000 1.0
C      1  0.4534340000000  0.5178710000000  0.4100790000000 1.0
C      1  0.4553000000000  0.4907780000000  0.4077650000000 1.0
C      1  0.4617990000000  0.4650610000000  0.4168460000000 1.0
C      1  0.4891340000000  0.4495550000000  0.4159330000000 1.0
C      1  0.5147500000000  0.4580390000000  0.4097060000000 1.0
C      1  0.5403580000000  0.4675720000000  0.4117360000000 1.0
C      1  0.5546090000000  0.4965970000000  0.4131440000000 1.0
C      1  0.5459700000000  0.5227870000000  0.4113360000000 1.0
C      1  0.5311010000000  0.5472490000000  0.4127260000000 1.0
C      1  0.4609280000000  0.4660750000000  0.5728920000000 1.0
C      1  0.4851070000000  0.4502760000000  0.5727290000000 1.0
C      1  0.5144610000000  0.4503940000000  0.5739970000000 1.0
C      1  0.5370000000000  0.4676240000000  0.5776240000000 1.0
C      1  0.5508470000000  0.4924670000000  0.5734060000000 1.0
C      1  0.5473850000000  0.5216950000000  0.5724700000000 1.0
C      1  0.5285400000000  0.5437130000000  0.5725060000000 1.0
C      1  0.5007320000000  0.5521250000000  0.5734670000000 1.0
C      1  0.4737570000000  0.5419840000000  0.5762730000000 1.0
C      1  0.4531430000000  0.5215270000000  0.5744220000000 1.0
C      1  0.4507200000000  0.4928740000000  0.5766430000000 1.0
C      1  0.5234220000000  0.5826220000000  0.5437570000000 1.0
C      1  0.4763140000000  0.5829760000000  0.5437880000000 1.0
C      1  0.4348970000000  0.5562060000000  0.5455510000000 1.0
C      1  0.4146030000000  0.5145130000000  0.5433110000000 1.0
C      1  0.4221050000000  0.4650400000000  0.5421080000000 1.0
C      1  0.4521980000000  0.4282800000000  0.5446750000000 1.0
C      1  0.4986950000000  0.4138300000000  0.5440770000000 1.0
C      1  0.5449090000000  0.4258990000000  0.5426070000000 1.0
C      1  0.5782360000000  0.4637830000000  0.5440770000000 1.0
C      1  0.5840440000000  0.5115130000000  0.5413460000000 1.0
C      1  0.5645520000000  0.5564810000000  0.5429520000000 1.0
C      1  0.5307140000000  0.5372610000000  0.4952810000000 1.0
C      1  0.5034850000000  0.5469750000000  0.4940300000000 1.0
C      1  0.4790120000000  0.5403730000000  0.4827730000000 1.0
C      1  0.4628090000000  0.5202520000000  0.4943110000000 1.0
C      1  0.4572200000000  0.4961270000000  0.4815290000000 1.0
C      1  0.4610960000000  0.4730270000000  0.4944060000000 1.0
C      1  0.4815110000000  0.4523080000000  0.4944270000000 1.0
C      1  0.5114230000000  0.4518850000000  0.4959970000000 1.0
C      1  0.5263500000000  0.4668640000000  0.4811150000000 1.0
C      1  0.5419370000000  0.4876300000000  0.4910280000000 1.0
C      1  0.5407780000000  0.5143700000000  0.4803800000000 1.0
C      1  0.4416480000000  0.4512520000000  0.5563230000000 1.0
C      1  0.4776150000000  0.4272110000000  0.5569010000000 1.0
C      1  0.5209740000000  0.4257840000000  0.5570610000000 1.0
C      1  0.5528930000000  0.4525760000000  0.5520650000000 1.0
C      1  0.5753090000000  0.4886220000000  0.5562530000000 1.0
C      1  0.5690760000000  0.5314050000000  0.5556320000000 1.0
C      1  0.5410350000000  0.5642700000000  0.5562270000000 1.0
C      1  0.4997350000000  0.5765760000000  0.5573970000000 1.0
C      1  0.4624990000000  0.5596460000000  0.5531740000000 1.0
C      1  0.4303680000000  0.5321310000000  0.5582430000000 1.0
C      1  0.4287100000000  0.4911760000000  0.5527740000000 1.0
C      1  0.5347640000000  0.4678650000000  0.5348190000000 1.0
C      1  0.5429190000000  0.4888080000000  0.5195230000000 1.0
C      1  0.5354580000000  0.5120980000000  0.5268020000000 1.0
C      1  0.5286470000000  0.5376420000000  0.5239790000000 1.0
C      1  0.5015950000000  0.5467290000000  0.5219690000000 1.0
C      1  0.4776340000000  0.5402050000000  0.5353660000000 1.0
C      1  0.4621840000000  0.5203700000000  0.5223210000000 1.0
C      1  0.4530970000000  0.4975220000000  0.5362630000000 1.0
C      1  0.4624750000000  0.4750360000000  0.5220310000000 1.0
C      1  0.4831990000000  0.4554360000000  0.5244300000000 1.0
C      1  0.5120850000000  0.4558780000000  0.5242880000000 1.0
C      1  0.4912260000000  0.4070520000000  0.4686900000000 1.0
C      1  0.5438320000000  0.4195370000000  0.4646550000000 1.0
C      1  0.5816500000000  0.4535260000000  0.4726680000000 1.0
C      1  0.5923710000000  0.5035890000000  0.4646820000000 1.0
C      1  0.5770500000000  0.5509030000000  0.4712100000000 1.0
C      1  0.5418620000000  0.5856140000000  0.4725130000000 1.0
C      1  0.4886910000000  0.5937020000000  0.4716950000000 1.0
C      1  0.4421280000000  0.5721130000000  0.4755450000000 1.0
C      1  0.4141870000000  0.5227600000000  0.4668510000000 1.0
C      1  0.4143980000000  0.4689900000000  0.4649500000000 1.0
C      1  0.4422950000000  0.4264850000000  0.4697320000000 1.0
END
