TITL C-2441162-9305-380 0.0241957710193363 125000 -8494.9913176656 0 0 64 (C1) n - 1
REM
REM in /home/bkarasulu/work/CARBON/AIRSS/Generating-Clusters/ReaxFF-fromJPCA2015/Units_Real/with-SteepDescent/Higher-Symm
REM
REM
REM
REM
REM
REM ./C.cell (1df0a924f5614ab8850e4351716899ee)
REM
REM compiler GCC version 9.2.1 20190827 (Red Hat 9.2.1-1)
REM options -cpp -mtune=generic -march=x86-64 -g -O0 -fpre-include=/usr/include/finclude/math-vector-fortran.h
REM seed -799089221 2130943557 548124162 -804834052 483150596 -1622210074 -1132419547 1376001385 1926110384 -2139318181 -835075351 -1537226674 -1197631687 -990844254 963954891 -414153893 -161632339 -1171389779 -1369801588 -207459306 -1587069752 1631870901 -333015581 1665548759 417083069 901485952 1738606381 -436808847 -156579746 -78489198 -558579441 -2135606279 1723099824
REM
CELL 1.54180   50.00000   50.00000   50.00000   90.00000   90.00000   90.00000
LATT -1
SFAC C  
C      1  0.5169680000000  0.4499510000000  0.5057600000000 1.0
C      1  0.5169010000000  0.4725980000000  0.5407290000000 1.0
C      1  0.5170520000000  0.5144800000000  0.5468820000000 1.0
C      1  0.5174280000000  0.5449150000000  0.5167290000000 1.0
C      1  0.5159240000000  0.5383250000000  0.4764540000000 1.0
C      1  0.5164620000000  0.5044560000000  0.4526910000000 1.0
C      1  0.5162850000000  0.4673370000000  0.4676650000000 1.0
C      1  0.4760580000000  0.5681890000000  0.4714630000000 1.0
C      1  0.4800920000000  0.5180590000000  0.4324730000000 1.0
C      1  0.4768300000000  0.4551920000000  0.4403190000000 1.0
C      1  0.4785310000000  0.4262210000000  0.4973930000000 1.0
C      1  0.4772060000000  0.4512680000000  0.5562630000000 1.0
C      1  0.4768840000000  0.5122010000000  0.5730780000000 1.0
C      1  0.4791500000000  0.5627010000000  0.5349300000000 1.0
C      1  0.4934190000000  0.4791650000000  0.5250050000000 1.0
C      1  0.4935040000000  0.5072900000000  0.5314580000000 1.0
C      1  0.4929720000000  0.5328810000000  0.5177000000000 1.0
C      1  0.4921100000000  0.5286990000000  0.4896050000000 1.0
C      1  0.4936840000000  0.5125640000000  0.4563010000000 1.0
C      1  0.4931920000000  0.4775830000000  0.4794390000000 1.0
C      1  0.4929910000000  0.4619660000000  0.5020960000000 1.0
C      1  0.4875530000000  0.4904620000000  0.4247260000000 1.0
C      1  0.4880860000000  0.4367550000000  0.4584070000000 1.0
C      1  0.4880690000000  0.4276740000000  0.5247170000000 1.0
C      1  0.4882350000000  0.4729120000000  0.5711280000000 1.0
C      1  0.4881520000000  0.5371000000000  0.5660530000000 1.0
C      1  0.4879330000000  0.5742010000000  0.5098030000000 1.0
C      1  0.4871090000000  0.5548450000000  0.4495300000000 1.0
C      1  0.4642170000000  0.4455250000000  0.5322680000000 1.0
C      1  0.4640510000000  0.4898850000000  0.5620720000000 1.0
C      1  0.4643480000000  0.5407890000000  0.5461430000000 1.0
C      1  0.4636180000000  0.5615330000000  0.4957230000000 1.0
C      1  0.4635440000000  0.5360770000000  0.4494170000000 1.0
C      1  0.4646680000000  0.4802140000000  0.4415040000000 1.0
C      1  0.4649670000000  0.4419250000000  0.4776430000000 1.0
C      1  0.5536210000000  0.4833310000000  0.4705020000000 1.0
C      1  0.5540100000000  0.4661880000000  0.4941450000000 1.0
C      1  0.5540600000000  0.4737130000000  0.5226790000000 1.0
C      1  0.5541460000000  0.5005160000000  0.5340950000000 1.0
C      1  0.5538960000000  0.5267290000000  0.5205100000000 1.0
C      1  0.5540740000000  0.5318810000000  0.4918340000000 1.0
C      1  0.5541900000000  0.5125930000000  0.4695950000000 1.0
C      1  0.5380160000000  0.4996790000000  0.5594080000000 1.0
C      1  0.5376660000000  0.5463080000000  0.5365860000000 1.0
C      1  0.5368390000000  0.5559130000000  0.4846910000000 1.0
C      1  0.5373890000000  0.5237530000000  0.4476040000000 1.0
C      1  0.5365070000000  0.4714750000000  0.4482620000000 1.0
C      1  0.5377440000000  0.4419990000000  0.4879990000000 1.0
C      1  0.5380800000000  0.4535060000000  0.5381530000000 1.0
C      1  0.4513370000000  0.5213790000000  0.5259170000000 1.0
C      1  0.4512970000000  0.5333810000000  0.4989640000000 1.0
C      1  0.4518140000000  0.5201720000000  0.4726360000000 1.0
C      1  0.4520310000000  0.4907990000000  0.4675830000000 1.0
C      1  0.4517980000000  0.4689030000000  0.4869820000000 1.0
C      1  0.4514060000000  0.4696820000000  0.5162670000000 1.0
C      1  0.4511820000000  0.4930380000000  0.5334760000000 1.0
C      1  0.5177610000000  0.4809480000000  0.5676940000000 1.0
C      1  0.5178030000000  0.5412020000000  0.5573510000000 1.0
C      1  0.5174020000000  0.5696990000000  0.5025810000000 1.0
C      1  0.5184620000000  0.5459540000000  0.4494440000000 1.0
C      1  0.5165250000000  0.4852820000000  0.4309710000000 1.0
C      1  0.5190950000000  0.4387860000000  0.4655680000000 1.0
C      1  0.5179340000000  0.4345090000000  0.5295890000000 1.0
C      1  0.4859600000000  0.5012270000000  0.4921860000000 1.0
END
