TITL C-2441165-58-1395 0.0191132128679875 125000 -19394.8848649227 0 0 129 (C1) n - 1
REM
REM in /home/bkarasulu/work/CARBON/AIRSS/Generating-Clusters/ReaxFF-fromJPCA2015/Units_Real/with-SteepDescent/Higher-Symm
REM
REM
REM
REM
REM
REM ./C.cell (1df0a924f5614ab8850e4351716899ee)
REM
REM compiler GCC version 9.2.1 20190827 (Red Hat 9.2.1-1)
REM options -cpp -mtune=generic -march=x86-64 -g -O0 -fpre-include=/usr/include/finclude/math-vector-fortran.h
REM seed -143064200 546811745 1947190245 1615281401 -764462354 1143188892 2097899433 1885799846 -1934789081 -64198073 2141809814 -866411769 -1682749554 679180230 858322298 -269870506 1194538387 -758487430 -279377221 -768470751 504352763 1663666268 -662906923 -164725061 -1750866450 1340347476 995806439 -440717577 344577619 1309575997 -1332372231 -684915603 -1765386548
REM
CELL 1.54180   50.00000   50.00000   50.00000   90.00000   90.00000   90.00000
LATT -1
SFAC C  
C      1  0.5189830000000  0.4196700000000  0.4534430000000 1.0
C      1  0.4539450000000  0.4561820000000  0.4326430000000 1.0
C      1  0.4359500000000  0.5274140000000  0.4383940000000 1.0
C      1  0.5079480000000  0.5607200000000  0.4402250000000 1.0
C      1  0.5572650000000  0.5087590000000  0.4437500000000 1.0
C      1  0.5011670000000  0.5261190000000  0.4009130000000 1.0
C      1  0.5255510000000  0.5111890000000  0.4025090000000 1.0
C      1  0.5177210000000  0.4825490000000  0.4023790000000 1.0
C      1  0.4893330000000  0.4771440000000  0.3945450000000 1.0
C      1  0.4811270000000  0.5043010000000  0.4028850000000 1.0
C      1  0.4626280000000  0.4221980000000  0.4703190000000 1.0
C      1  0.4071870000000  0.5171640000000  0.4747680000000 1.0
C      1  0.4873760000000  0.5825980000000  0.4730100000000 1.0
C      1  0.5783780000000  0.5371830000000  0.4721790000000 1.0
C      1  0.5656630000000  0.4282540000000  0.4711430000000 1.0
C      1  0.4084110000000  0.5472190000000  0.5397680000000 1.0
C      1  0.5145880000000  0.6002270000000  0.5386860000000 1.0
C      1  0.6012860000000  0.5189250000000  0.5371290000000 1.0
C      1  0.5496940000000  0.4131260000000  0.5398020000000 1.0
C      1  0.4316310000000  0.4284880000000  0.5346240000000 1.0
C      1  0.4640300000000  0.5809100000000  0.5434270000000 1.0
C      1  0.5675450000000  0.5607850000000  0.5365690000000 1.0
C      1  0.5842810000000  0.4539390000000  0.5414210000000 1.0
C      1  0.4835060000000  0.4178140000000  0.5372460000000 1.0
C      1  0.4110740000000  0.4906050000000  0.5423210000000 1.0
C      1  0.4353910000000  0.5206620000000  0.4669700000000 1.0
C      1  0.4909950000000  0.5554110000000  0.4632780000000 1.0
C      1  0.5544110000000  0.5250190000000  0.4655140000000 1.0
C      1  0.5444480000000  0.4341540000000  0.4516450000000 1.0
C      1  0.4729410000000  0.4436990000000  0.4536110000000 1.0
C      1  0.5065980000000  0.5814940000000  0.5628680000000 1.0
C      1  0.5824580000000  0.5230520000000  0.5611600000000 1.0
C      1  0.5495400000000  0.4306180000000  0.5650820000000 1.0
C      1  0.4489920000000  0.4368960000000  0.5592460000000 1.0
C      1  0.4211240000000  0.5333940000000  0.5646350000000 1.0
C      1  0.4449230000000  0.4620120000000  0.5692300000000 1.0
C      1  0.4471860000000  0.5355880000000  0.5720280000000 1.0
C      1  0.5181230000000  0.5577150000000  0.5692050000000 1.0
C      1  0.5635750000000  0.5043900000000  0.5691510000000 1.0
C      1  0.5241500000000  0.4368150000000  0.5736560000000 1.0
C      1  0.4724770000000  0.5310780000000  0.5059660000000 1.0
C      1  0.5204600000000  0.5437550000000  0.5028890000000 1.0
C      1  0.5478790000000  0.4668650000000  0.5023680000000 1.0
C      1  0.4997660000000  0.4623770000000  0.4958540000000 1.0
C      1  0.4593250000000  0.4866580000000  0.4987020000000 1.0
C      1  0.4539410000000  0.5097860000000  0.5154060000000 1.0
C      1  0.4934060000000  0.5502290000000  0.5123740000000 1.0
C      1  0.5254040000000  0.5210320000000  0.5205580000000 1.0
C      1  0.5220730000000  0.4744790000000  0.5159310000000 1.0
C      1  0.4732190000000  0.4615670000000  0.5060780000000 1.0
C      1  0.4450390000000  0.5546610000000  0.4439820000000 1.0
C      1  0.5377470000000  0.5689420000000  0.4456950000000 1.0
C      1  0.5642760000000  0.4810650000000  0.4514020000000 1.0
C      1  0.4956150000000  0.4273660000000  0.4376780000000 1.0
C      1  0.4357720000000  0.4748790000000  0.4443350000000 1.0
C      1  0.4134690000000  0.4440590000000  0.5173750000000 1.0
C      1  0.4176870000000  0.5691550000000  0.5220450000000 1.0
C      1  0.5390440000000  0.5971070000000  0.5228750000000 1.0
C      1  0.6049480000000  0.4942180000000  0.5224090000000 1.0
C      1  0.5286060000000  0.3988370000000  0.5268610000000 1.0
C      1  0.4980350000000  0.4452260000000  0.5754810000000 1.0
C      1  0.4446040000000  0.4890460000000  0.5751290000000 1.0
C      1  0.4732330000000  0.5431530000000  0.5742930000000 1.0
C      1  0.5349390000000  0.5358460000000  0.5689590000000 1.0
C      1  0.5500960000000  0.4803370000000  0.5666000000000 1.0
C      1  0.4768060000000  0.4984440000000  0.4313460000000 1.0
C      1  0.4928900000000  0.5506380000000  0.4159430000000 1.0
C      1  0.5482280000000  0.5215680000000  0.4195140000000 1.0
C      1  0.5211460000000  0.4739130000000  0.4301440000000 1.0
C      1  0.4693700000000  0.4581360000000  0.4065260000000 1.0
C      1  0.4213190000000  0.4706310000000  0.4718200000000 1.0
C      1  0.4407590000000  0.5677170000000  0.4732550000000 1.0
C      1  0.5496230000000  0.5774100000000  0.4728800000000 1.0
C      1  0.5900400000000  0.4736340000000  0.4733870000000 1.0
C      1  0.5105800000000  0.4084800000000  0.4792170000000 1.0
C      1  0.5309090000000  0.4000760000000  0.4975590000000 1.0
C      1  0.4200920000000  0.4464660000000  0.4871450000000 1.0
C      1  0.4188660000000  0.5637740000000  0.4915160000000 1.0
C      1  0.5357320000000  0.5936180000000  0.4917940000000 1.0
C      1  0.6004590000000  0.4939000000000  0.4909950000000 1.0
C      1  0.4972160000000  0.5999610000000  0.5156680000000 1.0
C      1  0.6000010000000  0.5361460000000  0.5133110000000 1.0
C      1  0.5646690000000  0.4204930000000  0.5170580000000 1.0
C      1  0.4458830000000  0.4184170000000  0.5119960000000 1.0
C      1  0.4035400000000  0.5288940000000  0.5182220000000 1.0
C      1  0.4832400000000  0.4131410000000  0.4873600000000 1.0
C      1  0.4111750000000  0.4922370000000  0.4883570000000 1.0
C      1  0.4619200000000  0.5813030000000  0.4862710000000 1.0
C      1  0.5728500000000  0.5632310000000  0.4837210000000 1.0
C      1  0.5842320000000  0.4472490000000  0.4834930000000 1.0
C      1  0.4013370000000  0.5406550000000  0.4916680000000 1.0
C      1  0.5077290000000  0.5985690000000  0.4890010000000 1.0
C      1  0.5985160000000  0.5222740000000  0.4872860000000 1.0
C      1  0.5572620000000  0.4101760000000  0.4924950000000 1.0
C      1  0.4378940000000  0.4238530000000  0.4847420000000 1.0
C      1  0.5664590000000  0.4553270000000  0.5642880000000 1.0
C      1  0.4774190000000  0.4280160000000  0.5615300000000 1.0
C      1  0.4201090000000  0.5042210000000  0.5671440000000 1.0
C      1  0.4792930000000  0.5714830000000  0.5671550000000 1.0
C      1  0.5628980000000  0.5450570000000  0.5623070000000 1.0
C      1  0.5293110000000  0.5311650000000  0.4772730000000 1.0
C      1  0.5490520000000  0.4751150000000  0.4763580000000 1.0
C      1  0.4910770000000  0.4661070000000  0.4686220000000 1.0
C      1  0.4597470000000  0.5058470000000  0.4746310000000 1.0
C      1  0.4820850000000  0.5265680000000  0.4765130000000 1.0
C      1  0.5024540000000  0.4739930000000  0.5665910000000 1.0
C      1  0.4695800000000  0.4966490000000  0.5596000000000 1.0
C      1  0.4889520000000  0.5186500000000  0.5613660000000 1.0
C      1  0.5207880000000  0.5148400000000  0.5497460000000 1.0
C      1  0.5243830000000  0.4843250000000  0.5497990000000 1.0
C      1  0.5454360000000  0.5482750000000  0.4294150000000 1.0
C      1  0.5452720000000  0.4598000000000  0.4374530000000 1.0
C      1  0.4895860000000  0.4418110000000  0.4150870000000 1.0
C      1  0.4478110000000  0.4996300000000  0.4332550000000 1.0
C      1  0.4666480000000  0.5525970000000  0.4265170000000 1.0
C      1  0.4729470000000  0.4271230000000  0.5109500000000 1.0
C      1  0.4212020000000  0.5045480000000  0.5154370000000 1.0
C      1  0.4779300000000  0.5774010000000  0.5144610000000 1.0
C      1  0.5831980000000  0.5590010000000  0.5106440000000 1.0
C      1  0.5725050000000  0.4467840000000  0.5121850000000 1.0
C      1  0.4121740000000  0.4646300000000  0.5348760000000 1.0
C      1  0.4392360000000  0.5743930000000  0.5371290000000 1.0
C      1  0.5483090000000  0.5777240000000  0.5396940000000 1.0
C      1  0.5932140000000  0.4788050000000  0.5413540000000 1.0
C      1  0.5083400000000  0.4099900000000  0.5407750000000 1.0
C      1  0.5164200000000  0.5005470000000  0.5034080000000 1.0
C      1  0.4892270000000  0.4944660000000  0.5763110000000 1.0
C      1  0.4999750000000  0.4869870000000  0.4495690000000 1.0
C      1  0.5093990000000  0.5096130000000  0.4753130000000 1.0
END
