TITL C-2441163-1170-1430 0.217393004558496 125000 -18865.3519437789 0 0 159 (C1) n - 1
REM
REM in /home/bkarasulu/work/CARBON/AIRSS/Generating-Clusters/ReaxFF-fromJPCA2015/Units_Real/with-SteepDescent/Higher-Symm
REM
REM
REM
REM
REM
REM ./C.cell (1df0a924f5614ab8850e4351716899ee)
REM
REM compiler GCC version 9.2.1 20190827 (Red Hat 9.2.1-1)
REM options -cpp -mtune=generic -march=x86-64 -g -O0 -fpre-include=/usr/include/finclude/math-vector-fortran.h
REM seed 1907643841 -661429163 -1309875956 -760313573 -851750109 -137176810 -1807751312 18090980 1099236407 333684260 269419365 -1128693598 1770117597 -213138824 -253557481 744384485 367445421 -1162443725 -1769023020 -235325341 501089010 -534556925 1075367081 -1266068426 -767833887 513449961 1166175563 1290690616 -1072677411 -1142974261 -1833657379 779632412 113899857
REM
CELL 1.54180   50.00000   50.00000   50.00000   90.00000   90.00000   90.00000
LATT -1
SFAC C  
C      1  0.5197020000000  0.4672720000000  0.5459490000000 1.0
C      1  0.5221780000000  0.4798560000000  0.4459480000000 1.0
C      1  0.5194740000000  0.5569510000000  0.5048020000000 1.0
C      1  0.4617840000000  0.5502670000000  0.4358610000000 1.0
C      1  0.4647360000000  0.5197610000000  0.5810630000000 1.0
C      1  0.4646900000000  0.4194800000000  0.4770940000000 1.0
C      1  0.5244590000000  0.4551430000000  0.4298150000000 1.0
C      1  0.5261300000000  0.5870420000000  0.4886540000000 1.0
C      1  0.5259600000000  0.4659980000000  0.5780000000000 1.0
C      1  0.5551950000000  0.5827690000000  0.4956680000000 1.0
C      1  0.5550670000000  0.4614600000000  0.5754840000000 1.0
C      1  0.5533430000000  0.4510540000000  0.4318810000000 1.0
C      1  0.4279630000000  0.5413980000000  0.4741090000000 1.0
C      1  0.4281670000000  0.5057600000000  0.5571170000000 1.0
C      1  0.4284690000000  0.4465560000000  0.4744420000000 1.0
C      1  0.4053940000000  0.4798800000000  0.5277160000000 1.0
C      1  0.3993700000000  0.4834080000000  0.4640000000000 1.0
C      1  0.3964800000000  0.5354360000000  0.4974470000000 1.0
C      1  0.4700430000000  0.5305540000000  0.4620310000000 1.0
C      1  0.4732380000000  0.5182540000000  0.5525900000000 1.0
C      1  0.4693570000000  0.4518140000000  0.4876230000000 1.0
C      1  0.5696110000000  0.4551590000000  0.4759620000000 1.0
C      1  0.5681330000000  0.5416210000000  0.4729070000000 1.0
C      1  0.5686430000000  0.4990900000000  0.5491110000000 1.0
C      1  0.5011380000000  0.4422640000000  0.4175450000000 1.0
C      1  0.4988060000000  0.6001160000000  0.4895940000000 1.0
C      1  0.4995730000000  0.4553720000000  0.5921880000000 1.0
C      1  0.5554350000000  0.5225560000000  0.5072900000000 1.0
C      1  0.5538930000000  0.4822020000000  0.5094160000000 1.0
C      1  0.5605120000000  0.5017450000000  0.4879980000000 1.0
C      1  0.5779250000000  0.4409380000000  0.5303400000000 1.0
C      1  0.5786760000000  0.5024690000000  0.4331820000000 1.0
C      1  0.5776190000000  0.5551020000000  0.5368520000000 1.0
C      1  0.5118720000000  0.4183410000000  0.4585860000000 1.0
C      1  0.5060850000000  0.5801280000000  0.4483640000000 1.0
C      1  0.5073290000000  0.5095710000000  0.5884380000000 1.0
C      1  0.5280700000000  0.5523120000000  0.4079010000000 1.0
C      1  0.5340700000000  0.5543010000000  0.5951260000000 1.0
C      1  0.5291660000000  0.3950060000000  0.5006510000000 1.0
C      1  0.5211600000000  0.4978600000000  0.3927620000000 1.0
C      1  0.5210530000000  0.5882910000000  0.5516240000000 1.0
C      1  0.5206170000000  0.4088100000000  0.5541200000000 1.0
C      1  0.4857930000000  0.4664740000000  0.4139660000000 1.0
C      1  0.4837850000000  0.5926500000000  0.5131590000000 1.0
C      1  0.4836810000000  0.4422570000000  0.5717780000000 1.0
C      1  0.5162580000000  0.4484770000000  0.4761530000000 1.0
C      1  0.5131270000000  0.5506280000000  0.4653160000000 1.0
C      1  0.5142770000000  0.5108410000000  0.5576650000000 1.0
C      1  0.4714900000000  0.4651740000000  0.4402210000000 1.0
C      1  0.4628690000000  0.5736420000000  0.5066150000000 1.0
C      1  0.4629060000000  0.4602770000000  0.5578410000000 1.0
C      1  0.5146490000000  0.4711250000000  0.5077580000000 1.0
C      1  0.5148940000000  0.5039420000000  0.4785240000000 1.0
C      1  0.5129830000000  0.5195100000000  0.5186380000000 1.0
C      1  0.5273440000000  0.4907890000000  0.5951120000000 1.0
C      1  0.5331750000000  0.4181340000000  0.4432520000000 1.0
C      1  0.5295820000000  0.5876530000000  0.4593800000000 1.0
C      1  0.4864830000000  0.4120560000000  0.4950530000000 1.0
C      1  0.4855360000000  0.5472390000000  0.4191960000000 1.0
C      1  0.5004730000000  0.5495610000000  0.5747030000000 1.0
C      1  0.4911430000000  0.4339570000000  0.5139140000000 1.0
C      1  0.4842620000000  0.5095120000000  0.4463900000000 1.0
C      1  0.4901880000000  0.5454290000000  0.5493160000000 1.0
C      1  0.4519200000000  0.5721300000000  0.5555160000000 1.0
C      1  0.4514970000000  0.4215430000000  0.5344010000000 1.0
C      1  0.4517250000000  0.5119710000000  0.4131810000000 1.0
C      1  0.4898350000000  0.4920260000000  0.4862770000000 1.0
C      1  0.4872520000000  0.5270090000000  0.5055860000000 1.0
C      1  0.4869110000000  0.4825360000000  0.5145170000000 1.0
C      1  0.5532800000000  0.4161320000000  0.4632090000000 1.0
C      1  0.5502650000000  0.5728760000000  0.4476720000000 1.0
C      1  0.5495280000000  0.5079870000000  0.5908070000000 1.0
C      1  0.5082220000000  0.4006200000000  0.4815290000000 1.0
C      1  0.5047230000000  0.5660930000000  0.4211480000000 1.0
C      1  0.5104720000000  0.5366990000000  0.5977040000000 1.0
C      1  0.5614480000000  0.5741640000000  0.5224230000000 1.0
C      1  0.5610510000000  0.4440760000000  0.5536520000000 1.0
C      1  0.5616200000000  0.4790390000000  0.4248540000000 1.0
C      1  0.4385270000000  0.5510560000000  0.5444310000000 1.0
C      1  0.4389860000000  0.4440900000000  0.5225220000000 1.0
C      1  0.4372520000000  0.5090630000000  0.4381450000000 1.0
C      1  0.4608720000000  0.5913130000000  0.4564560000000 1.0
C      1  0.4696920000000  0.4974210000000  0.5989480000000 1.0
C      1  0.4676100000000  0.4190580000000  0.4474830000000 1.0
C      1  0.5945360000000  0.4896810000000  0.5382310000000 1.0
C      1  0.5942590000000  0.4712680000000  0.4709920000000 1.0
C      1  0.5930780000000  0.5402520000000  0.4885660000000 1.0
C      1  0.4235480000000  0.4689120000000  0.4318760000000 1.0
C      1  0.4334520000000  0.5728820000000  0.5067160000000 1.0
C      1  0.4312460000000  0.4548270000000  0.5616210000000 1.0
C      1  0.4110570000000  0.4918570000000  0.4367320000000 1.0
C      1  0.4199150000000  0.5536190000000  0.5250820000000 1.0
C      1  0.4163330000000  0.4549500000000  0.5371310000000 1.0
C      1  0.4335810000000  0.4170110000000  0.5127390000000 1.0
C      1  0.4408280000000  0.5350890000000  0.4253650000000 1.0
C      1  0.4347180000000  0.5545780000000  0.5715050000000 1.0
C      1  0.4307210000000  0.4455900000000  0.4434750000000 1.0
C      1  0.4323680000000  0.5681880000000  0.4775680000000 1.0
C      1  0.4303010000000  0.4809950000000  0.5726190000000 1.0
C      1  0.4904150000000  0.4787890000000  0.6052210000000 1.0
C      1  0.4929870000000  0.4200220000000  0.4350070000000 1.0
C      1  0.4878090000000  0.5974490000000  0.4633240000000 1.0
C      1  0.6003110000000  0.4704020000000  0.4970970000000 1.0
C      1  0.6004510000000  0.5181090000000  0.4751710000000 1.0
C      1  0.5995570000000  0.5138340000000  0.5265260000000 1.0
C      1  0.5147050000000  0.5459470000000  0.5306250000000 1.0
C      1  0.5147150000000  0.4481020000000  0.5248610000000 1.0
C      1  0.5141740000000  0.5079290000000  0.4490740000000 1.0
C      1  0.4160270000000  0.5016720000000  0.4789900000000 1.0
C      1  0.4076650000000  0.5279570000000  0.5219870000000 1.0
C      1  0.4174870000000  0.4817840000000  0.5009620000000 1.0
C      1  0.4584410000000  0.4877720000000  0.4555320000000 1.0
C      1  0.4590060000000  0.5228040000000  0.5098570000000 1.0
C      1  0.4614040000000  0.4747610000000  0.5286400000000 1.0
C      1  0.5962590000000  0.5403540000000  0.5200500000000 1.0
C      1  0.5965390000000  0.4621970000000  0.5230890000000 1.0
C      1  0.5970860000000  0.4984470000000  0.4557860000000 1.0
C      1  0.4572590000000  0.4796210000000  0.5798900000000 1.0
C      1  0.4567460000000  0.4414010000000  0.4380730000000 1.0
C      1  0.4609320000000  0.5712290000000  0.4780820000000 1.0
C      1  0.5429070000000  0.4899540000000  0.4093430000000 1.0
C      1  0.5402820000000  0.5835350000000  0.5338270000000 1.0
C      1  0.5400910000000  0.4281370000000  0.5569870000000 1.0
C      1  0.5290910000000  0.4880450000000  0.5258490000000 1.0
C      1  0.5298940000000  0.4765000000000  0.4730420000000 1.0
C      1  0.5283410000000  0.5288030000000  0.4974960000000 1.0
C      1  0.4937240000000  0.4911290000000  0.4034500000000 1.0
C      1  0.4944770000000  0.5910210000000  0.5398160000000 1.0
C      1  0.4932390000000  0.4198300000000  0.5580270000000 1.0
C      1  0.5189850000000  0.5704860000000  0.5756130000000 1.0
C      1  0.5252260000000  0.4010660000000  0.5277360000000 1.0
C      1  0.5252940000000  0.5257400000000  0.3983550000000 1.0
C      1  0.4789810000000  0.4187060000000  0.5339680000000 1.0
C      1  0.4807140000000  0.5143690000000  0.4159100000000 1.0
C      1  0.4778300000000  0.5698090000000  0.5482780000000 1.0
C      1  0.5523510000000  0.5357480000000  0.5819590000000 1.0
C      1  0.5524710000000  0.4101850000000  0.4916980000000 1.0
C      1  0.5503440000000  0.5511490000000  0.4280890000000 1.0
C      1  0.5586990000000  0.5419180000000  0.5540800000000 1.0
C      1  0.5582170000000  0.4300900000000  0.5123300000000 1.0
C      1  0.5582130000000  0.5237420000000  0.4357950000000 1.0
C      1  0.5624960000000  0.4890480000000  0.5744830000000 1.0
C      1  0.5640410000000  0.4402710000000  0.4552700000000 1.0
C      1  0.5610600000000  0.5672890000000  0.4725270000000 1.0
C      1  0.4064440000000  0.4626380000000  0.4823140000000 1.0
C      1  0.4042910000000  0.5278720000000  0.4719890000000 1.0
C      1  0.4067990000000  0.5056110000000  0.5392150000000 1.0
C      1  0.4923520000000  0.4977310000000  0.5446360000000 1.0
C      1  0.4899330000000  0.4661690000000  0.4723220000000 1.0
C      1  0.4908100000000  0.5409370000000  0.4796430000000 1.0
C      1  0.4490130000000  0.5242120000000  0.4823680000000 1.0
C      1  0.4521890000000  0.5029870000000  0.5313040000000 1.0
C      1  0.4504400000000  0.4716540000000  0.4791140000000 1.0
C      1  0.5511210000000  0.5183600000000  0.4640890000000 1.0
C      1  0.5558660000000  0.5203840000000  0.5356910000000 1.0
C      1  0.5544810000000  0.4555990000000  0.4999120000000 1.0
C      1  0.4468650000000  0.5719320000000  0.4409790000000 1.0
C      1  0.4372910000000  0.5267000000000  0.5779340000000 1.0
C      1  0.4370490000000  0.4207660000000  0.4848360000000 1.0
END
