TITL C-2441154-10-883 0.104254165208122 125000 -15050.0142070394 0 0 124 (C1) n - 1
REM
REM in /home/bkarasulu/work/CARBON/AIRSS/Generating-Clusters/ReaxFF-fromJPCA2015/Units_Real/with-SteepDescent/Higher-Symm
REM
REM
REM
REM
REM
REM ./C.cell (1df0a924f5614ab8850e4351716899ee)
REM
REM compiler GCC version 9.2.1 20190827 (Red Hat 9.2.1-1)
REM options -cpp -mtune=generic -march=x86-64 -g -O0 -fpre-include=/usr/include/finclude/math-vector-fortran.h
REM seed -669249529 -1780282377 -722795926 -575926286 2013432396 -1973015793 -1228907218 -394430773 -402007362 731613413 -281473907 353541941 -930231377 -623852922 731130507 -1858871150 -103553008 -765885851 -1694578440 -980211262 268039200 -331901100 -79550048 -98344538 1126380728 -1909291609 888634273 1906707737 -979833028 -325848788 -568280929 -1140068362 1977170575
REM
CELL 1.54180   50.00000   50.00000   50.00000   90.00000   90.00000   90.00000
LATT -1
SFAC C  
C      1  0.5164660000000  0.5180540000000  0.5099570000000 1.0
C      1  0.4751690000000  0.5061790000000  0.5110330000000 1.0
C      1  0.5052960000000  0.4768140000000  0.5107730000000 1.0
C      1  0.5730060000000  0.5550090000000  0.4941130000000 1.0
C      1  0.4169100000000  0.5311080000000  0.4873140000000 1.0
C      1  0.5189450000000  0.4143030000000  0.4836440000000 1.0
C      1  0.5115100000000  0.4506350000000  0.5473980000000 1.0
C      1  0.5400950000000  0.5376230000000  0.5480040000000 1.0
C      1  0.4433980000000  0.5184000000000  0.5474520000000 1.0
C      1  0.4259650000000  0.4387630000000  0.5049570000000 1.0
C      1  0.5881600000000  0.4689220000000  0.5055420000000 1.0
C      1  0.4830830000000  0.5956160000000  0.5058070000000 1.0
C      1  0.5445620000000  0.4848900000000  0.4253050000000 1.0
C      1  0.4959450000000  0.5489080000000  0.4204900000000 1.0
C      1  0.4586120000000  0.4701040000000  0.4214280000000 1.0
C      1  0.4255460000000  0.5308080000000  0.4427460000000 1.0
C      1  0.5087330000000  0.4186180000000  0.4443540000000 1.0
C      1  0.5676450000000  0.5488560000000  0.4451080000000 1.0
C      1  0.5560180000000  0.4478920000000  0.5241060000000 1.0
C      1  0.5184310000000  0.5767950000000  0.5179350000000 1.0
C      1  0.4279670000000  0.4747710000000  0.5203670000000 1.0
C      1  0.5165020000000  0.5004590000000  0.5812520000000 1.0
C      1  0.4911040000000  0.5117100000000  0.5699100000000 1.0
C      1  0.4936500000000  0.4855750000000  0.5793120000000 1.0
C      1  0.4304550000000  0.5168530000000  0.5061830000000 1.0
C      1  0.5107960000000  0.4334050000000  0.5032260000000 1.0
C      1  0.5506480000000  0.5424880000000  0.5068330000000 1.0
C      1  0.4653240000000  0.5766240000000  0.5517490000000 1.0
C      1  0.4530350000000  0.4319310000000  0.5505740000000 1.0
C      1  0.5836500000000  0.4931560000000  0.5491690000000 1.0
C      1  0.4864910000000  0.5399190000000  0.5825140000000 1.0
C      1  0.4707040000000  0.4689310000000  0.5843720000000 1.0
C      1  0.5431990000000  0.4881430000000  0.5824860000000 1.0
C      1  0.5312890000000  0.5497760000000  0.5664340000000 1.0
C      1  0.4389170000000  0.5024080000000  0.5653010000000 1.0
C      1  0.5357910000000  0.4430470000000  0.5514080000000 1.0
C      1  0.5074640000000  0.5410150000000  0.4817160000000 1.0
C      1  0.4635510000000  0.4832330000000  0.4816030000000 1.0
C      1  0.5330470000000  0.4749010000000  0.4814590000000 1.0
C      1  0.4722350000000  0.5011120000000  0.5406080000000 1.0
C      1  0.5132970000000  0.4767490000000  0.5364690000000 1.0
C      1  0.5141540000000  0.5272350000000  0.5371060000000 1.0
C      1  0.5644580000000  0.5278250000000  0.5594330000000 1.0
C      1  0.4433050000000  0.5421540000000  0.5622380000000 1.0
C      1  0.4961820000000  0.4336860000000  0.5602210000000 1.0
C      1  0.5576300000000  0.5419570000000  0.4678780000000 1.0
C      1  0.4357820000000  0.5289750000000  0.4670610000000 1.0
C      1  0.5158820000000  0.4360060000000  0.4643030000000 1.0
C      1  0.4393520000000  0.5655230000000  0.5430810000000 1.0
C      1  0.4754640000000  0.4137860000000  0.5445540000000 1.0
C      1  0.5846450000000  0.5209260000000  0.5394960000000 1.0
C      1  0.5305740000000  0.5013280000000  0.4720670000000 1.0
C      1  0.4823470000000  0.5297840000000  0.4749340000000 1.0
C      1  0.4843580000000  0.4654020000000  0.4730220000000 1.0
C      1  0.5885670000000  0.5329890000000  0.5132930000000 1.0
C      1  0.4264440000000  0.5558250000000  0.5179980000000 1.0
C      1  0.4869140000000  0.4059310000000  0.5191960000000 1.0
C      1  0.4689960000000  0.4220340000000  0.5031180000000 1.0
C      1  0.5880650000000  0.5096530000000  0.4985510000000 1.0
C      1  0.4481000000000  0.5670120000000  0.5019000000000 1.0
C      1  0.4776960000000  0.5846120000000  0.4771900000000 1.0
C      1  0.4374030000000  0.4367030000000  0.4783430000000 1.0
C      1  0.5854170000000  0.4741480000000  0.4773450000000 1.0
C      1  0.4862000000000  0.5103680000000  0.4055860000000 1.0
C      1  0.4982970000000  0.4838500000000  0.4053270000000 1.0
C      1  0.5160350000000  0.5082960000000  0.4052770000000 1.0
C      1  0.4847820000000  0.5873020000000  0.5332850000000 1.0
C      1  0.4321730000000  0.4444020000000  0.5320420000000 1.0
C      1  0.5816830000000  0.4677090000000  0.5324710000000 1.0
C      1  0.4159920000000  0.4814180000000  0.4664070000000 1.0
C      1  0.5582890000000  0.4316280000000  0.4715840000000 1.0
C      1  0.5304410000000  0.5849060000000  0.4659330000000 1.0
C      1  0.4193910000000  0.5026790000000  0.4404640000000 1.0
C      1  0.5372290000000  0.4305430000000  0.4447770000000 1.0
C      1  0.5445210000000  0.5668570000000  0.4439420000000 1.0
C      1  0.5244730000000  0.5453680000000  0.4316840000000 1.0
C      1  0.4432410000000  0.4937880000000  0.4275520000000 1.0
C      1  0.5359930000000  0.4576980000000  0.4312730000000 1.0
C      1  0.4525420000000  0.4731330000000  0.5049790000000 1.0
C      1  0.5472380000000  0.4692180000000  0.5052180000000 1.0
C      1  0.5016040000000  0.5581540000000  0.5037150000000 1.0
C      1  0.5354970000000  0.5881530000000  0.4947620000000 1.0
C      1  0.4100780000000  0.4794920000000  0.4973790000000 1.0
C      1  0.5572490000000  0.4266260000000  0.4998400000000 1.0
C      1  0.4653820000000  0.4244830000000  0.4745090000000 1.0
C      1  0.5825590000000  0.5031690000000  0.4715260000000 1.0
C      1  0.4534780000000  0.5687440000000  0.4735670000000 1.0
C      1  0.5677780000000  0.5018670000000  0.5722750000000 1.0
C      1  0.4641930000000  0.5563780000000  0.5743040000000 1.0
C      1  0.4711460000000  0.4417810000000  0.5737850000000 1.0
C      1  0.5450750000000  0.4666280000000  0.4572490000000 1.0
C      1  0.5101470000000  0.5523170000000  0.4572290000000 1.0
C      1  0.4462120000000  0.4821700000000  0.4608110000000 1.0
C      1  0.4755760000000  0.5518080000000  0.5143520000000 1.0
C      1  0.4690010000000  0.4539800000000  0.5170140000000 1.0
C      1  0.5546580000000  0.4944520000000  0.5160370000000 1.0
C      1  0.4884280000000  0.4640880000000  0.4247100000000 1.0
C      1  0.5387680000000  0.5131460000000  0.4230360000000 1.0
C      1  0.4742710000000  0.5292770000000  0.4259920000000 1.0
C      1  0.5102460000000  0.5012980000000  0.4519790000000 1.0
C      1  0.4853440000000  0.5162860000000  0.4504470000000 1.0
C      1  0.4984100000000  0.4747280000000  0.4498520000000 1.0
C      1  0.4487160000000  0.5479140000000  0.4518680000000 1.0
C      1  0.4839340000000  0.4316780000000  0.4528050000000 1.0
C      1  0.5668510000000  0.5201520000000  0.4523930000000 1.0
C      1  0.4942140000000  0.4557430000000  0.4997370000000 1.0
C      1  0.5426890000000  0.5163980000000  0.4991240000000 1.0
C      1  0.4656460000000  0.5290210000000  0.4974970000000 1.0
C      1  0.4032440000000  0.5072770000000  0.5016920000000 1.0
C      1  0.5382170000000  0.4051250000000  0.5052980000000 1.0
C      1  0.5609180000000  0.5804330000000  0.5060110000000 1.0
C      1  0.5397590000000  0.4886260000000  0.5412310000000 1.0
C      1  0.4912430000000  0.5436710000000  0.5421210000000 1.0
C      1  0.4679750000000  0.4720710000000  0.5429530000000 1.0
C      1  0.5464230000000  0.5638260000000  0.5259080000000 1.0
C      1  0.4239360000000  0.5272590000000  0.5290910000000 1.0
C      1  0.5160710000000  0.4134170000000  0.5238930000000 1.0
C      1  0.5699230000000  0.4554600000000  0.4623440000000 1.0
C      1  0.5020530000000  0.5802110000000  0.4607870000000 1.0
C      1  0.4307580000000  0.4586110000000  0.4607010000000 1.0
C      1  0.5473010000000  0.4674180000000  0.5619960000000 1.0
C      1  0.5045510000000  0.5564280000000  0.5661230000000 1.0
C      1  0.4490110000000  0.4763930000000  0.5655590000000 1.0
C      1  0.4997310000000  0.4992840000000  0.5024390000000 1.0
END
