TITL C-2441160-1326-1294 0.0357405516135243 125000 -19413.3928601027 0 0 138 (C1) n - 1
REM
REM in /home/bkarasulu/work/CARBON/AIRSS/Generating-Clusters/ReaxFF-fromJPCA2015/Units_Real/with-SteepDescent/Higher-Symm
REM
REM
REM
REM
REM
REM ./C.cell (1df0a924f5614ab8850e4351716899ee)
REM
REM compiler GCC version 9.2.1 20190827 (Red Hat 9.2.1-1)
REM options -cpp -mtune=generic -march=x86-64 -g -O0 -fpre-include=/usr/include/finclude/math-vector-fortran.h
REM seed -691366472 1660565245 -1852654473 -500368137 -116372846 -1370110763 1166488537 -1593641204 -1585711099 -1334811113 -1262375390 -872581568 -2098977641 1651224617 1322067191 105430926 -1633030861 157780825 1164408804 574493159 -1836451823 1820821833 -849845296 1473107110 -1343405319 -562669040 -1973958389 -1476729961 446357356 -706455398 -598936648 1077302050 -2073641529
REM
CELL 1.54180   50.00000   50.00000   50.00000   90.00000   90.00000   90.00000
LATT -1
SFAC C  
C      1  0.5149400000000  0.5341170000000  0.5225760000000 1.0
C      1  0.4833310000000  0.5309930000000  0.4774640000000 1.0
C      1  0.4875680000000  0.5278510000000  0.5214260000000 1.0
C      1  0.5130740000000  0.5376840000000  0.4795040000000 1.0
C      1  0.4539950000000  0.5923890000000  0.4811640000000 1.0
C      1  0.5486000000000  0.5949590000000  0.5129690000000 1.0
C      1  0.5590620000000  0.5858000000000  0.4890070000000 1.0
C      1  0.4461850000000  0.5912450000000  0.5094770000000 1.0
C      1  0.4445180000000  0.5711120000000  0.5471500000000 1.0
C      1  0.5585230000000  0.5690970000000  0.4501190000000 1.0
C      1  0.5582130000000  0.5690770000000  0.5540930000000 1.0
C      1  0.4382640000000  0.5670990000000  0.4489130000000 1.0
C      1  0.4385260000000  0.4740010000000  0.4284540000000 1.0
C      1  0.5621830000000  0.4724160000000  0.5724330000000 1.0
C      1  0.5614070000000  0.4725640000000  0.4281130000000 1.0
C      1  0.4383800000000  0.4726890000000  0.5722160000000 1.0
C      1  0.5363730000000  0.5310200000000  0.5847050000000 1.0
C      1  0.4634490000000  0.5320240000000  0.4131730000000 1.0
C      1  0.4649020000000  0.5329780000000  0.5830230000000 1.0
C      1  0.5357320000000  0.5321710000000  0.4151020000000 1.0
C      1  0.4720970000000  0.5052090000000  0.5885690000000 1.0
C      1  0.5265910000000  0.5051850000000  0.4109290000000 1.0
C      1  0.5280750000000  0.5038110000000  0.5888930000000 1.0
C      1  0.4731540000000  0.5051680000000  0.4099630000000 1.0
C      1  0.4060810000000  0.4814380000000  0.4867340000000 1.0
C      1  0.5928050000000  0.4820040000000  0.5143260000000 1.0
C      1  0.5935120000000  0.4827360000000  0.4859510000000 1.0
C      1  0.4073850000000  0.4829060000000  0.5150440000000 1.0
C      1  0.4836130000000  0.4562110000000  0.4726480000000 1.0
C      1  0.5163570000000  0.4539330000000  0.5297090000000 1.0
C      1  0.5166530000000  0.4543350000000  0.4726200000000 1.0
C      1  0.4835860000000  0.4540810000000  0.5265080000000 1.0
C      1  0.4596470000000  0.4783780000000  0.5914070000000 1.0
C      1  0.5401080000000  0.4785050000000  0.4088030000000 1.0
C      1  0.5406450000000  0.4769760000000  0.5917170000000 1.0
C      1  0.4598820000000  0.4785330000000  0.4087320000000 1.0
C      1  0.4201800000000  0.4574130000000  0.5317820000000 1.0
C      1  0.5802190000000  0.4574130000000  0.4686710000000 1.0
C      1  0.5811100000000  0.4576110000000  0.5315920000000 1.0
C      1  0.4184350000000  0.4576670000000  0.4684910000000 1.0
C      1  0.4741320000000  0.5251290000000  0.5451490000000 1.0
C      1  0.5221840000000  0.5295190000000  0.4540430000000 1.0
C      1  0.5263590000000  0.5242180000000  0.5454180000000 1.0
C      1  0.4784650000000  0.5284160000000  0.4505700000000 1.0
C      1  0.5355040000000  0.4752730000000  0.5177830000000 1.0
C      1  0.4661020000000  0.4791960000000  0.4844990000000 1.0
C      1  0.4650870000000  0.4775410000000  0.5161000000000 1.0
C      1  0.5368200000000  0.4760830000000  0.4831480000000 1.0
C      1  0.4852580000000  0.4706330000000  0.5549340000000 1.0
C      1  0.5144360000000  0.4718750000000  0.4451840000000 1.0
C      1  0.5144240000000  0.4691470000000  0.5552800000000 1.0
C      1  0.4848180000000  0.4721520000000  0.4452230000000 1.0
C      1  0.4747090000000  0.5552020000000  0.5159930000000 1.0
C      1  0.5201780000000  0.5632170000000  0.4916300000000 1.0
C      1  0.5219420000000  0.5609450000000  0.5207660000000 1.0
C      1  0.4661240000000  0.5524000000000  0.4903480000000 1.0
C      1  0.4824590000000  0.5474160000000  0.5625690000000 1.0
C      1  0.5182400000000  0.5522900000000  0.4353030000000 1.0
C      1  0.5172320000000  0.5466280000000  0.5656050000000 1.0
C      1  0.4817190000000  0.5523760000000  0.4329430000000 1.0
C      1  0.4372700000000  0.4509300000000  0.4467020000000 1.0
C      1  0.5626770000000  0.4497540000000  0.5536780000000 1.0
C      1  0.5621770000000  0.4494890000000  0.4469790000000 1.0
C      1  0.4380780000000  0.4494880000000  0.5535220000000 1.0
C      1  0.5286340000000  0.5685020000000  0.5485930000000 1.0
C      1  0.4660100000000  0.5726430000000  0.4469090000000 1.0
C      1  0.4739900000000  0.5720020000000  0.5398780000000 1.0
C      1  0.5296320000000  0.5729970000000  0.4532300000000 1.0
C      1  0.5731990000000  0.5432410000000  0.4430900000000 1.0
C      1  0.4279010000000  0.5460580000000  0.5534190000000 1.0
C      1  0.4240140000000  0.5407500000000  0.4455530000000 1.0
C      1  0.5745060000000  0.5438750000000  0.5539130000000 1.0
C      1  0.5155520000000  0.4982650000000  0.4857140000000 1.0
C      1  0.4863030000000  0.4994850000000  0.5134210000000 1.0
C      1  0.4860830000000  0.5012850000000  0.4858670000000 1.0
C      1  0.5133830000000  0.4934400000000  0.5127480000000 1.0
C      1  0.4709960000000  0.4275820000000  0.5302840000000 1.0
C      1  0.5290300000000  0.4273850000000  0.4695070000000 1.0
C      1  0.5291080000000  0.4275070000000  0.5296800000000 1.0
C      1  0.4701780000000  0.4287170000000  0.4714360000000 1.0
C      1  0.5158830000000  0.4322890000000  0.4273690000000 1.0
C      1  0.4840650000000  0.4319810000000  0.5729000000000 1.0
C      1  0.4851020000000  0.4322280000000  0.4271010000000 1.0
C      1  0.5151570000000  0.4312780000000  0.5734110000000 1.0
C      1  0.4409850000000  0.5192160000000  0.4875550000000 1.0
C      1  0.5541180000000  0.5212840000000  0.5161970000000 1.0
C      1  0.5560650000000  0.5208580000000  0.4854550000000 1.0
C      1  0.4454790000000  0.5216420000000  0.5181970000000 1.0
C      1  0.5972280000000  0.5125630000000  0.5151750000000 1.0
C      1  0.3993530000000  0.5110870000000  0.4854530000000 1.0
C      1  0.4029770000000  0.5125140000000  0.5149900000000 1.0
C      1  0.5980180000000  0.5120910000000  0.4857490000000 1.0
C      1  0.4181430000000  0.5302900000000  0.4728250000000 1.0
C      1  0.5791490000000  0.5329670000000  0.5269470000000 1.0
C      1  0.5787280000000  0.5352410000000  0.4724150000000 1.0
C      1  0.4201600000000  0.5355600000000  0.5265610000000 1.0
C      1  0.5621000000000  0.5245040000000  0.5724780000000 1.0
C      1  0.4379850000000  0.5243650000000  0.4259470000000 1.0
C      1  0.4387910000000  0.5256540000000  0.5714860000000 1.0
C      1  0.5619830000000  0.5236640000000  0.4253360000000 1.0
C      1  0.4460110000000  0.4956350000000  0.5313670000000 1.0
C      1  0.5548440000000  0.4971280000000  0.4693620000000 1.0
C      1  0.5540850000000  0.4960180000000  0.5310960000000 1.0
C      1  0.4457080000000  0.4974800000000  0.4705850000000 1.0
C      1  0.4790230000000  0.4591830000000  0.4188950000000 1.0
C      1  0.5208380000000  0.4579440000000  0.5823110000000 1.0
C      1  0.5207180000000  0.4594120000000  0.4189110000000 1.0
C      1  0.4791690000000  0.4589510000000  0.5815350000000 1.0
C      1  0.5394420000000  0.4306620000000  0.4445570000000 1.0
C      1  0.4607550000000  0.4304850000000  0.5554540000000 1.0
C      1  0.4604970000000  0.4316760000000  0.4442620000000 1.0
C      1  0.5394920000000  0.4309960000000  0.5564410000000 1.0
C      1  0.5641090000000  0.4977260000000  0.4418650000000 1.0
C      1  0.4363110000000  0.4981250000000  0.5584070000000 1.0
C      1  0.4356600000000  0.4993180000000  0.4427260000000 1.0
C      1  0.5641820000000  0.4977840000000  0.5579860000000 1.0
C      1  0.5175210000000  0.6008570000000  0.5087520000000 1.0
C      1  0.4812630000000  0.5992450000000  0.4894530000000 1.0
C      1  0.4901150000000  0.5940480000000  0.5166130000000 1.0
C      1  0.5129870000000  0.5896960000000  0.4808070000000 1.0
C      1  0.4429370000000  0.5648140000000  0.4783630000000 1.0
C      1  0.5635540000000  0.5762830000000  0.5280880000000 1.0
C      1  0.5753500000000  0.5690170000000  0.4748380000000 1.0
C      1  0.4298350000000  0.5737820000000  0.5234410000000 1.0
C      1  0.5725070000000  0.4420730000000  0.4868080000000 1.0
C      1  0.4279270000000  0.4421530000000  0.5135690000000 1.0
C      1  0.4267300000000  0.4432540000000  0.4874680000000 1.0
C      1  0.5732650000000  0.4427870000000  0.5129600000000 1.0
C      1  0.4834880000000  0.5013570000000  0.5606110000000 1.0
C      1  0.5154180000000  0.5038450000000  0.4396420000000 1.0
C      1  0.5164550000000  0.5007960000000  0.5606410000000 1.0
C      1  0.4855250000000  0.5041520000000  0.4380330000000 1.0
C      1  0.4854980000000  0.4035580000000  0.5265060000000 1.0
C      1  0.5153340000000  0.4031560000000  0.4734740000000 1.0
C      1  0.5148780000000  0.4032730000000  0.5252170000000 1.0
C      1  0.4850410000000  0.4028180000000  0.4745640000000 1.0
C      1  0.5248420000000  0.4007320000000  0.4994890000000 1.0
C      1  0.4749420000000  0.4006790000000  0.5005760000000 1.0
END
