TITL C-2441156-4686-1075 0.20904821872521 125000 -23975.6150920903 0 0 198 (C1) n - 1
REM
REM in /home/bkarasulu/work/CARBON/AIRSS/Generating-Clusters/ReaxFF-fromJPCA2015/Units_Real/with-SteepDescent/Higher-Symm
REM
REM
REM
REM
REM
REM ./C.cell (1df0a924f5614ab8850e4351716899ee)
REM
REM compiler GCC version 9.2.1 20190827 (Red Hat 9.2.1-1)
REM options -cpp -mtune=generic -march=x86-64 -g -O0 -fpre-include=/usr/include/finclude/math-vector-fortran.h
REM seed 1023545616 98122433 1193660264 -1613814912 1189812005 -376723607 -36147696 352865238 497299243 -1604658350 -2121700873 1760367019 36012458 45366858 1916267065 1637652569 1374744800 844382225 623058914 -2041905766 1605555514 818793449 926899222 1215879774 -1211333039 -125064302 1112721487 -450831402 205385795 -2020359742 1051308170 -195382318 -16948464
REM
CELL 1.54180   50.00000   50.00000   50.00000   90.00000   90.00000   90.00000
LATT -1
SFAC C  
C      1  0.4799950000000  0.4446720000000  0.5891180000000 1.0
C      1  0.4803850000000  0.3952120000000  0.4743690000000 1.0
C      1  0.4834390000000  0.4917770000000  0.4006600000000 1.0
C      1  0.4727690000000  0.5985460000000  0.4619000000000 1.0
C      1  0.4695550000000  0.5662190000000  0.5839510000000 1.0
C      1  0.5215550000000  0.4387610000000  0.5871430000000 1.0
C      1  0.5230450000000  0.3978470000000  0.4679660000000 1.0
C      1  0.5242680000000  0.4953260000000  0.3943480000000 1.0
C      1  0.5252160000000  0.6010130000000  0.4628650000000 1.0
C      1  0.5186550000000  0.5645910000000  0.5858460000000 1.0
C      1  0.5934900000000  0.5230480000000  0.5571170000000 1.0
C      1  0.5923830000000  0.4509650000000  0.5396820000000 1.0
C      1  0.5911650000000  0.4436860000000  0.4626140000000 1.0
C      1  0.5910700000000  0.5159480000000  0.4422260000000 1.0
C      1  0.5913630000000  0.5644550000000  0.4962340000000 1.0
C      1  0.4089060000000  0.5212580000000  0.5642920000000 1.0
C      1  0.4085910000000  0.4518790000000  0.5377380000000 1.0
C      1  0.4095520000000  0.4434430000000  0.4640190000000 1.0
C      1  0.4074010000000  0.5171820000000  0.4397420000000 1.0
C      1  0.4073150000000  0.5617660000000  0.5009790000000 1.0
C      1  0.4797120000000  0.4937320000000  0.5754640000000 1.0
C      1  0.4823130000000  0.4378780000000  0.5211100000000 1.0
C      1  0.4915550000000  0.4630610000000  0.4411600000000 1.0
C      1  0.4870780000000  0.5428640000000  0.4573690000000 1.0
C      1  0.4982810000000  0.5612760000000  0.5283770000000 1.0
C      1  0.5058310000000  0.4937390000000  0.5614630000000 1.0
C      1  0.5077140000000  0.4324080000000  0.5101200000000 1.0
C      1  0.5148130000000  0.4802030000000  0.4392410000000 1.0
C      1  0.5139140000000  0.5457400000000  0.4452040000000 1.0
C      1  0.5198270000000  0.5637340000000  0.5112240000000 1.0
C      1  0.4211000000000  0.4296870000000  0.4890270000000 1.0
C      1  0.4191570000000  0.4893330000000  0.4299420000000 1.0
C      1  0.4210440000000  0.5622630000000  0.4619370000000 1.0
C      1  0.4209710000000  0.5523820000000  0.5524230000000 1.0
C      1  0.4196710000000  0.4651890000000  0.5614700000000 1.0
C      1  0.5817380000000  0.4293890000000  0.4897630000000 1.0
C      1  0.5800540000000  0.4878020000000  0.4334160000000 1.0
C      1  0.5788210000000  0.5605870000000  0.4681880000000 1.0
C      1  0.5830610000000  0.5489210000000  0.5450560000000 1.0
C      1  0.5836750000000  0.4709650000000  0.5611830000000 1.0
C      1  0.4761000000000  0.5940900000000  0.4910260000000 1.0
C      1  0.4804910000000  0.5378060000000  0.5855280000000 1.0
C      1  0.4842160000000  0.4276610000000  0.5635650000000 1.0
C      1  0.4846110000000  0.4151010000000  0.4507240000000 1.0
C      1  0.4769920000000  0.5188420000000  0.4058270000000 1.0
C      1  0.5212870000000  0.6011040000000  0.4916030000000 1.0
C      1  0.5107490000000  0.5365730000000  0.5860670000000 1.0
C      1  0.5133470000000  0.4274710000000  0.5604240000000 1.0
C      1  0.5160390000000  0.4203540000000  0.4480740000000 1.0
C      1  0.5206730000000  0.5219000000000  0.4060850000000 1.0
C      1  0.6132320000000  0.5322580000000  0.4865410000000 1.0
C      1  0.6170960000000  0.5246560000000  0.5144340000000 1.0
C      1  0.6134030000000  0.4856460000000  0.5247380000000 1.0
C      1  0.6177980000000  0.4733960000000  0.4979630000000 1.0
C      1  0.6142340000000  0.4889170000000  0.4735860000000 1.0
C      1  0.3938480000000  0.5394980000000  0.4857500000000 1.0
C      1  0.3850810000000  0.5191630000000  0.5198340000000 1.0
C      1  0.3835160000000  0.4914480000000  0.5278990000000 1.0
C      1  0.3833760000000  0.4718380000000  0.4931850000000 1.0
C      1  0.3851970000000  0.4910910000000  0.4719710000000 1.0
C      1  0.4461550000000  0.4757110000000  0.5228110000000 1.0
C      1  0.4428490000000  0.4736690000000  0.4799760000000 1.0
C      1  0.4458890000000  0.5149210000000  0.4570230000000 1.0
C      1  0.4483010000000  0.5463140000000  0.4997420000000 1.0
C      1  0.4522480000000  0.5168310000000  0.5433590000000 1.0
C      1  0.5508010000000  0.4606010000000  0.5279520000000 1.0
C      1  0.5483080000000  0.4604000000000  0.4734920000000 1.0
C      1  0.5597350000000  0.5083930000000  0.4699860000000 1.0
C      1  0.5555220000000  0.5326300000000  0.5003440000000 1.0
C      1  0.5514230000000  0.5148050000000  0.5455820000000 1.0
C      1  0.5412760000000  0.5637970000000  0.5471100000000 1.0
C      1  0.5452060000000  0.4734340000000  0.5737990000000 1.0
C      1  0.5447920000000  0.4207830000000  0.4977240000000 1.0
C      1  0.5404310000000  0.4768510000000  0.4284030000000 1.0
C      1  0.5374850000000  0.5592610000000  0.4550800000000 1.0
C      1  0.4585430000000  0.5617360000000  0.5461420000000 1.0
C      1  0.4576990000000  0.4746670000000  0.5724470000000 1.0
C      1  0.4603280000000  0.4266280000000  0.5031340000000 1.0
C      1  0.4578500000000  0.4776680000000  0.4287320000000 1.0
C      1  0.4611810000000  0.5613280000000  0.4537810000000 1.0
C      1  0.5587790000000  0.4810960000000  0.5486940000000 1.0
C      1  0.5584460000000  0.4460440000000  0.4979460000000 1.0
C      1  0.5584580000000  0.4840700000000  0.4538190000000 1.0
C      1  0.5575410000000  0.5404340000000  0.4727820000000 1.0
C      1  0.5574530000000  0.5410390000000  0.5322070000000 1.0
C      1  0.4411930000000  0.4801950000000  0.5492070000000 1.0
C      1  0.4413370000000  0.4488440000000  0.4951070000000 1.0
C      1  0.4398320000000  0.4862790000000  0.4519490000000 1.0
C      1  0.4399530000000  0.5414010000000  0.4708760000000 1.0
C      1  0.4423810000000  0.5415980000000  0.5332570000000 1.0
C      1  0.4183890000000  0.4551850000000  0.4389840000000 1.0
C      1  0.4158690000000  0.5456510000000  0.4376170000000 1.0
C      1  0.4153960000000  0.5707050000000  0.5280590000000 1.0
C      1  0.4163300000000  0.4958660000000  0.5765570000000 1.0
C      1  0.4160490000000  0.4296600000000  0.5206030000000 1.0
C      1  0.5850930000000  0.4578440000000  0.4371820000000 1.0
C      1  0.5833200000000  0.5439090000000  0.4420410000000 1.0
C      1  0.5838870000000  0.5711160000000  0.5246140000000 1.0
C      1  0.5860170000000  0.4987610000000  0.5728530000000 1.0
C      1  0.5856510000000  0.4276990000000  0.5219380000000 1.0
C      1  0.4521510000000  0.4518700000000  0.4150950000000 1.0
C      1  0.4588200000000  0.5660740000000  0.4271620000000 1.0
C      1  0.4609500000000  0.5895550000000  0.5412850000000 1.0
C      1  0.4483600000000  0.4859920000000  0.6011040000000 1.0
C      1  0.4536540000000  0.3998440000000  0.5200500000000 1.0
C      1  0.5451280000000  0.4507690000000  0.4114590000000 1.0
C      1  0.5423730000000  0.5687910000000  0.4275020000000 1.0
C      1  0.5400860000000  0.5922640000000  0.5414150000000 1.0
C      1  0.5451730000000  0.4882220000000  0.5989770000000 1.0
C      1  0.5447090000000  0.4027430000000  0.5174000000000 1.0
C      1  0.4523900000000  0.4477410000000  0.5773490000000 1.0
C      1  0.4555190000000  0.4109920000000  0.4784400000000 1.0
C      1  0.4429690000000  0.4952440000000  0.4108350000000 1.0
C      1  0.4448220000000  0.5812780000000  0.4670590000000 1.0
C      1  0.4432410000000  0.5653410000000  0.5703900000000 1.0
C      1  0.5475210000000  0.4453690000000  0.5759310000000 1.0
C      1  0.5496880000000  0.4105060000000  0.4728860000000 1.0
C      1  0.5516390000000  0.4961700000000  0.4089990000000 1.0
C      1  0.5481530000000  0.5821440000000  0.4692020000000 1.0
C      1  0.5451210000000  0.5563080000000  0.5749690000000 1.0
C      1  0.5633330000000  0.4151100000000  0.5357080000000 1.0
C      1  0.5637740000000  0.4391080000000  0.4303430000000 1.0
C      1  0.5615810000000  0.5472780000000  0.4231540000000 1.0
C      1  0.5615010000000  0.5896960000000  0.5218420000000 1.0
C      1  0.5642960000000  0.5088560000000  0.5901020000000 1.0
C      1  0.4370330000000  0.4174140000000  0.5366390000000 1.0
C      1  0.4391550000000  0.4361640000000  0.4357830000000 1.0
C      1  0.4380580000000  0.5487970000000  0.4194020000000 1.0
C      1  0.4385490000000  0.5872930000000  0.5236180000000 1.0
C      1  0.4372550000000  0.5102470000000  0.5904770000000 1.0
C      1  0.4817020000000  0.5673890000000  0.4126100000000 1.0
C      1  0.4910740000000  0.5868560000000  0.5456080000000 1.0
C      1  0.4753150000000  0.4947610000000  0.6063080000000 1.0
C      1  0.4759810000000  0.3938130000000  0.5340690000000 1.0
C      1  0.4802350000000  0.4454020000000  0.4186180000000 1.0
C      1  0.5142090000000  0.5623800000000  0.4209210000000 1.0
C      1  0.5135120000000  0.6049230000000  0.5372710000000 1.0
C      1  0.5161900000000  0.4875650000000  0.6008990000000 1.0
C      1  0.5158630000000  0.4039160000000  0.5178800000000 1.0
C      1  0.5187000000000  0.4458040000000  0.4029590000000 1.0
C      1  0.5129780000000  0.4215250000000  0.4179750000000 1.0
C      1  0.5122010000000  0.5467760000000  0.3968580000000 1.0
C      1  0.5117090000000  0.6169650000000  0.5119200000000 1.0
C      1  0.5105920000000  0.5159310000000  0.6076000000000 1.0
C      1  0.5129080000000  0.4008940000000  0.5481810000000 1.0
C      1  0.4847780000000  0.4174070000000  0.4213850000000 1.0
C      1  0.4851010000000  0.5452410000000  0.3956810000000 1.0
C      1  0.4850440000000  0.6121430000000  0.5099190000000 1.0
C      1  0.4827530000000  0.5219810000000  0.6124090000000 1.0
C      1  0.4869000000000  0.3966010000000  0.5592010000000 1.0
C      1  0.6054810000000  0.5140530000000  0.4663390000000 1.0
C      1  0.5961540000000  0.5393940000000  0.5043700000000 1.0
C      1  0.6021720000000  0.5096250000000  0.5335800000000 1.0
C      1  0.5943910000000  0.4668370000000  0.5158790000000 1.0
C      1  0.5967090000000  0.4682260000000  0.4749010000000 1.0
C      1  0.3987070000000  0.5164200000000  0.4665050000000 1.0
C      1  0.4047230000000  0.5343110000000  0.5081910000000 1.0
C      1  0.4020030000000  0.5077130000000  0.5405170000000 1.0
C      1  0.3996210000000  0.4733320000000  0.5157810000000 1.0
C      1  0.3998810000000  0.4678770000000  0.4727610000000 1.0
C      1  0.5482790000000  0.4378740000000  0.5477050000000 1.0
C      1  0.5458550000000  0.4346300000000  0.4553160000000 1.0
C      1  0.5464080000000  0.5231130000000  0.4174120000000 1.0
C      1  0.5405800000000  0.5821860000000  0.4987290000000 1.0
C      1  0.5493510000000  0.5268140000000  0.5726320000000 1.0
C      1  0.4560300000000  0.4331470000000  0.5523600000000 1.0
C      1  0.4608670000000  0.4319390000000  0.4590210000000 1.0
C      1  0.4509290000000  0.5219130000000  0.4229620000000 1.0
C      1  0.4524540000000  0.5770910000000  0.4986810000000 1.0
C      1  0.4619550000000  0.5174280000000  0.5706150000000 1.0
C      1  0.5213480000000  0.4997460000000  0.4799200000000 1.0
C      1  0.5312320000000  0.5214780000000  0.4999250000000 1.0
C      1  0.5300610000000  0.5085490000000  0.5254040000000 1.0
C      1  0.5282450000000  0.4778140000000  0.5191260000000 1.0
C      1  0.5255420000000  0.4711950000000  0.4883900000000 1.0
C      1  0.4685210000000  0.5065360000000  0.4739480000000 1.0
C      1  0.4697170000000  0.5261270000000  0.4972270000000 1.0
C      1  0.4726860000000  0.5131550000000  0.5230380000000 1.0
C      1  0.4709000000000  0.4831710000000  0.5166820000000 1.0
C      1  0.4711380000000  0.4794400000000  0.4864360000000 1.0
C      1  0.5090460000000  0.4738100000000  0.5410830000000 1.0
C      1  0.5071260000000  0.4489550000000  0.4869070000000 1.0
C      1  0.5139300000000  0.5057480000000  0.4512300000000 1.0
C      1  0.5151160000000  0.5422450000000  0.4948730000000 1.0
C      1  0.5106140000000  0.5169320000000  0.5452650000000 1.0
C      1  0.4845070000000  0.4642660000000  0.5313330000000 1.0
C      1  0.4839650000000  0.4545820000000  0.4695990000000 1.0
C      1  0.4870750000000  0.5126340000000  0.4525840000000 1.0
C      1  0.4901340000000  0.5418960000000  0.4858860000000 1.0
C      1  0.4907620000000  0.5343210000000  0.5354430000000 1.0
C      1  0.5033600000000  0.4594440000000  0.5973680000000 1.0
C      1  0.4985500000000  0.5989660000000  0.4545810000000 1.0
C      1  0.5044330000000  0.4738240000000  0.3950400000000 1.0
C      1  0.5046720000000  0.3917200000000  0.4891290000000 1.0
C      1  0.4946030000000  0.5773730000000  0.5756680000000 1.0
C      1  0.4264120000000  0.4903660000000  0.5029020000000 1.0
C      1  0.5690520000000  0.5037270000000  0.4966170000000 1.0
C      1  0.4994990000000  0.5008030000000  0.4968930000000 1.0
END
