TITL C-2441169-1362-730 0.0552517876084441 125000 -18745.9463020931 0 0 130 (C1) n - 1
REM
REM in /home/bkarasulu/work/CARBON/AIRSS/Generating-Clusters/ReaxFF-fromJPCA2015/Units_Real/with-SteepDescent/Higher-Symm
REM
REM
REM
REM
REM
REM ./C.cell (1df0a924f5614ab8850e4351716899ee)
REM
REM compiler GCC version 9.2.1 20190827 (Red Hat 9.2.1-1)
REM options -cpp -mtune=generic -march=x86-64 -g -O0 -fpre-include=/usr/include/finclude/math-vector-fortran.h
REM seed -577696346 131030623 1964123846 1771023007 555493401 1145285173 1267806511 -448273377 1729543717 1842659888 -1620049902 -269575330 -49679437 548647398 1926517827 -2042693772 -1976916330 -234396607 -1581010572 -31060172 1621653802 -94217816 1035682579 847837731 -1805632948 -1924188905 1091800142 1872872663 -1843292521 171230478 -124817799 1628697775 -691446103
REM
CELL 1.54180   50.00000   50.00000   50.00000   90.00000   90.00000   90.00000
LATT -1
SFAC C  
C      1  0.4591770000000  0.5310360000000  0.5716800000000 1.0
C      1  0.5712770000000  0.4588420000000  0.5325010000000 1.0
C      1  0.5338330000000  0.5717970000000  0.4570380000000 1.0
C      1  0.5424190000000  0.4684850000000  0.5700730000000 1.0
C      1  0.5426890000000  0.5329000000000  0.4305890000000 1.0
C      1  0.4587640000000  0.4690430000000  0.4309530000000 1.0
C      1  0.4323440000000  0.5416210000000  0.5323880000000 1.0
C      1  0.4301860000000  0.4584580000000  0.4696480000000 1.0
C      1  0.5715030000000  0.5430760000000  0.4689140000000 1.0
C      1  0.4685580000000  0.4302660000000  0.4589550000000 1.0
C      1  0.4734410000000  0.5673150000000  0.5414350000000 1.0
C      1  0.5312900000000  0.4296110000000  0.5416140000000 1.0
C      1  0.5402580000000  0.4840840000000  0.4120680000000 1.0
C      1  0.4120850000000  0.5408680000000  0.4841000000000 1.0
C      1  0.4827000000000  0.4110660000000  0.5409280000000 1.0
C      1  0.4613250000000  0.5171290000000  0.4118970000000 1.0
C      1  0.4603380000000  0.4832900000000  0.5909870000000 1.0
C      1  0.5375400000000  0.5156870000000  0.5810670000000 1.0
C      1  0.5902840000000  0.4609010000000  0.4842250000000 1.0
C      1  0.5885760000000  0.5397350000000  0.5172650000000 1.0
C      1  0.4108720000000  0.4605520000000  0.5181920000000 1.0
C      1  0.5188300000000  0.5891160000000  0.5420430000000 1.0
C      1  0.5168940000000  0.4106080000000  0.4588310000000 1.0
C      1  0.4846300000000  0.5908500000000  0.4611230000000 1.0
C      1  0.5113270000000  0.4121980000000  0.5330710000000 1.0
C      1  0.5325810000000  0.5129670000000  0.4129720000000 1.0
C      1  0.4135270000000  0.5328380000000  0.5131110000000 1.0
C      1  0.4909100000000  0.5889310000000  0.5340440000000 1.0
C      1  0.4879000000000  0.4104640000000  0.4676930000000 1.0
C      1  0.5128220000000  0.5870030000000  0.4685520000000 1.0
C      1  0.4688290000000  0.4886650000000  0.4119170000000 1.0
C      1  0.4684390000000  0.5116730000000  0.5907320000000 1.0
C      1  0.5319770000000  0.4878170000000  0.5878170000000 1.0
C      1  0.5902590000000  0.4681340000000  0.5128380000000 1.0
C      1  0.5883820000000  0.5322100000000  0.4891530000000 1.0
C      1  0.4114410000000  0.4681490000000  0.4897340000000 1.0
C      1  0.4479000000000  0.5724990000000  0.4970820000000 1.0
C      1  0.4941610000000  0.4419910000000  0.5811430000000 1.0
C      1  0.5736970000000  0.4971750000000  0.4463680000000 1.0
C      1  0.5562870000000  0.4244040000000  0.4964080000000 1.0
C      1  0.5614330000000  0.5798400000000  0.5004570000000 1.0
C      1  0.4437880000000  0.4233620000000  0.5040270000000 1.0
C      1  0.5033950000000  0.5565310000000  0.5811100000000 1.0
C      1  0.5058880000000  0.4474720000000  0.4288190000000 1.0
C      1  0.4964960000000  0.5554100000000  0.4266610000000 1.0
C      1  0.4238600000000  0.5032500000000  0.4447290000000 1.0
C      1  0.4245110000000  0.4969300000000  0.5567420000000 1.0
C      1  0.5797760000000  0.5029870000000  0.5581750000000 1.0
C      1  0.4775030000000  0.5825670000000  0.4339350000000 1.0
C      1  0.4342370000000  0.4778880000000  0.5777330000000 1.0
C      1  0.5779570000000  0.4339290000000  0.4786640000000 1.0
C      1  0.5240450000000  0.4192700000000  0.4329400000000 1.0
C      1  0.5214420000000  0.5775290000000  0.5685650000000 1.0
C      1  0.4799400000000  0.4244680000000  0.5653930000000 1.0
C      1  0.5713370000000  0.5215450000000  0.5784580000000 1.0
C      1  0.5664850000000  0.4774540000000  0.4215110000000 1.0
C      1  0.4345130000000  0.5219470000000  0.4237540000000 1.0
C      1  0.4214620000000  0.5667330000000  0.4775140000000 1.0
C      1  0.4231380000000  0.4339400000000  0.5230730000000 1.0
C      1  0.5805640000000  0.5688450000000  0.5199230000000 1.0
C      1  0.4495930000000  0.5635380000000  0.5262250000000 1.0
C      1  0.5208200000000  0.4481090000000  0.5615460000000 1.0
C      1  0.5657250000000  0.5267970000000  0.4461720000000 1.0
C      1  0.5523960000000  0.4380250000000  0.5233110000000 1.0
C      1  0.5572480000000  0.5672470000000  0.4741250000000 1.0
C      1  0.4460970000000  0.4355450000000  0.4769500000000 1.0
C      1  0.4779450000000  0.5531940000000  0.5659690000000 1.0
C      1  0.4760150000000  0.4471370000000  0.4370530000000 1.0
C      1  0.5259740000000  0.5551140000000  0.4356390000000 1.0
C      1  0.4357870000000  0.4758770000000  0.4471170000000 1.0
C      1  0.4372200000000  0.5240900000000  0.5547530000000 1.0
C      1  0.5657780000000  0.4750960000000  0.5555380000000 1.0
C      1  0.5109670000000  0.5789500000000  0.4949650000000 1.0
C      1  0.4955380000000  0.5128620000000  0.5985950000000 1.0
C      1  0.5982980000000  0.4952950000000  0.5141920000000 1.0
C      1  0.4859950000000  0.4026280000000  0.4951440000000 1.0
C      1  0.4891760000000  0.5950870000000  0.5058580000000 1.0
C      1  0.5128680000000  0.4043200000000  0.5061850000000 1.0
C      1  0.5057110000000  0.4865560000000  0.5981790000000 1.0
C      1  0.5057550000000  0.5136950000000  0.4048270000000 1.0
C      1  0.4957510000000  0.4873460000000  0.4040810000000 1.0
C      1  0.4039800000000  0.5065110000000  0.5145140000000 1.0
C      1  0.4030910000000  0.4956020000000  0.4877810000000 1.0
C      1  0.5976700000000  0.5054630000000  0.4876120000000 1.0
C      1  0.5143620000000  0.5322080000000  0.5913700000000 1.0
C      1  0.5915880000000  0.5152040000000  0.5334020000000 1.0
C      1  0.5338700000000  0.5778810000000  0.5148800000000 1.0
C      1  0.4851300000000  0.4670770000000  0.5935690000000 1.0
C      1  0.4862880000000  0.5327230000000  0.4107940000000 1.0
C      1  0.5151050000000  0.4685930000000  0.4105230000000 1.0
C      1  0.4099340000000  0.4862790000000  0.5337470000000 1.0
C      1  0.4100300000000  0.5145880000000  0.4678690000000 1.0
C      1  0.5916810000000  0.4855260000000  0.4685520000000 1.0
C      1  0.4667510000000  0.4090600000000  0.5152310000000 1.0
C      1  0.4690620000000  0.5919830000000  0.4863440000000 1.0
C      1  0.5303230000000  0.4149890000000  0.4865050000000 1.0
C      1  0.4567320000000  0.4621570000000  0.5158020000000 1.0
C      1  0.5165150000000  0.4575330000000  0.4546040000000 1.0
C      1  0.4669190000000  0.5087610000000  0.4564720000000 1.0
C      1  0.5408060000000  0.5499530000000  0.5170850000000 1.0
C      1  0.5444010000000  0.4643900000000  0.4933630000000 1.0
C      1  0.4578120000000  0.5442950000000  0.4900540000000 1.0
C      1  0.4858950000000  0.5476480000000  0.4525880000000 1.0
C      1  0.4982730000000  0.4598620000000  0.5432970000000 1.0
C      1  0.5094590000000  0.5490700000000  0.5410770000000 1.0
C      1  0.5459240000000  0.4932650000000  0.4600120000000 1.0
C      1  0.5408730000000  0.5166160000000  0.5517330000000 1.0
C      1  0.4674910000000  0.4912650000000  0.5438720000000 1.0
C      1  0.5404780000000  0.5079970000000  0.4851280000000 1.0
C      1  0.4780390000000  0.5301920000000  0.5070460000000 1.0
C      1  0.5083750000000  0.4849790000000  0.5337640000000 1.0
C      1  0.4568380000000  0.4988870000000  0.4793320000000 1.0
C      1  0.4611860000000  0.5059710000000  0.5205520000000 1.0
C      1  0.5353480000000  0.4956310000000  0.5321740000000 1.0
C      1  0.5157630000000  0.4671340000000  0.4952640000000 1.0
C      1  0.5309300000000  0.5330530000000  0.4968530000000 1.0
C      1  0.4789840000000  0.4529080000000  0.5031420000000 1.0
C      1  0.4905870000000  0.5303160000000  0.5346110000000 1.0
C      1  0.5003230000000  0.4754440000000  0.4707990000000 1.0
C      1  0.5042990000000  0.5292160000000  0.4649850000000 1.0
C      1  0.5049970000000  0.5435960000000  0.4906120000000 1.0
C      1  0.5479970000000  0.4903300000000  0.5062910000000 1.0
C      1  0.5031030000000  0.4415680000000  0.4961600000000 1.0
C      1  0.4920450000000  0.5045460000000  0.5473080000000 1.0
C      1  0.4963750000000  0.5021220000000  0.4589800000000 1.0
C      1  0.4468030000000  0.4886810000000  0.5028090000000 1.0
C      1  0.5363380000000  0.5431080000000  0.5425190000000 1.0
C      1  0.4687900000000  0.4619120000000  0.5428870000000 1.0
C      1  0.4597730000000  0.5377720000000  0.4618900000000 1.0
C      1  0.5429250000000  0.4644860000000  0.4635010000000 1.0
END
