TITL C-2441165-58-629 0.00603474555962251 125000 -4886.79224234816 0 0 38 (C1) n - 1
REM
REM in /home/bkarasulu/work/CARBON/AIRSS/Generating-Clusters/ReaxFF-fromJPCA2015/Units_Real/with-SteepDescent/Higher-Symm
REM
REM
REM
REM
REM
REM ./C.cell (1df0a924f5614ab8850e4351716899ee)
REM
REM compiler GCC version 9.2.1 20190827 (Red Hat 9.2.1-1)
REM options -cpp -mtune=generic -march=x86-64 -g -O0 -fpre-include=/usr/include/finclude/math-vector-fortran.h
REM seed -853047922 -1938028825 -629411164 912278307 -1556867737 -404265130 -1397317376 1107555417 838999469 -934147895 -592024137 98924842 -1550443351 -1664287544 -1578414549 -1355034275 1393608924 1576842303 -608260432 -1653563606 264384801 1459447064 -4275195 -1744038076 1809958150 416519914 -1940146712 1569846534 -665392509 1487494091 -1706047733 -6145453 630004466
REM
CELL 1.54180   50.00000   50.00000   50.00000   90.00000   90.00000   90.00000
LATT -1
SFAC C  
C      1  0.5456840000000  0.5233870000000  0.5365590000000 1.0
C      1  0.5430700000000  0.4828560000000  0.5433750000000 1.0
C      1  0.5434390000000  0.4551980000000  0.5127320000000 1.0
C      1  0.5408350000000  0.4609230000000  0.4734440000000 1.0
C      1  0.5397480000000  0.4978580000000  0.4585970000000 1.0
C      1  0.5420290000000  0.5363150000000  0.4701400000000 1.0
C      1  0.5502600000000  0.5497560000000  0.5063190000000 1.0
C      1  0.5302780000000  0.5382570000000  0.5192880000000 1.0
C      1  0.5324470000000  0.5049580000000  0.5415870000000 1.0
C      1  0.5319800000000  0.4689370000000  0.5275840000000 1.0
C      1  0.5263780000000  0.4547340000000  0.4907570000000 1.0
C      1  0.5234220000000  0.4742850000000  0.4558080000000 1.0
C      1  0.5249870000000  0.5209840000000  0.4569860000000 1.0
C      1  0.5329210000000  0.5475750000000  0.4900410000000 1.0
C      1  0.4722940000000  0.5473020000000  0.5259110000000 1.0
C      1  0.4733740000000  0.5099640000000  0.5506860000000 1.0
C      1  0.4730530000000  0.4659550000000  0.5405300000000 1.0
C      1  0.4738420000000  0.4472030000000  0.4986940000000 1.0
C      1  0.4764160000000  0.4669340000000  0.4606100000000 1.0
C      1  0.4764300000000  0.5094660000000  0.4489150000000 1.0
C      1  0.4788810000000  0.5439280000000  0.4762870000000 1.0
C      1  0.4896740000000  0.4563400000000  0.5202720000000 1.0
C      1  0.4941380000000  0.4536040000000  0.4799940000000 1.0
C      1  0.4938440000000  0.4859150000000  0.4494190000000 1.0
C      1  0.4958880000000  0.5284370000000  0.4572990000000 1.0
C      1  0.4877590000000  0.5469790000000  0.5025600000000 1.0
C      1  0.4901310000000  0.5277730000000  0.5369720000000 1.0
C      1  0.4903950000000  0.4881740000000  0.5442320000000 1.0
C      1  0.4513220000000  0.5078050000000  0.4656040000000 1.0
C      1  0.4523660000000  0.5306570000000  0.4839050000000 1.0
C      1  0.4491270000000  0.5308610000000  0.5130780000000 1.0
C      1  0.4488050000000  0.5073220000000  0.5305260000000 1.0
C      1  0.4490000000000  0.4786970000000  0.5237510000000 1.0
C      1  0.4492780000000  0.4663040000000  0.4972330000000 1.0
C      1  0.4506680000000  0.4793440000000  0.4714370000000 1.0
C      1  0.5026650000000  0.4990350000000  0.4982570000000 1.0
C      1  0.5282310000000  0.5002710000000  0.4914580000000 1.0
C      1  0.4782360000000  0.4978170000000  0.5040740000000 1.0
END
