TITL C-2441167-4473-507 0.1228992738062 125000 -20564.6870593253 0 0 162 (C1) n - 1
REM
REM in /home/bkarasulu/work/CARBON/AIRSS/Generating-Clusters/ReaxFF-fromJPCA2015/Units_Real/with-SteepDescent/Higher-Symm
REM
REM
REM
REM
REM
REM ./C.cell (1df0a924f5614ab8850e4351716899ee)
REM
REM compiler GCC version 9.2.1 20190827 (Red Hat 9.2.1-1)
REM options -cpp -mtune=generic -march=x86-64 -g -O0 -fpre-include=/usr/include/finclude/math-vector-fortran.h
REM seed -1528807753 638868426 -682757792 -348401920 -230727930 538861527 196520147 181976357 1482314318 1082116741 1298849742 1855241185 -334781236 437012132 998764893 -1567753394 -1123849279 -1698643289 -1657775807 1260164615 1320078662 1945496464 -1787822363 -812720504 -185341145 -49814465 1223818247 77035705 -1343034505 945204882 -997596410 -231194212 -328974152
REM
CELL 1.54180   50.00000   50.00000   50.00000   90.00000   90.00000   90.00000
LATT -1
SFAC C  
C      1  0.5174760000000  0.4423090000000  0.4361140000000 1.0
C      1  0.5174190000000  0.5555590000000  0.4318700000000 1.0
C      1  0.4338350000000  0.4721540000000  0.5345610000000 1.0
C      1  0.4319890000000  0.5284440000000  0.5328320000000 1.0
C      1  0.5399040000000  0.4291020000000  0.5412270000000 1.0
C      1  0.5349600000000  0.5681260000000  0.5430640000000 1.0
C      1  0.5926780000000  0.5377530000000  0.4819500000000 1.0
C      1  0.5761560000000  0.4481300000000  0.4803900000000 1.0
C      1  0.4574740000000  0.4631000000000  0.5764430000000 1.0
C      1  0.4532680000000  0.5368040000000  0.5793560000000 1.0
C      1  0.4531690000000  0.4628190000000  0.4884240000000 1.0
C      1  0.4538950000000  0.5382320000000  0.4895290000000 1.0
C      1  0.4736240000000  0.4200970000000  0.4451540000000 1.0
C      1  0.4687390000000  0.5762550000000  0.4380770000000 1.0
C      1  0.4706010000000  0.4440250000000  0.4305910000000 1.0
C      1  0.4667190000000  0.5506050000000  0.4246560000000 1.0
C      1  0.4618730000000  0.5665890000000  0.5529330000000 1.0
C      1  0.4605230000000  0.4300430000000  0.5514420000000 1.0
C      1  0.5545110000000  0.5574740000000  0.5243620000000 1.0
C      1  0.5647570000000  0.4367170000000  0.5288510000000 1.0
C      1  0.5502360000000  0.4675760000000  0.4325380000000 1.0
C      1  0.5617340000000  0.5399950000000  0.4465550000000 1.0
C      1  0.4148420000000  0.5390230000000  0.4632680000000 1.0
C      1  0.4082690000000  0.4597550000000  0.4685120000000 1.0
C      1  0.4825390000000  0.5387190000000  0.4942670000000 1.0
C      1  0.4821850000000  0.4700260000000  0.5006880000000 1.0
C      1  0.5004550000000  0.5568090000000  0.5833480000000 1.0
C      1  0.5037880000000  0.4443370000000  0.5759900000000 1.0
C      1  0.4934600000000  0.4125420000000  0.5179460000000 1.0
C      1  0.4927630000000  0.5829880000000  0.5147030000000 1.0
C      1  0.5556040000000  0.5658100000000  0.4966780000000 1.0
C      1  0.5620810000000  0.4293060000000  0.5002650000000 1.0
C      1  0.5103380000000  0.5356770000000  0.5331960000000 1.0
C      1  0.5170790000000  0.4626480000000  0.5275730000000 1.0
C      1  0.5809970000000  0.4622140000000  0.5300800000000 1.0
C      1  0.5876070000000  0.5250440000000  0.5361990000000 1.0
C      1  0.5979000000000  0.5378210000000  0.5110370000000 1.0
C      1  0.5945640000000  0.4556830000000  0.5031860000000 1.0
C      1  0.4848960000000  0.5247220000000  0.4243930000000 1.0
C      1  0.4926410000000  0.4731240000000  0.4218290000000 1.0
C      1  0.5067610000000  0.4654840000000  0.4828050000000 1.0
C      1  0.5041820000000  0.5299360000000  0.4778910000000 1.0
C      1  0.5233840000000  0.5377970000000  0.5020890000000 1.0
C      1  0.5296600000000  0.4661370000000  0.5008510000000 1.0
C      1  0.4806660000000  0.5750030000000  0.5348300000000 1.0
C      1  0.4753730000000  0.4213290000000  0.5354910000000 1.0
C      1  0.4814530000000  0.5908140000000  0.4892560000000 1.0
C      1  0.4814640000000  0.4074420000000  0.4904170000000 1.0
C      1  0.5217390000000  0.4666160000000  0.4208410000000 1.0
C      1  0.5163400000000  0.5235340000000  0.4260970000000 1.0
C      1  0.4098620000000  0.4537100000000  0.4947610000000 1.0
C      1  0.4078240000000  0.5337050000000  0.4906040000000 1.0
C      1  0.5005790000000  0.5883630000000  0.4680160000000 1.0
C      1  0.4944360000000  0.4102890000000  0.4654480000000 1.0
C      1  0.4230540000000  0.4483290000000  0.5190510000000 1.0
C      1  0.4214160000000  0.5475680000000  0.5132130000000 1.0
C      1  0.5009390000000  0.4526120000000  0.4591010000000 1.0
C      1  0.4966960000000  0.5713720000000  0.4450580000000 1.0
C      1  0.4483280000000  0.4388300000000  0.5044010000000 1.0
C      1  0.4446850000000  0.5623440000000  0.5042760000000 1.0
C      1  0.5385610000000  0.4215450000000  0.4442150000000 1.0
C      1  0.5460340000000  0.5623910000000  0.4334650000000 1.0
C      1  0.5237780000000  0.4128560000000  0.4684970000000 1.0
C      1  0.5254350000000  0.5843090000000  0.4780430000000 1.0
C      1  0.5074450000000  0.5352860000000  0.6020780000000 1.0
C      1  0.5150040000000  0.4604420000000  0.5970150000000 1.0
C      1  0.4746480000000  0.5537240000000  0.5739940000000 1.0
C      1  0.4806980000000  0.4528040000000  0.5607930000000 1.0
C      1  0.4538040000000  0.4159180000000  0.4867780000000 1.0
C      1  0.4535310000000  0.5848440000000  0.4869590000000 1.0
C      1  0.4482570000000  0.4263750000000  0.4597890000000 1.0
C      1  0.4491300000000  0.5780620000000  0.4593510000000 1.0
C      1  0.5608880000000  0.5296970000000  0.5284830000000 1.0
C      1  0.5632010000000  0.4813130000000  0.5159240000000 1.0
C      1  0.5263070000000  0.4499830000000  0.5574210000000 1.0
C      1  0.5228500000000  0.5503740000000  0.5640330000000 1.0
C      1  0.4385450000000  0.4546550000000  0.4645190000000 1.0
C      1  0.4443400000000  0.5479880000000  0.4611650000000 1.0
C      1  0.5293290000000  0.5282800000000  0.5852000000000 1.0
C      1  0.5354140000000  0.4699390000000  0.5804790000000 1.0
C      1  0.4382710000000  0.4546680000000  0.5567090000000 1.0
C      1  0.4405150000000  0.5447740000000  0.5546430000000 1.0
C      1  0.5196220000000  0.5847170000000  0.5251280000000 1.0
C      1  0.5235070000000  0.4166220000000  0.5210490000000 1.0
C      1  0.4842200000000  0.5343390000000  0.5225910000000 1.0
C      1  0.4904280000000  0.4629600000000  0.5304090000000 1.0
C      1  0.5368600000000  0.4162630000000  0.4957420000000 1.0
C      1  0.5370680000000  0.5861580000000  0.5010990000000 1.0
C      1  0.4678790000000  0.5332210000000  0.4475030000000 1.0
C      1  0.4797550000000  0.4655860000000  0.4468120000000 1.0
C      1  0.5613780000000  0.4636980000000  0.4595290000000 1.0
C      1  0.5630510000000  0.5426710000000  0.4764890000000 1.0
C      1  0.6176410000000  0.4960900000000  0.4499090000000 1.0
C      1  0.5149400000000  0.4882970000000  0.6158760000000 1.0
C      1  0.5290380000000  0.5050520000000  0.4468560000000 1.0
C      1  0.5997150000000  0.4975450000000  0.5755620000000 1.0
C      1  0.4753860000000  0.4985490000000  0.5550270000000 1.0
C      1  0.5445310000000  0.5036500000000  0.5242460000000 1.0
C      1  0.4584000000000  0.5003850000000  0.3943150000000 1.0
C      1  0.4133960000000  0.5161180000000  0.4462120000000 1.0
C      1  0.5649760000000  0.4896770000000  0.4201630000000 1.0
C      1  0.5197190000000  0.5050490000000  0.4022930000000 1.0
C      1  0.4139800000000  0.5004900000000  0.6092840000000 1.0
C      1  0.3716000000000  0.4958490000000  0.4542140000000 1.0
C      1  0.5385340000000  0.4998630000000  0.5501620000000 1.0
C      1  0.5192600000000  0.4972670000000  0.3616050000000 1.0
C      1  0.5201850000000  0.4988770000000  0.5860270000000 1.0
C      1  0.3885920000000  0.5063050000000  0.4323660000000 1.0
C      1  0.4717960000000  0.4991640000000  0.3747930000000 1.0
C      1  0.5464670000000  0.5081250000000  0.3896690000000 1.0
C      1  0.5199990000000  0.5056550000000  0.5074380000000 1.0
C      1  0.4678670000000  0.5080960000000  0.6256500000000 1.0
C      1  0.5833480000000  0.4972230000000  0.5493370000000 1.0
C      1  0.4433480000000  0.5015130000000  0.6140530000000 1.0
C      1  0.6389950000000  0.4995230000000  0.5301350000000 1.0
C      1  0.6240670000000  0.5016010000000  0.4773480000000 1.0
C      1  0.5439110000000  0.4971480000000  0.3645950000000 1.0
C      1  0.5146630000000  0.5112340000000  0.5478300000000 1.0
C      1  0.3983130000000  0.4965340000000  0.4079800000000 1.0
C      1  0.4985260000000  0.5013690000000  0.3793250000000 1.0
C      1  0.4536440000000  0.5103560000000  0.5890380000000 1.0
C      1  0.4155610000000  0.5003590000000  0.5781140000000 1.0
C      1  0.5682740000000  0.5126850000000  0.4372700000000 1.0
C      1  0.4027460000000  0.5025960000000  0.5514990000000 1.0
C      1  0.5975900000000  0.5024840000000  0.4016020000000 1.0
C      1  0.5642680000000  0.4996370000000  0.5999380000000 1.0
C      1  0.4448500000000  0.5044800000000  0.4933890000000 1.0
C      1  0.6021140000000  0.5148560000000  0.4661010000000 1.0
C      1  0.4216410000000  0.5014980000000  0.4091690000000 1.0
C      1  0.6238620000000  0.5002880000000  0.5762580000000 1.0
C      1  0.4747400000000  0.4975770000000  0.4178160000000 1.0
C      1  0.5911910000000  0.4995280000000  0.5982000000000 1.0
C      1  0.4916580000000  0.4971210000000  0.5080540000000 1.0
C      1  0.4349690000000  0.4962120000000  0.3895310000000 1.0
C      1  0.4039400000000  0.4955590000000  0.5209730000000 1.0
C      1  0.3893030000000  0.4834710000000  0.4687570000000 1.0
C      1  0.5719130000000  0.4942590000000  0.3933540000000 1.0
C      1  0.6410450000000  0.5011510000000  0.5566910000000 1.0
C      1  0.4946660000000  0.5135820000000  0.6190590000000 1.0
C      1  0.5605550000000  0.4988240000000  0.5672720000000 1.0
C      1  0.3929200000000  0.5008380000000  0.5916690000000 1.0
C      1  0.4600690000000  0.4979290000000  0.4668160000000 1.0
C      1  0.6098480000000  0.5005860000000  0.4234860000000 1.0
C      1  0.4559320000000  0.4913780000000  0.5713090000000 1.0
C      1  0.3689880000000  0.4959860000000  0.4828790000000 1.0
C      1  0.5099430000000  0.5025850000000  0.4678780000000 1.0
C      1  0.4455640000000  0.5018270000000  0.5236920000000 1.0
C      1  0.5801190000000  0.4963440000000  0.4994380000000 1.0
C      1  0.4343900000000  0.4968900000000  0.4518540000000 1.0
C      1  0.3762130000000  0.5014260000000  0.5571800000000 1.0
C      1  0.4569650000000  0.4965190000000  0.4377130000000 1.0
C      1  0.5437510000000  0.4957990000000  0.6207640000000 1.0
C      1  0.4157600000000  0.5060680000000  0.4966020000000 1.0
C      1  0.6158380000000  0.4936410000000  0.5273990000000 1.0
C      1  0.5593430000000  0.5088790000000  0.4836870000000 1.0
C      1  0.5576150000000  0.4963830000000  0.4580020000000 1.0
C      1  0.5325170000000  0.4938020000000  0.4876650000000 1.0
C      1  0.3759520000000  0.4975770000000  0.5118830000000 1.0
C      1  0.3613350000000  0.5000280000000  0.5359020000000 1.0
C      1  0.6105520000000  0.4960780000000  0.5021020000000 1.0
C      1  0.4734100000000  0.5074500000000  0.5286760000000 1.0
C      1  0.4989970000000  0.4990420000000  0.5659830000000 1.0
END
