TITL C-2441165-58-1453 0.0163212849090237 125000 -14567.210866945 0 0 105 (C1) n - 1
REM
REM in /home/bkarasulu/work/CARBON/AIRSS/Generating-Clusters/ReaxFF-fromJPCA2015/Units_Real/with-SteepDescent/Higher-Symm
REM
REM
REM
REM
REM
REM ./C.cell (1df0a924f5614ab8850e4351716899ee)
REM
REM compiler GCC version 9.2.1 20190827 (Red Hat 9.2.1-1)
REM options -cpp -mtune=generic -march=x86-64 -g -O0 -fpre-include=/usr/include/finclude/math-vector-fortran.h
REM seed -769238961 607536768 -536474312 -1076665015 463569798 -724028630 -1800790105 -153135507 821303132 1080362251 -1769599613 -945722001 584491049 1913604807 -1740950806 -145054457 -1077823948 655797640 1814663932 1626486959 1514735920 1390395214 992867397 -2074428725 1780888904 -661624486 -564302176 2120248800 -337716311 -559726541 -255072016 318423393 -264011158
REM
CELL 1.54180   50.00000   50.00000   50.00000   90.00000   90.00000   90.00000
LATT -1
SFAC C  
C      1  0.4395000000000  0.4473680000000  0.4724240000000 1.0
C      1  0.4846130000000  0.5824470000000  0.4664120000000 1.0
C      1  0.5777190000000  0.4701000000000  0.4662340000000 1.0
C      1  0.4401810000000  0.4499920000000  0.5401300000000 1.0
C      1  0.4854200000000  0.5807500000000  0.5326940000000 1.0
C      1  0.5750840000000  0.4733250000000  0.5353870000000 1.0
C      1  0.5622230000000  0.4460980000000  0.4675280000000 1.0
C      1  0.5127350000000  0.5821720000000  0.4646930000000 1.0
C      1  0.4241020000000  0.4708070000000  0.4673230000000 1.0
C      1  0.5571910000000  0.4496970000000  0.5381710000000 1.0
C      1  0.5133180000000  0.5786930000000  0.5332670000000 1.0
C      1  0.4232500000000  0.4715850000000  0.5359690000000 1.0
C      1  0.4858280000000  0.4289610000000  0.4627030000000 1.0
C      1  0.4397430000000  0.5493040000000  0.4737040000000 1.0
C      1  0.5692130000000  0.5244920000000  0.4621960000000 1.0
C      1  0.4859610000000  0.4258900000000  0.5358140000000 1.0
C      1  0.4396660000000  0.5496140000000  0.5252390000000 1.0
C      1  0.5719820000000  0.5249240000000  0.5382340000000 1.0
C      1  0.5129940000000  0.4257840000000  0.4730980000000 1.0
C      1  0.5590440000000  0.5482540000000  0.4748530000000 1.0
C      1  0.4297360000000  0.5239290000000  0.4623700000000 1.0
C      1  0.5128290000000  0.4275180000000  0.5254640000000 1.0
C      1  0.5615140000000  0.5497660000000  0.5269180000000 1.0
C      1  0.4296620000000  0.5252150000000  0.5374030000000 1.0
C      1  0.5299010000000  0.4992430000000  0.4027440000000 1.0
C      1  0.4852470000000  0.4740600000000  0.4006030000000 1.0
C      1  0.4859030000000  0.5261710000000  0.4029800000000 1.0
C      1  0.5285250000000  0.4971100000000  0.5958250000000 1.0
C      1  0.4847640000000  0.4705880000000  0.5925360000000 1.0
C      1  0.4853940000000  0.5238190000000  0.5955150000000 1.0
C      1  0.4706410000000  0.5001890000000  0.4013150000000 1.0
C      1  0.5152250000000  0.4735950000000  0.4009230000000 1.0
C      1  0.5152140000000  0.5266360000000  0.4032570000000 1.0
C      1  0.4709680000000  0.4965600000000  0.5948910000000 1.0
C      1  0.5148520000000  0.4710770000000  0.5948050000000 1.0
C      1  0.5143920000000  0.5243500000000  0.5964720000000 1.0
C      1  0.4861870000000  0.4416000000000  0.5602030000000 1.0
C      1  0.4614180000000  0.5384440000000  0.5590250000000 1.0
C      1  0.5553600000000  0.5154090000000  0.5610460000000 1.0
C      1  0.4858650000000  0.4431040000000  0.4366750000000 1.0
C      1  0.4616750000000  0.5384250000000  0.4410800000000 1.0
C      1  0.5549610000000  0.5149780000000  0.4383800000000 1.0
C      1  0.5133320000000  0.4457120000000  0.5627610000000 1.0
C      1  0.5395360000000  0.5371970000000  0.5602770000000 1.0
C      1  0.4454310000000  0.5166190000000  0.5599790000000 1.0
C      1  0.5128190000000  0.4455670000000  0.4367360000000 1.0
C      1  0.5387890000000  0.5366110000000  0.4370370000000 1.0
C      1  0.4471460000000  0.5158740000000  0.4399200000000 1.0
C      1  0.5924040000000  0.4802640000000  0.4873940000000 1.0
C      1  0.4366590000000  0.4356210000000  0.4936250000000 1.0
C      1  0.4676790000000  0.5950100000000  0.4858780000000 1.0
C      1  0.5904550000000  0.4820190000000  0.5144530000000 1.0
C      1  0.4407190000000  0.4339170000000  0.5175350000000 1.0
C      1  0.4678150000000  0.5945830000000  0.5143720000000 1.0
C      1  0.4088770000000  0.4833800000000  0.4870850000000 1.0
C      1  0.5655850000000  0.4317630000000  0.4915050000000 1.0
C      1  0.5305800000000  0.5853010000000  0.4848270000000 1.0
C      1  0.4080710000000  0.4796040000000  0.5143510000000 1.0
C      1  0.5649460000000  0.4318310000000  0.5168940000000 1.0
C      1  0.5308030000000  0.5851430000000  0.5128100000000 1.0
C      1  0.4814910000000  0.4749980000000  0.4764570000000 1.0
C      1  0.4822590000000  0.5234630000000  0.4934490000000 1.0
C      1  0.5398190000000  0.4902370000000  0.4860390000000 1.0
C      1  0.4791720000000  0.4723780000000  0.5227340000000 1.0
C      1  0.4932300000000  0.5281150000000  0.5191760000000 1.0
C      1  0.5352870000000  0.5005920000000  0.5124080000000 1.0
C      1  0.5210570000000  0.4728600000000  0.4759740000000 1.0
C      1  0.5062760000000  0.5329760000000  0.4795810000000 1.0
C      1  0.4658950000000  0.4989010000000  0.4872700000000 1.0
C      1  0.5189880000000  0.4779150000000  0.5231240000000 1.0
C      1  0.5205970000000  0.5298620000000  0.5085200000000 1.0
C      1  0.4595500000000  0.4900550000000  0.5133010000000 1.0
C      1  0.4673190000000  0.5654190000000  0.5156720000000 1.0
C      1  0.5680640000000  0.4986990000000  0.5229250000000 1.0
C      1  0.4675400000000  0.4441850000000  0.5237860000000 1.0
C      1  0.4676810000000  0.5650280000000  0.4831350000000 1.0
C      1  0.5670960000000  0.4946460000000  0.4754170000000 1.0
C      1  0.4674470000000  0.4492720000000  0.4733990000000 1.0
C      1  0.5303890000000  0.5572380000000  0.5253000000000 1.0
C      1  0.4332500000000  0.4951560000000  0.5242170000000 1.0
C      1  0.5308650000000  0.4515180000000  0.5248420000000 1.0
C      1  0.5284980000000  0.5599380000000  0.4723250000000 1.0
C      1  0.4311800000000  0.4981620000000  0.4774300000000 1.0
C      1  0.5333720000000  0.4479580000000  0.4727790000000 1.0
C      1  0.4521790000000  0.4887620000000  0.5744570000000 1.0
C      1  0.5169810000000  0.5441120000000  0.5750900000000 1.0
C      1  0.5346720000000  0.4617880000000  0.5722820000000 1.0
C      1  0.4539050000000  0.4902720000000  0.4229540000000 1.0
C      1  0.5163340000000  0.5468260000000  0.4242810000000 1.0
C      1  0.5318420000000  0.4615990000000  0.4225580000000 1.0
C      1  0.5472620000000  0.4895360000000  0.5756970000000 1.0
C      1  0.4837010000000  0.5442000000000  0.5747580000000 1.0
C      1  0.4649020000000  0.4619340000000  0.5714180000000 1.0
C      1  0.5472140000000  0.4889420000000  0.4227110000000 1.0
C      1  0.4833860000000  0.5452290000000  0.4248970000000 1.0
C      1  0.4678920000000  0.4640780000000  0.4219170000000 1.0
C      1  0.4842800000000  0.4872970000000  0.5465860000000 1.0
C      1  0.5043620000000  0.5147400000000  0.4563300000000 1.0
C      1  0.5164850000000  0.4881220000000  0.4533690000000 1.0
C      1  0.4936740000000  0.5142950000000  0.5444620000000 1.0
C      1  0.5116090000000  0.4921690000000  0.5470190000000 1.0
C      1  0.4880580000000  0.4911100000000  0.4535300000000 1.0
C      1  0.5035780000000  0.4230740000000  0.4993400000000 1.0
C      1  0.5671790000000  0.5421690000000  0.5005350000000 1.0
C      1  0.4325330000000  0.5421180000000  0.4994440000000 1.0
END
