TITL C-2441159-1093-1245 0.124704389517649 125000 -21519.730044203 0 0 165 (C1) n - 1
REM
REM in /home/bkarasulu/work/CARBON/AIRSS/Generating-Clusters/ReaxFF-fromJPCA2015/Units_Real/with-SteepDescent/Higher-Symm
REM
REM
REM
REM
REM
REM ./C.cell (1df0a924f5614ab8850e4351716899ee)
REM
REM compiler GCC version 9.2.1 20190827 (Red Hat 9.2.1-1)
REM options -cpp -mtune=generic -march=x86-64 -g -O0 -fpre-include=/usr/include/finclude/math-vector-fortran.h
REM seed 2035734162 387601349 -1468884315 -2130398317 275110838 190968192 1511021223 1763904763 -1444214823 644937225 -493372709 654316360 678399995 363519511 615681745 70221234 -744429095 1856880914 939769621 -239043836 2094095950 -1547397096 624122822 1703565493 1316548620 1258071473 -1757655215 -596527498 1602118613 -171924428 -1591168746 168259998 1434617705
REM
CELL 1.54180   50.00000   50.00000   50.00000   90.00000   90.00000   90.00000
LATT -1
SFAC C  
C      1  0.5214560000000  0.4623700000000  0.4700340000000 1.0
C      1  0.5167620000000  0.4582080000000  0.5227540000000 1.0
C      1  0.5087770000000  0.5184170000000  0.5401460000000 1.0
C      1  0.5063500000000  0.5418810000000  0.4949840000000 1.0
C      1  0.5079450000000  0.5148040000000  0.4574770000000 1.0
C      1  0.5198090000000  0.5380880000000  0.4696350000000 1.0
C      1  0.5168230000000  0.5368420000000  0.5206340000000 1.0
C      1  0.5081090000000  0.4775230000000  0.5413960000000 1.0
C      1  0.5077630000000  0.4585080000000  0.4956620000000 1.0
C      1  0.5084890000000  0.4853050000000  0.4576000000000 1.0
C      1  0.5194130000000  0.5554400000000  0.4066570000000 1.0
C      1  0.5124340000000  0.4297930000000  0.4177780000000 1.0
C      1  0.5244960000000  0.4036810000000  0.5448990000000 1.0
C      1  0.5282540000000  0.5147250000000  0.6040800000000 1.0
C      1  0.5116260000000  0.6015330000000  0.5222370000000 1.0
C      1  0.5244950000000  0.4489360000000  0.4031780000000 1.0
C      1  0.5260980000000  0.5765550000000  0.4220200000000 1.0
C      1  0.5257330000000  0.5957430000000  0.5452180000000 1.0
C      1  0.5282380000000  0.4865010000000  0.6039230000000 1.0
C      1  0.5109140000000  0.3985840000000  0.5221960000000 1.0
C      1  0.4275050000000  0.5138450000000  0.4216080000000 1.0
C      1  0.4230530000000  0.4244770000000  0.4595410000000 1.0
C      1  0.4280110000000  0.4395090000000  0.5560510000000 1.0
C      1  0.4273400000000  0.5375420000000  0.5745880000000 1.0
C      1  0.4221560000000  0.5799920000000  0.4869970000000 1.0
C      1  0.4264680000000  0.4856520000000  0.4212490000000 1.0
C      1  0.4238320000000  0.5749010000000  0.4587680000000 1.0
C      1  0.4283920000000  0.5604580000000  0.5558730000000 1.0
C      1  0.4273470000000  0.4623640000000  0.5745640000000 1.0
C      1  0.4217120000000  0.4200820000000  0.4878400000000 1.0
C      1  0.4089720000000  0.4420120000000  0.5035410000000 1.0
C      1  0.4125950000000  0.4848250000000  0.5633740000000 1.0
C      1  0.4108580000000  0.5620250000000  0.5328710000000 1.0
C      1  0.4106860000000  0.5511570000000  0.4601430000000 1.0
C      1  0.4093840000000  0.4716730000000  0.4440060000000 1.0
C      1  0.4095360000000  0.5582680000000  0.5030470000000 1.0
C      1  0.4129130000000  0.5147220000000  0.5632760000000 1.0
C      1  0.4100150000000  0.4380770000000  0.5332600000000 1.0
C      1  0.4105480000000  0.4485800000000  0.4602970000000 1.0
C      1  0.4097740000000  0.5279290000000  0.4440360000000 1.0
C      1  0.4967490000000  0.5596390000000  0.5618600000000 1.0
C      1  0.4939090000000  0.5815270000000  0.4572400000000 1.0
C      1  0.4903240000000  0.4804760000000  0.4140140000000 1.0
C      1  0.5074530000000  0.4136960000000  0.4804480000000 1.0
C      1  0.4917860000000  0.4606260000000  0.5816940000000 1.0
C      1  0.4993520000000  0.4404230000000  0.5626890000000 1.0
C      1  0.4920740000000  0.4200450000000  0.4593360000000 1.0
C      1  0.4996170000000  0.5056920000000  0.4173200000000 1.0
C      1  0.5085560000000  0.5863540000000  0.4798660000000 1.0
C      1  0.4904370000000  0.5392560000000  0.5811690000000 1.0
C      1  0.5544650000000  0.5163240000000  0.5501240000000 1.0
C      1  0.5632130000000  0.5458560000000  0.5012110000000 1.0
C      1  0.5521680000000  0.5149400000000  0.4569190000000 1.0
C      1  0.5683200000000  0.4737890000000  0.4785170000000 1.0
C      1  0.5607170000000  0.4655660000000  0.5257370000000 1.0
C      1  0.5533430000000  0.4860530000000  0.5500330000000 1.0
C      1  0.5535970000000  0.4579820000000  0.4982040000000 1.0
C      1  0.5528720000000  0.4871040000000  0.4569500000000 1.0
C      1  0.5683500000000  0.5292270000000  0.4767100000000 1.0
C      1  0.5560970000000  0.5403330000000  0.5303760000000 1.0
C      1  0.4712710000000  0.5947700000000  0.4564030000000 1.0
C      1  0.4735270000000  0.4734730000000  0.3944940000000 1.0
C      1  0.4695210000000  0.3946100000000  0.4848120000000 1.0
C      1  0.4758800000000  0.4598790000000  0.6022040000000 1.0
C      1  0.4784100000000  0.5819130000000  0.5694050000000 1.0
C      1  0.4708610000000  0.4040770000000  0.4574460000000 1.0
C      1  0.4799000000000  0.5218460000000  0.4020870000000 1.0
C      1  0.4701340000000  0.6049230000000  0.4843270000000 1.0
C      1  0.4758330000000  0.5406530000000  0.6023960000000 1.0
C      1  0.4787550000000  0.4191260000000  0.5687950000000 1.0
C      1  0.4519000000000  0.3904900000000  0.5207440000000 1.0
C      1  0.4492060000000  0.4876400000000  0.6127140000000 1.0
C      1  0.4552540000000  0.6025230000000  0.5441420000000 1.0
C      1  0.4488310000000  0.5786690000000  0.4135960000000 1.0
C      1  0.4497340000000  0.4426390000000  0.4070210000000 1.0
C      1  0.4524360000000  0.6094250000000  0.5201920000000 1.0
C      1  0.4494510000000  0.5128020000000  0.6130660000000 1.0
C      1  0.4553730000000  0.3976810000000  0.5444970000000 1.0
C      1  0.4482330000000  0.4206090000000  0.4151200000000 1.0
C      1  0.4503140000000  0.5561700000000  0.4078940000000 1.0
C      1  0.5049440000000  0.4115360000000  0.5646790000000 1.0
C      1  0.5050550000000  0.5323080000000  0.6025610000000 1.0
C      1  0.4979790000000  0.6058820000000  0.4980560000000 1.0
C      1  0.5009830000000  0.5386390000000  0.3948850000000 1.0
C      1  0.5005230000000  0.4161180000000  0.4328630000000 1.0
C      1  0.5050620000000  0.5884410000000  0.5644390000000 1.0
C      1  0.5049520000000  0.4688700000000  0.6034400000000 1.0
C      1  0.4971760000000  0.3938270000000  0.4982560000000 1.0
C      1  0.5025500000000  0.4653180000000  0.3942700000000 1.0
C      1  0.5035440000000  0.5820750000000  0.4349010000000 1.0
C      1  0.5645420000000  0.5920760000000  0.5161970000000 1.0
C      1  0.5570420000000  0.5403210000000  0.4163090000000 1.0
C      1  0.5585800000000  0.4367030000000  0.4390570000000 1.0
C      1  0.5570970000000  0.4122230000000  0.5430890000000 1.0
C      1  0.5585780000000  0.5147280000000  0.5954510000000 1.0
C      1  0.5631650000000  0.4100160000000  0.5142480000000 1.0
C      1  0.5543160000000  0.4567540000000  0.4163440000000 1.0
C      1  0.5541820000000  0.5641970000000  0.4356990000000 1.0
C      1  0.5566860000000  0.5861510000000  0.5432370000000 1.0
C      1  0.5583260000000  0.4863400000000  0.5953110000000 1.0
C      1  0.5513910000000  0.5726870000000  0.4992130000000 1.0
C      1  0.5429620000000  0.5221820000000  0.4314960000000 1.0
C      1  0.5343490000000  0.4401690000000  0.4564460000000 1.0
C      1  0.5395310000000  0.4466990000000  0.5357260000000 1.0
C      1  0.5278340000000  0.5227290000000  0.5612050000000 1.0
C      1  0.5480740000000  0.4295620000000  0.4984160000000 1.0
C      1  0.5416430000000  0.4795730000000  0.4309910000000 1.0
C      1  0.5381400000000  0.5567730000000  0.4600880000000 1.0
C      1  0.5327660000000  0.5537880000000  0.5348700000000 1.0
C      1  0.5282720000000  0.4766880000000  0.5612820000000 1.0
C      1  0.4677890000000  0.4670570000000  0.4753780000000 1.0
C      1  0.4678940000000  0.4671580000000  0.5235520000000 1.0
C      1  0.4806650000000  0.5140210000000  0.5421100000000 1.0
C      1  0.4795780000000  0.5407370000000  0.4988960000000 1.0
C      1  0.4796880000000  0.5144590000000  0.4567090000000 1.0
C      1  0.4674580000000  0.5325360000000  0.4755340000000 1.0
C      1  0.4679730000000  0.5329770000000  0.5241320000000 1.0
C      1  0.4807060000000  0.4854430000000  0.5421880000000 1.0
C      1  0.4803550000000  0.4599420000000  0.4985870000000 1.0
C      1  0.4800990000000  0.4852160000000  0.4572070000000 1.0
C      1  0.5824250000000  0.5282950000000  0.4241630000000 1.0
C      1  0.5820860000000  0.4409670000000  0.4543570000000 1.0
C      1  0.5773170000000  0.4324110000000  0.5467270000000 1.0
C      1  0.5743600000000  0.5242610000000  0.5722780000000 1.0
C      1  0.5918810000000  0.5809430000000  0.5070230000000 1.0
C      1  0.5816040000000  0.4742740000000  0.4226650000000 1.0
C      1  0.5829640000000  0.5630540000000  0.4486070000000 1.0
C      1  0.5715790000000  0.5612820000000  0.5478070000000 1.0
C      1  0.5735990000000  0.4773530000000  0.5711840000000 1.0
C      1  0.5900670000000  0.4208080000000  0.5037000000000 1.0
C      1  0.4466220000000  0.4055760000000  0.4979580000000 1.0
C      1  0.4495720000000  0.4686680000000  0.5926950000000 1.0
C      1  0.4526940000000  0.5799120000000  0.5586960000000 1.0
C      1  0.4498940000000  0.5794010000000  0.4418590000000 1.0
C      1  0.4484350000000  0.4704630000000  0.4093750000000 1.0
C      1  0.4471330000000  0.5943680000000  0.4973890000000 1.0
C      1  0.4495570000000  0.5315920000000  0.5928640000000 1.0
C      1  0.4531770000000  0.4210290000000  0.5579620000000 1.0
C      1  0.4487080000000  0.4174420000000  0.4428670000000 1.0
C      1  0.4510940000000  0.5278690000000  0.4105470000000 1.0
C      1  0.4410960000000  0.5299800000000  0.5234130000000 1.0
C      1  0.4416860000000  0.5285690000000  0.4785070000000 1.0
C      1  0.4272760000000  0.4865380000000  0.4614410000000 1.0
C      1  0.4276690000000  0.4643760000000  0.5009330000000 1.0
C      1  0.4274440000000  0.4868490000000  0.5390590000000 1.0
C      1  0.4409540000000  0.4700410000000  0.5232620000000 1.0
C      1  0.4418050000000  0.4704840000000  0.4781610000000 1.0
C      1  0.4268960000000  0.5127560000000  0.4618230000000 1.0
C      1  0.4281870000000  0.5359390000000  0.5009350000000 1.0
C      1  0.4275850000000  0.5131150000000  0.5386440000000 1.0
C      1  0.5944800000000  0.4837670000000  0.4458690000000 1.0
C      1  0.5978980000000  0.4485470000000  0.5036740000000 1.0
C      1  0.5937110000000  0.4855770000000  0.5522990000000 1.0
C      1  0.5943280000000  0.5434200000000  0.5408320000000 1.0
C      1  0.5919590000000  0.5388070000000  0.4624310000000 1.0
C      1  0.5974720000000  0.5137440000000  0.4426430000000 1.0
C      1  0.5933500000000  0.5523070000000  0.5127040000000 1.0
C      1  0.5952260000000  0.5146520000000  0.5541480000000 1.0
C      1  0.5904700000000  0.4571670000000  0.5325740000000 1.0
C      1  0.5952290000000  0.4595750000000  0.4719950000000 1.0
C      1  0.5293450000000  0.5029240000000  0.4177750000000 1.0
C      1  0.5336540000000  0.4189090000000  0.4761420000000 1.0
C      1  0.5271200000000  0.5513620000000  0.5628480000000 1.0
C      1  0.5353040000000  0.5790550000000  0.4777250000000 1.0
C      1  0.5299810000000  0.4483020000000  0.5629070000000 1.0
END
