TITL C-2441160-1326-600 0.0109956832596324 125000 -8972.12889968768 0 0 65 (C1) n - 1
REM
REM in /home/bkarasulu/work/CARBON/AIRSS/Generating-Clusters/ReaxFF-fromJPCA2015/Units_Real/with-SteepDescent/Higher-Symm
REM
REM
REM
REM
REM
REM ./C.cell (1df0a924f5614ab8850e4351716899ee)
REM
REM compiler GCC version 9.2.1 20190827 (Red Hat 9.2.1-1)
REM options -cpp -mtune=generic -march=x86-64 -g -O0 -fpre-include=/usr/include/finclude/math-vector-fortran.h
REM seed -1841414535 76811564 1309478694 -762332383 972039112 -793752865 890884556 556663010 -746286426 110010728 -1244613823 -668751109 886881294 -1039800659 -824767703 972071098 1095856060 -690034033 901702991 132798228 -1540308993 -1491930951 1352415101 1886047916 -1681035729 -1211641000 -861495772 1826187191 1170493013 1686251563 228331514 -1625796447 -958689040
REM
CELL 1.54180   50.00000   50.00000   50.00000   90.00000   90.00000   90.00000
LATT -1
SFAC C  
C      1  0.4525640000000  0.4770200000000  0.5088810000000 1.0
C      1  0.5564310000000  0.4825860000000  0.5260230000000 1.0
C      1  0.4949700000000  0.5402650000000  0.5145270000000 1.0
C      1  0.4842610000000  0.5231650000000  0.4944730000000 1.0
C      1  0.4791370000000  0.4745090000000  0.4706060000000 1.0
C      1  0.5271690000000  0.5014760000000  0.4825260000000 1.0
C      1  0.4460550000000  0.5164960000000  0.4394880000000 1.0
C      1  0.5142260000000  0.4518110000000  0.4328810000000 1.0
C      1  0.5348290000000  0.5369750000000  0.4300340000000 1.0
C      1  0.5186010000000  0.5356500000000  0.5277870000000 1.0
C      1  0.4540780000000  0.4963160000000  0.5281840000000 1.0
C      1  0.5316110000000  0.4703920000000  0.5310890000000 1.0
C      1  0.4257230000000  0.5191480000000  0.5007110000000 1.0
C      1  0.5146810000000  0.4423060000000  0.5061320000000 1.0
C      1  0.5504320000000  0.5454570000000  0.5029960000000 1.0
C      1  0.5468940000000  0.4439060000000  0.4705610000000 1.0
C      1  0.5227810000000  0.5672510000000  0.4710980000000 1.0
C      1  0.4511840000000  0.4850550000000  0.4796300000000 1.0
C      1  0.4947580000000  0.5127460000000  0.4451850000000 1.0
C      1  0.4819430000000  0.4859250000000  0.4409380000000 1.0
C      1  0.5209620000000  0.5003210000000  0.4516920000000 1.0
C      1  0.5580110000000  0.5055020000000  0.4717210000000 1.0
C      1  0.4740410000000  0.5464970000000  0.4780030000000 1.0
C      1  0.4778180000000  0.4446460000000  0.4712910000000 1.0
C      1  0.5210820000000  0.5186400000000  0.5727150000000 1.0
C      1  0.4745620000000  0.5131190000000  0.5693620000000 1.0
C      1  0.5023060000000  0.4745940000000  0.5715930000000 1.0
C      1  0.4987900000000  0.4366760000000  0.4536270000000 1.0
C      1  0.5565120000000  0.5269150000000  0.4532510000000 1.0
C      1  0.4539780000000  0.5371410000000  0.4582790000000 1.0
C      1  0.4703180000000  0.4321400000000  0.4968730000000 1.0
C      1  0.5753110000000  0.5055460000000  0.4951250000000 1.0
C      1  0.4624380000000  0.5650410000000  0.4981450000000 1.0
C      1  0.4596180000000  0.5109350000000  0.4619670000000 1.0
C      1  0.5220890000000  0.4498730000000  0.4608550000000 1.0
C      1  0.5326130000000  0.5415600000000  0.4585880000000 1.0
C      1  0.5592120000000  0.5081190000000  0.5370840000000 1.0
C      1  0.4651470000000  0.5558880000000  0.5387090000000 1.0
C      1  0.4749380000000  0.4433920000000  0.5374840000000 1.0
C      1  0.4790200000000  0.4655120000000  0.5564640000000 1.0
C      1  0.5418380000000  0.5033180000000  0.5597450000000 1.0
C      1  0.4800520000000  0.5394010000000  0.5576130000000 1.0
C      1  0.5068070000000  0.5333940000000  0.4246690000000 1.0
C      1  0.4566610000000  0.4909590000000  0.4265200000000 1.0
C      1  0.5270370000000  0.4785690000000  0.4321020000000 1.0
C      1  0.4464630000000  0.5487490000000  0.5176750000000 1.0
C      1  0.4912670000000  0.4281050000000  0.5175230000000 1.0
C      1  0.5695610000000  0.5262350000000  0.5158610000000 1.0
C      1  0.4527350000000  0.5211900000000  0.5115240000000 1.0
C      1  0.5098330000000  0.4711820000000  0.5108090000000 1.0
C      1  0.5304770000000  0.5246720000000  0.5037020000000 1.0
C      1  0.4646570000000  0.4907380000000  0.5535780000000 1.0
C      1  0.5279330000000  0.4779370000000  0.5583150000000 1.0
C      1  0.5091170000000  0.5375010000000  0.5548600000000 1.0
C      1  0.5716260000000  0.4779170000000  0.5038160000000 1.0
C      1  0.4840840000000  0.5691350000000  0.5187030000000 1.0
C      1  0.4550950000000  0.4485910000000  0.5162670000000 1.0
C      1  0.5035170000000  0.5725970000000  0.4917610000000 1.0
C      1  0.4180620000000  0.4762070000000  0.4762620000000 1.0
C      1  0.5641960000000  0.4531290000000  0.4908480000000 1.0
C      1  0.5419450000000  0.4355290000000  0.4969180000000 1.0
C      1  0.5325580000000  0.5692450000000  0.4983070000000 1.0
C      1  0.4136020000000  0.4999170000000  0.4890280000000 1.0
C      1  0.5000100000000  0.4910310000000  0.4914840000000 1.0
C      1  0.4986060000000  0.5019560000000  0.5811510000000 1.0
END
