TITL C-2441160-1326-567 0.142019289254881 125000 -23877.9816587387 0 0 182 (C1) n - 1
REM
REM in /home/bkarasulu/work/CARBON/AIRSS/Generating-Clusters/ReaxFF-fromJPCA2015/Units_Real/with-SteepDescent/Higher-Symm
REM
REM
REM
REM
REM
REM ./C.cell (1df0a924f5614ab8850e4351716899ee)
REM
REM compiler GCC version 9.2.1 20190827 (Red Hat 9.2.1-1)
REM options -cpp -mtune=generic -march=x86-64 -g -O0 -fpre-include=/usr/include/finclude/math-vector-fortran.h
REM seed -1558535912 -1891111231 335770608 764624522 260444589 -466999208 2029758269 1689263254 1159029410 -656178438 2058598842 -1556219198 -127448277 2091725374 1863318112 -1733329006 -1730098183 634223684 1577133830 371772414 -123739712 678466803 -359420645 -1852899808 -1343752811 -1993365535 -682958686 -2146812287 -961832030 639432763 24002539 -1090902751 322604973
REM
CELL 1.54180   50.00000   50.00000   50.00000   90.00000   90.00000   90.00000
LATT -1
SFAC C  
C      1  0.5896760000000  0.4846710000000  0.4433910000000 1.0
C      1  0.5811860000000  0.5175870000000  0.5492260000000 1.0
C      1  0.4091770000000  0.5151340000000  0.4403400000000 1.0
C      1  0.4105610000000  0.4854070000000  0.5557580000000 1.0
C      1  0.4313600000000  0.4593800000000  0.4177780000000 1.0
C      1  0.4321550000000  0.5376200000000  0.5783760000000 1.0
C      1  0.5689470000000  0.5377770000000  0.4223970000000 1.0
C      1  0.5684540000000  0.4636460000000  0.5772600000000 1.0
C      1  0.5507060000000  0.4831070000000  0.5646580000000 1.0
C      1  0.5518540000000  0.5185170000000  0.4361800000000 1.0
C      1  0.4484700000000  0.5177670000000  0.5655620000000 1.0
C      1  0.4367580000000  0.4806450000000  0.4318830000000 1.0
C      1  0.5795320000000  0.4314300000000  0.4507740000000 1.0
C      1  0.5795800000000  0.5699190000000  0.5497670000000 1.0
C      1  0.4211100000000  0.5658700000000  0.4533750000000 1.0
C      1  0.4229970000000  0.4324560000000  0.5487530000000 1.0
C      1  0.4879570000000  0.5522340000000  0.4720340000000 1.0
C      1  0.4881460000000  0.4475530000000  0.5275090000000 1.0
C      1  0.5126780000000  0.4425180000000  0.4558330000000 1.0
C      1  0.5101640000000  0.5545930000000  0.5432460000000 1.0
C      1  0.5723420000000  0.5916650000000  0.5297100000000 1.0
C      1  0.5689950000000  0.4107220000000  0.4700580000000 1.0
C      1  0.4337250000000  0.4114810000000  0.5300410000000 1.0
C      1  0.4321570000000  0.5869400000000  0.4716700000000 1.0
C      1  0.5153800000000  0.5770940000000  0.4467890000000 1.0
C      1  0.5162460000000  0.4237740000000  0.5534680000000 1.0
C      1  0.4824380000000  0.4186460000000  0.4488850000000 1.0
C      1  0.4833520000000  0.5825020000000  0.5512820000000 1.0
C      1  0.5155200000000  0.4973780000000  0.5827640000000 1.0
C      1  0.5167160000000  0.5024720000000  0.4183280000000 1.0
C      1  0.4853830000000  0.5011920000000  0.5825000000000 1.0
C      1  0.4859670000000  0.4987430000000  0.4180650000000 1.0
C      1  0.5193940000000  0.4219660000000  0.5224190000000 1.0
C      1  0.5199140000000  0.5780280000000  0.4785880000000 1.0
C      1  0.4822030000000  0.5744850000000  0.5220010000000 1.0
C      1  0.4816370000000  0.4238630000000  0.4788780000000 1.0
C      1  0.4418510000000  0.5689100000000  0.5379850000000 1.0
C      1  0.4408880000000  0.4306680000000  0.4625200000000 1.0
C      1  0.5593970000000  0.4307170000000  0.5383620000000 1.0
C      1  0.5587510000000  0.5688560000000  0.4615590000000 1.0
C      1  0.4954450000000  0.4308340000000  0.5726190000000 1.0
C      1  0.4944570000000  0.5691100000000  0.4281620000000 1.0
C      1  0.5065050000000  0.5687850000000  0.5689460000000 1.0
C      1  0.5068560000000  0.4300240000000  0.4303190000000 1.0
C      1  0.5474510000000  0.5691420000000  0.4883180000000 1.0
C      1  0.5466110000000  0.4294010000000  0.5118560000000 1.0
C      1  0.4541520000000  0.4327420000000  0.4910830000000 1.0
C      1  0.4510310000000  0.5651870000000  0.5101460000000 1.0
C      1  0.4140370000000  0.4837420000000  0.4845370000000 1.0
C      1  0.4126740000000  0.5158760000000  0.5085690000000 1.0
C      1  0.5864420000000  0.5137360000000  0.4864590000000 1.0
C      1  0.5872770000000  0.4808700000000  0.5116890000000 1.0
C      1  0.5172880000000  0.4903940000000  0.4759510000000 1.0
C      1  0.5196140000000  0.5109190000000  0.5238920000000 1.0
C      1  0.4786050000000  0.5035700000000  0.4727910000000 1.0
C      1  0.4788990000000  0.4962090000000  0.5260680000000 1.0
C      1  0.4828290000000  0.5125660000000  0.4465190000000 1.0
C      1  0.4799850000000  0.4846400000000  0.5526920000000 1.0
C      1  0.5215020000000  0.4883440000000  0.4475530000000 1.0
C      1  0.5228510000000  0.5159560000000  0.5525860000000 1.0
C      1  0.5307030000000  0.5293530000000  0.4550360000000 1.0
C      1  0.5302040000000  0.4715690000000  0.5452900000000 1.0
C      1  0.4760280000000  0.4668800000000  0.4586200000000 1.0
C      1  0.4690390000000  0.5286270000000  0.5480390000000 1.0
C      1  0.5012960000000  0.4650720000000  0.5466380000000 1.0
C      1  0.5012580000000  0.5346360000000  0.4529440000000 1.0
C      1  0.4978660000000  0.5315560000000  0.5511360000000 1.0
C      1  0.5020840000000  0.4660250000000  0.4486560000000 1.0
C      1  0.4713560000000  0.4276030000000  0.5389760000000 1.0
C      1  0.4704590000000  0.5724800000000  0.4612660000000 1.0
C      1  0.5301950000000  0.5726660000000  0.5356350000000 1.0
C      1  0.5335680000000  0.4275590000000  0.4614500000000 1.0
C      1  0.3975800000000  0.5261700000000  0.4821790000000 1.0
C      1  0.3930620000000  0.4792970000000  0.5032070000000 1.0
C      1  0.6090120000000  0.4784880000000  0.4954370000000 1.0
C      1  0.6069110000000  0.5210460000000  0.5040740000000 1.0
C      1  0.3873810000000  0.4853880000000  0.4748110000000 1.0
C      1  0.3925480000000  0.5211710000000  0.5231800000000 1.0
C      1  0.6123560000000  0.5146100000000  0.4760280000000 1.0
C      1  0.6122860000000  0.4850070000000  0.5243490000000 1.0
C      1  0.5458040000000  0.4580420000000  0.4964280000000 1.0
C      1  0.5493850000000  0.5390630000000  0.5038560000000 1.0
C      1  0.4552160000000  0.5390040000000  0.4972290000000 1.0
C      1  0.4549130000000  0.4600570000000  0.5031570000000 1.0
C      1  0.5880940000000  0.4642940000000  0.5550190000000 1.0
C      1  0.5893750000000  0.5372620000000  0.4435980000000 1.0
C      1  0.4117480000000  0.5376000000000  0.5579250000000 1.0
C      1  0.4153290000000  0.4664640000000  0.4440560000000 1.0
C      1  0.5486300000000  0.6071250000000  0.5263030000000 1.0
C      1  0.5404280000000  0.4005240000000  0.4701200000000 1.0
C      1  0.4618970000000  0.4019720000000  0.5292660000000 1.0
C      1  0.4599190000000  0.5976260000000  0.4709770000000 1.0
C      1  0.5046540000000  0.4554660000000  0.4093310000000 1.0
C      1  0.5033250000000  0.5441760000000  0.5908770000000 1.0
C      1  0.4971100000000  0.5450980000000  0.4094910000000 1.0
C      1  0.4968430000000  0.4548410000000  0.5909240000000 1.0
C      1  0.6035450000000  0.5475950000000  0.5153150000000 1.0
C      1  0.6022200000000  0.4536350000000  0.4833070000000 1.0
C      1  0.3979920000000  0.4542520000000  0.5165590000000 1.0
C      1  0.3913660000000  0.5491500000000  0.4960790000000 1.0
C      1  0.5037040000000  0.4891040000000  0.5160070000000 1.0
C      1  0.5022970000000  0.5114210000000  0.4842170000000 1.0
C      1  0.5074760000000  0.5291660000000  0.5055130000000 1.0
C      1  0.5064510000000  0.4708580000000  0.4943510000000 1.0
C      1  0.4515830000000  0.4641050000000  0.5536040000000 1.0
C      1  0.4498000000000  0.5376380000000  0.4457700000000 1.0
C      1  0.5442710000000  0.5391730000000  0.5646710000000 1.0
C      1  0.5501520000000  0.4613820000000  0.4445020000000 1.0
C      1  0.5502430000000  0.4740250000000  0.4175470000000 1.0
C      1  0.5501410000000  0.5252000000000  0.5895530000000 1.0
C      1  0.4516040000000  0.5255370000000  0.4186340000000 1.0
C      1  0.4499150000000  0.4746040000000  0.5820160000000 1.0
C      1  0.5414090000000  0.5711330000000  0.4382800000000 1.0
C      1  0.5424310000000  0.4291900000000  0.5618890000000 1.0
C      1  0.4581250000000  0.4286530000000  0.4387630000000 1.0
C      1  0.4585860000000  0.5729190000000  0.5611990000000 1.0
C      1  0.4836000000000  0.3927660000000  0.5118720000000 1.0
C      1  0.4819460000000  0.6084750000000  0.4885950000000 1.0
C      1  0.5219780000000  0.5995980000000  0.5204810000000 1.0
C      1  0.5167430000000  0.3939390000000  0.4867670000000 1.0
C      1  0.5445140000000  0.5524040000000  0.4144010000000 1.0
C      1  0.5448020000000  0.4482320000000  0.5852890000000 1.0
C      1  0.4577010000000  0.4483690000000  0.4157520000000 1.0
C      1  0.4562420000000  0.5529560000000  0.5838730000000 1.0
C      1  0.5843210000000  0.4433090000000  0.5340940000000 1.0
C      1  0.5842900000000  0.5567960000000  0.4650190000000 1.0
C      1  0.4160950000000  0.5582840000000  0.5386920000000 1.0
C      1  0.4162960000000  0.4424540000000  0.4668910000000 1.0
C      1  0.5911610000000  0.4373180000000  0.5056470000000 1.0
C      1  0.5912840000000  0.5630330000000  0.4933290000000 1.0
C      1  0.4065940000000  0.5667330000000  0.5120140000000 1.0
C      1  0.4095050000000  0.4368880000000  0.4946230000000 1.0
C      1  0.4377270000000  0.5006470000000  0.5144390000000 1.0
C      1  0.4388230000000  0.4986500000000  0.4836080000000 1.0
C      1  0.5616660000000  0.4951490000000  0.5129250000000 1.0
C      1  0.5606070000000  0.5000330000000  0.4814090000000 1.0
C      1  0.4673810000000  0.5764840000000  0.4329560000000 1.0
C      1  0.4688240000000  0.4225670000000  0.5671580000000 1.0
C      1  0.5351630000000  0.4184060000000  0.4333000000000 1.0
C      1  0.5342790000000  0.5792520000000  0.5641360000000 1.0
C      1  0.5659480000000  0.5063030000000  0.5734930000000 1.0
C      1  0.5670600000000  0.4946580000000  0.4281260000000 1.0
C      1  0.4320720000000  0.4949310000000  0.5724720000000 1.0
C      1  0.4313820000000  0.5057250000000  0.4235860000000 1.0
C      1  0.4460010000000  0.5277130000000  0.4733290000000 1.0
C      1  0.4445770000000  0.4727420000000  0.5255260000000 1.0
C      1  0.5542140000000  0.4705880000000  0.4725230000000 1.0
C      1  0.5610080000000  0.5234420000000  0.5240180000000 1.0
C      1  0.5123690000000  0.3967170000000  0.5148700000000 1.0
C      1  0.5119690000000  0.6029510000000  0.4920010000000 1.0
C      1  0.4802060000000  0.6025970000000  0.5163110000000 1.0
C      1  0.4873310000000  0.3968900000000  0.4829050000000 1.0
C      1  0.4776860000000  0.5337670000000  0.5892260000000 1.0
C      1  0.4793330000000  0.4669590000000  0.4103960000000 1.0
C      1  0.5224930000000  0.4669030000000  0.5904130000000 1.0
C      1  0.5228820000000  0.5332300000000  0.4100570000000 1.0
C      1  0.4761630000000  0.4761440000000  0.5947100000000 1.0
C      1  0.4772070000000  0.5240060000000  0.4058480000000 1.0
C      1  0.5220830000000  0.5225170000000  0.5973100000000 1.0
C      1  0.5241080000000  0.4766420000000  0.4049320000000 1.0
C      1  0.5423690000000  0.5235150000000  0.4807140000000 1.0
C      1  0.5409780000000  0.4747190000000  0.5189280000000 1.0
C      1  0.4595950000000  0.4767520000000  0.4798940000000 1.0
C      1  0.4619990000000  0.5207940000000  0.5196170000000 1.0
C      1  0.5713870000000  0.5819400000000  0.5021670000000 1.0
C      1  0.5720020000000  0.4177660000000  0.4972590000000 1.0
C      1  0.4303070000000  0.4188070000000  0.5029430000000 1.0
C      1  0.4288210000000  0.5802460000000  0.4990500000000 1.0
C      1  0.6015100000000  0.5109270000000  0.4492940000000 1.0
C      1  0.5979700000000  0.4908040000000  0.5487260000000 1.0
C      1  0.3975530000000  0.4901620000000  0.4484780000000 1.0
C      1  0.3988780000000  0.5121900000000  0.5496500000000 1.0
C      1  0.4441980000000  0.4378280000000  0.5676400000000 1.0
C      1  0.4418530000000  0.5626560000000  0.4332190000000 1.0
C      1  0.5586150000000  0.5642120000000  0.5693040000000 1.0
C      1  0.5586100000000  0.4361550000000  0.4311810000000 1.0
C      1  0.4069500000000  0.5398250000000  0.4570660000000 1.0
C      1  0.4079780000000  0.4574880000000  0.5436030000000 1.0
C      1  0.5930150000000  0.4569040000000  0.4560610000000 1.0
C      1  0.5932150000000  0.5457420000000  0.5427090000000 1.0
C      1  0.5000770000000  0.4425910000000  0.5010460000000 1.0
C      1  0.5005660000000  0.5572730000000  0.4981150000000 1.0
END
