TITL C-2441161-5029-795 0.0270714436184718 125000 -9928.51133744374 0 0 70 (C1) n - 1
REM
REM in /home/bkarasulu/work/CARBON/AIRSS/Generating-Clusters/ReaxFF-fromJPCA2015/Units_Real/with-SteepDescent/Higher-Symm
REM
REM
REM
REM
REM
REM ./C.cell (1df0a924f5614ab8850e4351716899ee)
REM
REM compiler GCC version 9.2.1 20190827 (Red Hat 9.2.1-1)
REM options -cpp -mtune=generic -march=x86-64 -g -O0 -fpre-include=/usr/include/finclude/math-vector-fortran.h
REM seed -1013984578 1660589416 516676425 657198047 21488696 1735273490 -151489050 1248487712 1343125009 1693146142 1798752817 -1783406588 -63929903 2038016743 332691334 -871392356 -463768180 969248133 1747307762 931137362 -303059020 261961769 1319714167 -412403610 1287993554 974372289 1180384022 285958350 -2001329382 -1604988902 1651017608 -150901320 -1607621596
REM
CELL 1.54180   50.00000   50.00000   50.00000   90.00000   90.00000   90.00000
LATT -1
SFAC C  
C      1  0.4830600000000  0.4765070000000  0.4794760000000 1.0
C      1  0.4871870000000  0.5062100000000  0.4710310000000 1.0
C      1  0.5177350000000  0.5057020000000  0.4685750000000 1.0
C      1  0.4534930000000  0.5110270000000  0.5501550000000 1.0
C      1  0.5336660000000  0.5383940000000  0.5466550000000 1.0
C      1  0.5166660000000  0.4524160000000  0.5464300000000 1.0
C      1  0.4332210000000  0.5194050000000  0.5318360000000 1.0
C      1  0.5489430000000  0.5503790000000  0.5263290000000 1.0
C      1  0.5199490000000  0.4323890000000  0.5281450000000 1.0
C      1  0.4977540000000  0.5637490000000  0.4655500000000 1.0
C      1  0.5530710000000  0.4700060000000  0.4585800000000 1.0
C      1  0.4479900000000  0.4696130000000  0.4560750000000 1.0
C      1  0.4574820000000  0.5536930000000  0.4820630000000 1.0
C      1  0.5774360000000  0.5085360000000  0.4842960000000 1.0
C      1  0.4710090000000  0.4333030000000  0.4860760000000 1.0
C      1  0.5126950000000  0.5457590000000  0.5658640000000 1.0
C      1  0.5306900000000  0.4688550000000  0.5662280000000 1.0
C      1  0.4598790000000  0.4880620000000  0.5656500000000 1.0
C      1  0.5104930000000  0.5554210000000  0.4411380000000 1.0
C      1  0.5374160000000  0.4733410000000  0.4332790000000 1.0
C      1  0.4631440000000  0.4827730000000  0.4338450000000 1.0
C      1  0.4370190000000  0.4828040000000  0.4795890000000 1.0
C      1  0.5014900000000  0.5479760000000  0.4911460000000 1.0
C      1  0.5410660000000  0.4716400000000  0.4878100000000 1.0
C      1  0.4391690000000  0.5431490000000  0.5175540000000 1.0
C      1  0.5699340000000  0.5331130000000  0.5172400000000 1.0
C      1  0.4949800000000  0.4241700000000  0.5183610000000 1.0
C      1  0.4501550000000  0.4571440000000  0.5262410000000 1.0
C      1  0.4856780000000  0.5652500000000  0.5278410000000 1.0
C      1  0.5636310000000  0.4807980000000  0.5284900000000 1.0
C      1  0.4250960000000  0.5109790000000  0.4775070000000 1.0
C      1  0.5478380000000  0.5542100000000  0.4788900000000 1.0
C      1  0.5241310000000  0.4282330000000  0.4824700000000 1.0
C      1  0.4828460000000  0.5409180000000  0.4328000000000 1.0
C      1  0.5370700000000  0.5009380000000  0.4222630000000 1.0
C      1  0.4858910000000  0.4679590000000  0.4253820000000 1.0
C      1  0.4866620000000  0.5507640000000  0.5534640000000 1.0
C      1  0.5490320000000  0.4873640000000  0.5529970000000 1.0
C      1  0.4627000000000  0.4636630000000  0.5510540000000 1.0
C      1  0.4638520000000  0.5568370000000  0.5112850000000 1.0
C      1  0.5732300000000  0.5041680000000  0.5140970000000 1.0
C      1  0.4735060000000  0.4453990000000  0.5130070000000 1.0
C      1  0.4699200000000  0.4539530000000  0.4663950000000 1.0
C      1  0.4711030000000  0.5589860000000  0.4564230000000 1.0
C      1  0.5686640000000  0.4908460000000  0.4646170000000 1.0
C      1  0.5697200000000  0.5376960000000  0.4885240000000 1.0
C      1  0.4967000000000  0.4195620000000  0.4894450000000 1.0
C      1  0.4332060000000  0.5390740000000  0.4894290000000 1.0
C      1  0.5129280000000  0.5182880000000  0.5753990000000 1.0
C      1  0.5043300000000  0.4784790000000  0.5751610000000 1.0
C      1  0.4871820000000  0.5032680000000  0.5780620000000 1.0
C      1  0.4343920000000  0.4747240000000  0.5084420000000 1.0
C      1  0.5085850000000  0.5691320000000  0.5099340000000 1.0
C      1  0.5556260000000  0.4591170000000  0.5100350000000 1.0
C      1  0.4920110000000  0.4630750000000  0.5545500000000 1.0
C      1  0.4764160000000  0.5244330000000  0.5576650000000 1.0
C      1  0.5332400000000  0.5115490000000  0.5558050000000 1.0
C      1  0.5393850000000  0.4352240000000  0.5082600000000 1.0
C      1  0.4236270000000  0.4998000000000  0.5142780000000 1.0
C      1  0.5372520000000  0.5654860000000  0.5044810000000 1.0
C      1  0.4684840000000  0.5127350000000  0.4434850000000 1.0
C      1  0.5340080000000  0.5183610000000  0.4471050000000 1.0
C      1  0.5121610000000  0.4570440000000  0.4370910000000 1.0
C      1  0.4895760000000  0.5218920000000  0.4970060000000 1.0
C      1  0.5260680000000  0.4961930000000  0.4945850000000 1.0
C      1  0.4881950000000  0.4746680000000  0.5054690000000 1.0
C      1  0.5363670000000  0.5475680000000  0.4523630000000 1.0
C      1  0.5155410000000  0.4415270000000  0.4599170000000 1.0
C      1  0.4405450000000  0.5185560000000  0.4531470000000 1.0
C      1  0.5017510000000  0.4993470000000  0.5116450000000 1.0
END
