TITL C-2441157-2117-854 0.0035870658192161 125000 -9012.2557548838 0 0 68 (C1) n - 1
REM
REM in /home/bkarasulu/work/CARBON/AIRSS/Generating-Clusters/ReaxFF-fromJPCA2015/Units_Real/with-SteepDescent/Higher-Symm
REM
REM
REM
REM
REM
REM ./C.cell (1df0a924f5614ab8850e4351716899ee)
REM
REM compiler GCC version 9.2.1 20190827 (Red Hat 9.2.1-1)
REM options -cpp -mtune=generic -march=x86-64 -g -O0 -fpre-include=/usr/include/finclude/math-vector-fortran.h
REM seed 386746383 171859194 -1995723314 695321454 -649454933 1611339833 244312623 546019058 1804357063 -966937999 -1934146681 -1685590027 539370806 -123951352 -1293701323 -214335420 123101435 813111775 -80271664 1059482910 63625996 1567103991 -40407589 -2086347422 636522265 178962554 -1717578814 1816582511 -918739412 -185553951 -323379337 -269056258 1368706991
REM
CELL 1.54180   50.00000   50.00000   50.00000   90.00000   90.00000   90.00000
LATT -1
SFAC C  
C      1  0.5600270000000  0.5352530000000  0.4784190000000 1.0
C      1  0.4784910000000  0.5597400000000  0.5350900000000 1.0
C      1  0.5351960000000  0.4787060000000  0.5597830000000 1.0
C      1  0.4396450000000  0.4648740000000  0.4785920000000 1.0
C      1  0.4399320000000  0.5350870000000  0.5208480000000 1.0
C      1  0.5600170000000  0.4647220000000  0.5211240000000 1.0
C      1  0.5215700000000  0.4407200000000  0.5349660000000 1.0
C      1  0.5209670000000  0.5595370000000  0.4646510000000 1.0
C      1  0.4770600000000  0.4402300000000  0.4641320000000 1.0
C      1  0.4645210000000  0.5211040000000  0.5597030000000 1.0
C      1  0.4648930000000  0.4790620000000  0.4402110000000 1.0
C      1  0.5352530000000  0.5211900000000  0.4398040000000 1.0
C      1  0.5602840000000  0.5352120000000  0.5212130000000 1.0
C      1  0.4786050000000  0.5599580000000  0.4643100000000 1.0
C      1  0.5351870000000  0.4785750000000  0.4400460000000 1.0
C      1  0.4398710000000  0.4646480000000  0.5212100000000 1.0
C      1  0.4399360000000  0.5352530000000  0.4784390000000 1.0
C      1  0.5602060000000  0.4649330000000  0.4788250000000 1.0
C      1  0.5228150000000  0.4398990000000  0.4641250000000 1.0
C      1  0.5213330000000  0.5595560000000  0.5350430000000 1.0
C      1  0.4781250000000  0.4402810000000  0.5351980000000 1.0
C      1  0.4645470000000  0.5211740000000  0.4397970000000 1.0
C      1  0.4648630000000  0.4788420000000  0.5596780000000 1.0
C      1  0.5353050000000  0.5210720000000  0.5596940000000 1.0
C      1  0.5433330000000  0.5579780000000  0.5155290000000 1.0
C      1  0.5156560000000  0.5429190000000  0.5580220000000 1.0
C      1  0.5583890000000  0.5156820000000  0.5430940000000 1.0
C      1  0.4563810000000  0.4415180000000  0.5157600000000 1.0
C      1  0.4566430000000  0.5582200000000  0.4838390000000 1.0
C      1  0.5440650000000  0.4415450000000  0.4843550000000 1.0
C      1  0.4842920000000  0.4568870000000  0.5580370000000 1.0
C      1  0.4840180000000  0.5431660000000  0.4413980000000 1.0
C      1  0.5156240000000  0.4567360000000  0.4416010000000 1.0
C      1  0.4417430000000  0.4842390000000  0.5430560000000 1.0
C      1  0.4415120000000  0.5157540000000  0.4564580000000 1.0
C      1  0.5582910000000  0.4841810000000  0.4567260000000 1.0
C      1  0.5430730000000  0.5580720000000  0.4840160000000 1.0
C      1  0.5155080000000  0.5430750000000  0.4415310000000 1.0
C      1  0.5582800000000  0.5156220000000  0.4565500000000 1.0
C      1  0.4557600000000  0.4415510000000  0.4843210000000 1.0
C      1  0.4566170000000  0.5580790000000  0.5153960000000 1.0
C      1  0.5434350000000  0.4416740000000  0.5157040000000 1.0
C      1  0.4841460000000  0.4570210000000  0.4415310000000 1.0
C      1  0.4841190000000  0.5430150000000  0.5580230000000 1.0
C      1  0.5156490000000  0.4569530000000  0.5580740000000 1.0
C      1  0.4416280000000  0.4842740000000  0.4566060000000 1.0
C      1  0.4415560000000  0.5157240000000  0.5429150000000 1.0
C      1  0.5582250000000  0.4841390000000  0.5430730000000 1.0
C      1  0.4568050000000  0.5171050000000  0.4996690000000 1.0
C      1  0.5424750000000  0.4821870000000  0.4998610000000 1.0
C      1  0.4998710000000  0.4555510000000  0.5191690000000 1.0
C      1  0.4991720000000  0.5426190000000  0.4824300000000 1.0
C      1  0.5440260000000  0.5171610000000  0.5000000000000 1.0
C      1  0.4998160000000  0.5432850000000  0.5173620000000 1.0
C      1  0.5174130000000  0.5000130000000  0.5427630000000 1.0
C      1  0.4570500000000  0.4817840000000  0.4997400000000 1.0
C      1  0.5000360000000  0.4547800000000  0.4792440000000 1.0
C      1  0.4825760000000  0.5001530000000  0.5426950000000 1.0
C      1  0.4824080000000  0.5006310000000  0.4577440000000 1.0
C      1  0.5174510000000  0.5002930000000  0.4563170000000 1.0
C      1  0.4804580000000  0.4784100000000  0.4796780000000 1.0
C      1  0.5209550000000  0.5206300000000  0.4795580000000 1.0
C      1  0.5198560000000  0.4790830000000  0.5201390000000 1.0
C      1  0.4796150000000  0.5202840000000  0.5200090000000 1.0
C      1  0.4800210000000  0.4786430000000  0.5201750000000 1.0
C      1  0.5200990000000  0.4785200000000  0.4788130000000 1.0
C      1  0.4795260000000  0.5200270000000  0.4802450000000 1.0
C      1  0.5206580000000  0.5202250000000  0.5197830000000 1.0
END
