TITL C-2441158-471-175 0.0752887177411278 125000 -21562.1128717464 0 0 157 (C1) n - 1
REM
REM in /home/bkarasulu/work/CARBON/AIRSS/Generating-Clusters/ReaxFF-fromJPCA2015/Units_Real/with-SteepDescent/Higher-Symm
REM
REM
REM
REM
REM
REM ./C.cell (1df0a924f5614ab8850e4351716899ee)
REM
REM compiler GCC version 9.2.1 20190827 (Red Hat 9.2.1-1)
REM options -cpp -mtune=generic -march=x86-64 -g -O0 -fpre-include=/usr/include/finclude/math-vector-fortran.h
REM seed 308810809 1559368305 2144862051 757112615 1666535178 -1609939844 1230946986 1974621617 381881534 969842557 -350394144 1655436426 -2032086626 49001883 -1300869207 1062246521 -643443283 461910690 636976982 -1084330886 791968821 7099893 1250862975 2077144161 1544169044 1922376415 1624475489 -547317802 -1267395425 365707010 -2080635557 -1012240013 1280368385
REM
CELL 1.54180   50.00000   50.00000   50.00000   90.00000   90.00000   90.00000
LATT -1
SFAC C  
C      1  0.5045750000000  0.5522710000000  0.4215810000000 1.0
C      1  0.5405760000000  0.4685780000000  0.4168340000000 1.0
C      1  0.4502440000000  0.4813470000000  0.4148780000000 1.0
C      1  0.4799740000000  0.4704170000000  0.4116050000000 1.0
C      1  0.4825770000000  0.5353820000000  0.4112660000000 1.0
C      1  0.5383470000000  0.4966510000000  0.4098590000000 1.0
C      1  0.5550930000000  0.4516200000000  0.5444150000000 1.0
C      1  0.4302520000000  0.4767490000000  0.5431230000000 1.0
C      1  0.5110040000000  0.5857500000000  0.5235680000000 1.0
C      1  0.5121800000000  0.4148720000000  0.5472220000000 1.0
C      1  0.4176370000000  0.5339530000000  0.5493000000000 1.0
C      1  0.5671440000000  0.5524400000000  0.5481600000000 1.0
C      1  0.5203570000000  0.5566260000000  0.4918380000000 1.0
C      1  0.5351600000000  0.4521420000000  0.4911550000000 1.0
C      1  0.4418250000000  0.4939660000000  0.4935660000000 1.0
C      1  0.4656060000000  0.4733920000000  0.4588030000000 1.0
C      1  0.5030730000000  0.5534040000000  0.4524050000000 1.0
C      1  0.5309540000000  0.4864090000000  0.4579240000000 1.0
C      1  0.4863580000000  0.5754980000000  0.5755310000000 1.0
C      1  0.5734950000000  0.4730130000000  0.5799040000000 1.0
C      1  0.4393670000000  0.4501490000000  0.5814040000000 1.0
C      1  0.4236440000000  0.4480350000000  0.5430720000000 1.0
C      1  0.5018130000000  0.5987110000000  0.5434580000000 1.0
C      1  0.5849850000000  0.4572140000000  0.5378340000000 1.0
C      1  0.4943610000000  0.4491230000000  0.4780120000000 1.0
C      1  0.4730820000000  0.5217810000000  0.4669500000000 1.0
C      1  0.5487530000000  0.5226010000000  0.4794490000000 1.0
C      1  0.5686830000000  0.4354110000000  0.5268150000000 1.0
C      1  0.4092880000000  0.4827960000000  0.5266080000000 1.0
C      1  0.5305160000000  0.5903450000000  0.5397100000000 1.0
C      1  0.5389130000000  0.5490260000000  0.5143180000000 1.0
C      1  0.5162660000000  0.4411250000000  0.5141110000000 1.0
C      1  0.4361490000000  0.5189340000000  0.5142270000000 1.0
C      1  0.5886730000000  0.4594420000000  0.4642830000000 1.0
C      1  0.4241750000000  0.4428920000000  0.4635920000000 1.0
C      1  0.4855680000000  0.5993350000000  0.4618220000000 1.0
C      1  0.4648490000000  0.4559610000000  0.5941390000000 1.0
C      1  0.4788480000000  0.5514300000000  0.5921530000000 1.0
C      1  0.5563470000000  0.4925400000000  0.5923850000000 1.0
C      1  0.4646080000000  0.4790340000000  0.5032280000000 1.0
C      1  0.4965030000000  0.5455920000000  0.5039370000000 1.0
C      1  0.5358020000000  0.4798140000000  0.5000480000000 1.0
C      1  0.4777140000000  0.5074690000000  0.5320410000000 1.0
C      1  0.5213760000000  0.5144920000000  0.5246530000000 1.0
C      1  0.5076080000000  0.4620180000000  0.5318460000000 1.0
C      1  0.4822710000000  0.4885390000000  0.5742810000000 1.0
C      1  0.4989480000000  0.5120230000000  0.5757790000000 1.0
C      1  0.5215530000000  0.4960430000000  0.5716440000000 1.0
C      1  0.4766040000000  0.5490760000000  0.4611490000000 1.0
C      1  0.5560480000000  0.4969690000000  0.4696580000000 1.0
C      1  0.4688390000000  0.4464770000000  0.4664620000000 1.0
C      1  0.5568770000000  0.4501830000000  0.5743140000000 1.0
C      1  0.4262520000000  0.4752370000000  0.5746050000000 1.0
C      1  0.5132180000000  0.5695710000000  0.5771900000000 1.0
C      1  0.5324570000000  0.4971550000000  0.5452570000000 1.0
C      1  0.4848460000000  0.4713310000000  0.5485680000000 1.0
C      1  0.4882530000000  0.5263580000000  0.5495500000000 1.0
C      1  0.5841460000000  0.5053440000000  0.4574270000000 1.0
C      1  0.4609240000000  0.4195590000000  0.4564930000000 1.0
C      1  0.4542240000000  0.5675610000000  0.4573970000000 1.0
C      1  0.5855680000000  0.5299090000000  0.5389670000000 1.0
C      1  0.4831830000000  0.4100410000000  0.5388800000000 1.0
C      1  0.4300670000000  0.5583250000000  0.5381480000000 1.0
C      1  0.5271660000000  0.4286020000000  0.4443400000000 1.0
C      1  0.4236110000000  0.5132660000000  0.4465160000000 1.0
C      1  0.5531840000000  0.5640780000000  0.4394420000000 1.0
C      1  0.4255470000000  0.4703100000000  0.4520020000000 1.0
C      1  0.5107000000000  0.5836080000000  0.4498860000000 1.0
C      1  0.5705220000000  0.4427250000000  0.4489580000000 1.0
C      1  0.4533150000000  0.5795080000000  0.5331250000000 1.0
C      1  0.6005610000000  0.5075150000000  0.5521760000000 1.0
C      1  0.4575180000000  0.4060790000000  0.5529700000000 1.0
C      1  0.5056340000000  0.4085980000000  0.4525460000000 1.0
C      1  0.4146780000000  0.5418700000000  0.4514710000000 1.0
C      1  0.5769270000000  0.5524750000000  0.4525380000000 1.0
C      1  0.4375190000000  0.5514320000000  0.4375930000000 1.0
C      1  0.5756500000000  0.5279280000000  0.4380290000000 1.0
C      1  0.4850390000000  0.4193170000000  0.4363720000000 1.0
C      1  0.5275700000000  0.5493200000000  0.5876490000000 1.0
C      1  0.5304540000000  0.4489750000000  0.5849850000000 1.0
C      1  0.4373370000000  0.4988440000000  0.5864860000000 1.0
C      1  0.4943750000000  0.4239390000000  0.4946770000000 1.0
C      1  0.4351470000000  0.5384120000000  0.4902150000000 1.0
C      1  0.5697450000000  0.5348660000000  0.4941050000000 1.0
C      1  0.5214720000000  0.4538670000000  0.4640360000000 1.0
C      1  0.4444730000000  0.5141410000000  0.4714220000000 1.0
C      1  0.5269320000000  0.5345730000000  0.4648490000000 1.0
C      1  0.4908250000000  0.5066560000000  0.4450270000000 1.0
C      1  0.5177840000000  0.5115330000000  0.4493570000000 1.0
C      1  0.4862390000000  0.4793310000000  0.4396540000000 1.0
C      1  0.3981320000000  0.4935170000000  0.4830590000000 1.0
C      1  0.5430630000000  0.5891090000000  0.4835030000000 1.0
C      1  0.5551990000000  0.4164340000000  0.4838870000000 1.0
C      1  0.5834640000000  0.4663460000000  0.4915290000000 1.0
C      1  0.4283950000000  0.4457860000000  0.4920940000000 1.0
C      1  0.4826550000000  0.5922730000000  0.4896610000000 1.0
C      1  0.5516830000000  0.5221710000000  0.4205190000000 1.0
C      1  0.4933230000000  0.4409470000000  0.4184290000000 1.0
C      1  0.4547840000000  0.5343820000000  0.4201500000000 1.0
C      1  0.5613090000000  0.5148560000000  0.5742720000000 1.0
C      1  0.4824440000000  0.4395590000000  0.5768200000000 1.0
C      1  0.4547430000000  0.5442570000000  0.5766520000000 1.0
C      1  0.4919940000000  0.4880000000000  0.3923670000000 1.0
C      1  0.4912500000000  0.5154000000000  0.3937680000000 1.0
C      1  0.5162320000000  0.5019530000000  0.3921090000000 1.0
C      1  0.5103990000000  0.4318490000000  0.5714610000000 1.0
C      1  0.4320180000000  0.5255080000000  0.5734060000000 1.0
C      1  0.5531530000000  0.5424980000000  0.5708060000000 1.0
C      1  0.5872560000000  0.4794390000000  0.4435360000000 1.0
C      1  0.4390770000000  0.4330620000000  0.4409870000000 1.0
C      1  0.4710290000000  0.5884510000000  0.4398790000000 1.0
C      1  0.4587390000000  0.5812200000000  0.5037840000000 1.0
C      1  0.5856860000000  0.4937600000000  0.5018440000000 1.0
C      1  0.4501910000000  0.4301470000000  0.5038700000000 1.0
C      1  0.5910700000000  0.5173280000000  0.4857990000000 1.0
C      1  0.4678150000000  0.4133410000000  0.4882650000000 1.0
C      1  0.4420160000000  0.5662180000000  0.4859250000000 1.0
C      1  0.4360650000000  0.4588310000000  0.4267900000000 1.0
C      1  0.4941830000000  0.5815490000000  0.4247420000000 1.0
C      1  0.5664250000000  0.4637200000000  0.4297590000000 1.0
C      1  0.4708270000000  0.4342020000000  0.5261320000000 1.0
C      1  0.4502550000000  0.5405460000000  0.5268940000000 1.0
C      1  0.5711940000000  0.5080400000000  0.5237660000000 1.0
C      1  0.5534270000000  0.4227700000000  0.4561400000000 1.0
C      1  0.4070550000000  0.4919960000000  0.4561300000000 1.0
C      1  0.5401370000000  0.5849030000000  0.4556460000000 1.0
C      1  0.5799740000000  0.5571650000000  0.4824670000000 1.0
C      1  0.5075520000000  0.4029900000000  0.4812870000000 1.0
C      1  0.4079070000000  0.5419820000000  0.4803820000000 1.0
C      1  0.5327170000000  0.4051120000000  0.4975100000000 1.0
C      1  0.3972650000000  0.5190400000000  0.4958360000000 1.0
C      1  0.5643690000000  0.5775760000000  0.4976180000000 1.0
C      1  0.4148610000000  0.4730600000000  0.4996290000000 1.0
C      1  0.5119510000000  0.5865560000000  0.4949770000000 1.0
C      1  0.5661370000000  0.4415930000000  0.4984400000000 1.0
C      1  0.5142730000000  0.4897910000000  0.4834020000000 1.0
C      1  0.4868230000000  0.4769900000000  0.4846330000000 1.0
C      1  0.4904630000000  0.5208140000000  0.4914920000000 1.0
C      1  0.5027610000000  0.5349120000000  0.5955660000000 1.0
C      1  0.5308340000000  0.4777300000000  0.5921460000000 1.0
C      1  0.4626750000000  0.4854340000000  0.5947530000000 1.0
C      1  0.5134050000000  0.5414940000000  0.5285590000000 1.0
C      1  0.5338030000000  0.4732500000000  0.5296640000000 1.0
C      1  0.4627570000000  0.4842520000000  0.5316760000000 1.0
C      1  0.4726490000000  0.4478520000000  0.5507270000000 1.0
C      1  0.4658180000000  0.5422540000000  0.5497860000000 1.0
C      1  0.5586870000000  0.5024740000000  0.5480420000000 1.0
C      1  0.5535330000000  0.5725760000000  0.5280190000000 1.0
C      1  0.5319810000000  0.4176590000000  0.5249500000000 1.0
C      1  0.4076040000000  0.5129980000000  0.5247320000000 1.0
C      1  0.5210490000000  0.4458040000000  0.4186760000000 1.0
C      1  0.4426800000000  0.5080850000000  0.4212310000000 1.0
C      1  0.5371080000000  0.5461690000000  0.4225250000000 1.0
C      1  0.5912680000000  0.4786930000000  0.5563210000000 1.0
C      1  0.4362380000000  0.4282870000000  0.5585950000000 1.0
C      1  0.4751570000000  0.5880990000000  0.5504500000000 1.0
C      1  0.4963440000000  0.5042420000000  0.5146490000000 1.0
END
