TITL C-2441163-1170-1455 0.0125829082232922 125000 -7030.99891360721 0 0 51 (C1) n - 1
REM
REM in /home/bkarasulu/work/CARBON/AIRSS/Generating-Clusters/ReaxFF-fromJPCA2015/Units_Real/with-SteepDescent/Higher-Symm
REM
REM
REM
REM
REM
REM ./C.cell (1df0a924f5614ab8850e4351716899ee)
REM
REM compiler GCC version 9.2.1 20190827 (Red Hat 9.2.1-1)
REM options -cpp -mtune=generic -march=x86-64 -g -O0 -fpre-include=/usr/include/finclude/math-vector-fortran.h
REM seed -136364401 1742711379 126330038 -155684099 -453524519 -202834107 -35391072 1337933598 478773102 1870178445 -1076980309 551071521 295831856 -653116696 -2139970211 -1389829185 -1760213919 490830586 105799127 -935880863 809772509 -241540733 -2031622895 -68039087 -680119795 -1819855171 978518817 1307290775 842288492 -36383383 -1590348175 1248165371 -665074911
REM
CELL 1.54180   50.00000   50.00000   50.00000   90.00000   90.00000   90.00000
LATT -1
SFAC C  
C      1  0.5587550000000  0.5134480000000  0.4683700000000 1.0
C      1  0.5651470000000  0.5226730000000  0.4967950000000 1.0
C      1  0.4705750000000  0.5372380000000  0.5106230000000 1.0
C      1  0.5258560000000  0.4589740000000  0.4746660000000 1.0
C      1  0.5241170000000  0.4873250000000  0.4359010000000 1.0
C      1  0.5408590000000  0.4889720000000  0.4778950000000 1.0
C      1  0.4920730000000  0.5000330000000  0.4903660000000 1.0
C      1  0.5154430000000  0.4459490000000  0.5209100000000 1.0
C      1  0.5305310000000  0.4703290000000  0.5149150000000 1.0
C      1  0.4435500000000  0.4855960000000  0.4691570000000 1.0
C      1  0.5113990000000  0.4407360000000  0.4925520000000 1.0
C      1  0.4915720000000  0.4946790000000  0.5190600000000 1.0
C      1  0.4885160000000  0.4473670000000  0.5333600000000 1.0
C      1  0.4772630000000  0.5313200000000  0.4823020000000 1.0
C      1  0.5165420000000  0.5518920000000  0.4668260000000 1.0
C      1  0.4464400000000  0.4889860000000  0.5447000000000 1.0
C      1  0.5525150000000  0.4751830000000  0.5496880000000 1.0
C      1  0.4655090000000  0.4496680000000  0.5150620000000 1.0
C      1  0.5308690000000  0.5246090000000  0.5577810000000 1.0
C      1  0.4613290000000  0.5602200000000  0.4569820000000 1.0
C      1  0.5438270000000  0.5392970000000  0.5097320000000 1.0
C      1  0.4756090000000  0.5151860000000  0.5614250000000 1.0
C      1  0.4501880000000  0.4592780000000  0.4592970000000 1.0
C      1  0.5230460000000  0.5286960000000  0.5292660000000 1.0
C      1  0.5170220000000  0.4934170000000  0.5300530000000 1.0
C      1  0.4820610000000  0.4493810000000  0.4913700000000 1.0
C      1  0.5129570000000  0.4636540000000  0.4496770000000 1.0
C      1  0.4534650000000  0.5059860000000  0.4491520000000 1.0
C      1  0.5426130000000  0.4967940000000  0.5650870000000 1.0
C      1  0.4833370000000  0.4749760000000  0.4771930000000 1.0
C      1  0.4954980000000  0.5440340000000  0.5242940000000 1.0
C      1  0.4433890000000  0.4929540000000  0.4994480000000 1.0
C      1  0.4513120000000  0.5178530000000  0.5432490000000 1.0
C      1  0.5152620000000  0.4873260000000  0.5583620000000 1.0
C      1  0.5609070000000  0.4736380000000  0.5224520000000 1.0
C      1  0.4470220000000  0.4730060000000  0.5198550000000 1.0
C      1  0.5184910000000  0.5083310000000  0.4801570000000 1.0
C      1  0.4538160000000  0.5333820000000  0.4613490000000 1.0
C      1  0.5662780000000  0.4991220000000  0.5114270000000 1.0
C      1  0.5044090000000  0.5144120000000  0.5658870000000 1.0
C      1  0.5157680000000  0.5245230000000  0.4557030000000 1.0
C      1  0.4820850000000  0.4688680000000  0.4480920000000 1.0
C      1  0.5026260000000  0.5640710000000  0.5048740000000 1.0
C      1  0.5033930000000  0.5082940000000  0.4342400000000 1.0
C      1  0.4897720000000  0.5594890000000  0.4770230000000 1.0
C      1  0.4769680000000  0.4960570000000  0.4359990000000 1.0
C      1  0.5290860000000  0.5574980000000  0.4931630000000 1.0
C      1  0.4487570000000  0.5182300000000  0.5138080000000 1.0
C      1  0.4694380000000  0.4865000000000  0.5625810000000 1.0
C      1  0.4830060000000  0.4755280000000  0.5389950000000 1.0
C      1  0.5497320000000  0.4950200000000  0.4488850000000 1.0
END
