TITL C-2441159-1093-1239 7.02308669698992e-08 125000 -8661.00378982183 0 0 54 (D3h) n - 1
REM
REM in /home/bkarasulu/work/CARBON/AIRSS/Generating-Clusters/ReaxFF-fromJPCA2015/Units_Real/with-SteepDescent/Higher-Symm
REM
REM
REM
REM
REM
REM ./C.cell (1df0a924f5614ab8850e4351716899ee)
REM
REM compiler GCC version 9.2.1 20190827 (Red Hat 9.2.1-1)
REM options -cpp -mtune=generic -march=x86-64 -g -O0 -fpre-include=/usr/include/finclude/math-vector-fortran.h
REM seed 1018031026 -1155938520 1308399119 366030170 866638639 1996177607 -384094645 -622437270 1885932851 1892669496 1308503223 1180769267 1601519049 -887964443 -1181998655 465565591 1863957884 1125991765 2065926776 -1219496706 914798599 864848217 -397278579 448628375 -761687315 -1040356479 -811675139 -636798121 -978670718 -1404672650 -525227338 -1978655875 -1629269754
REM
CELL 1.54180   50.00000   50.00000   50.00000   90.00000   90.00000   90.00000
LATT -1
SFAC C  
C      1  0.4853240000000  0.5557600000000  0.5468990000000 1.0
C      1  0.4853210000000  0.5125710000000  0.5717680000000 1.0
C      1  0.4853130000000  0.4635000000000  0.5630570000000 1.0
C      1  0.4853020000000  0.4315100000000  0.5248420000000 1.0
C      1  0.4852940000000  0.4315670000000  0.4750050000000 1.0
C      1  0.4852930000000  0.4636460000000  0.4368640000000 1.0
C      1  0.4852980000000  0.5127370000000  0.4282660000000 1.0
C      1  0.4853090000000  0.5558680000000  0.4532350000000 1.0
C      1  0.4853190000000  0.5728600000000  0.5000870000000 1.0
C      1  0.5452110000000  0.5211320000000  0.5367030000000 1.0
C      1  0.5452080000000  0.4925890000000  0.5417020000000 1.0
C      1  0.5452020000000  0.4675120000000  0.5271840000000 1.0
C      1  0.5451960000000  0.4576320000000  0.4999440000000 1.0
C      1  0.5451930000000  0.4675750000000  0.4727260000000 1.0
C      1  0.5451940000000  0.4926860000000  0.4582670000000 1.0
C      1  0.5451990000000  0.5212160000000  0.4633310000000 1.0
C      1  0.5452060000000  0.5398170000000  0.4855500000000 1.0
C      1  0.5452100000000  0.5397830000000  0.5145270000000 1.0
C      1  0.5146780000000  0.4315630000000  0.4750000000000 1.0
C      1  0.5146760000000  0.4636420000000  0.4368590000000 1.0
C      1  0.5146820000000  0.5127320000000  0.4282610000000 1.0
C      1  0.5146920000000  0.5558640000000  0.4532300000000 1.0
C      1  0.5147020000000  0.5728560000000  0.5000820000000 1.0
C      1  0.5147070000000  0.5557560000000  0.5468940000000 1.0
C      1  0.5147050000000  0.5125670000000  0.5717630000000 1.0
C      1  0.5146970000000  0.4634960000000  0.5630520000000 1.0
C      1  0.5146860000000  0.4315050000000  0.5248370000000 1.0
C      1  0.4720300000000  0.5325130000000  0.5564620000000 1.0
C      1  0.4720250000000  0.4886170000000  0.5641500000000 1.0
C      1  0.4720160000000  0.4500490000000  0.5418230000000 1.0
C      1  0.4720070000000  0.4348560000000  0.4999290000000 1.0
C      1  0.4720030000000  0.4501460000000  0.4580700000000 1.0
C      1  0.4720050000000  0.4887650000000  0.4358330000000 1.0
C      1  0.4720120000000  0.5326430000000  0.4436220000000 1.0
C      1  0.4720220000000  0.5612490000000  0.4777930000000 1.0
C      1  0.4720290000000  0.5611980000000  0.5223570000000 1.0
C      1  0.5279890000000  0.5612410000000  0.4777840000000 1.0
C      1  0.5279960000000  0.5611900000000  0.5223480000000 1.0
C      1  0.5279970000000  0.5325050000000  0.5564530000000 1.0
C      1  0.5279920000000  0.4886090000000  0.5641410000000 1.0
C      1  0.5279830000000  0.4500410000000  0.5418140000000 1.0
C      1  0.5279740000000  0.4348480000000  0.4999200000000 1.0
C      1  0.5279690000000  0.4501380000000  0.4580610000000 1.0
C      1  0.5279710000000  0.4887570000000  0.4358240000000 1.0
C      1  0.5279790000000  0.5326350000000  0.4436130000000 1.0
C      1  0.4548010000000  0.5398300000000  0.4855650000000 1.0
C      1  0.4548060000000  0.5397960000000  0.5145420000000 1.0
C      1  0.4548070000000  0.5211450000000  0.5367170000000 1.0
C      1  0.4548030000000  0.4926020000000  0.5417160000000 1.0
C      1  0.4547970000000  0.4675250000000  0.5271990000000 1.0
C      1  0.4547920000000  0.4576450000000  0.4999580000000 1.0
C      1  0.4547890000000  0.4675880000000  0.4727410000000 1.0
C      1  0.4547900000000  0.4926990000000  0.4582810000000 1.0
C      1  0.4547950000000  0.5212290000000  0.4633460000000 1.0
END
