TITL C-2441165-58-445 0.0412601481096086 125000 -15820.5278969633 0 0 114 (C1) n - 1
REM
REM in /home/bkarasulu/work/CARBON/AIRSS/Generating-Clusters/ReaxFF-fromJPCA2015/Units_Real/with-SteepDescent/Higher-Symm
REM
REM
REM
REM
REM
REM ./C.cell (1df0a924f5614ab8850e4351716899ee)
REM
REM compiler GCC version 9.2.1 20190827 (Red Hat 9.2.1-1)
REM options -cpp -mtune=generic -march=x86-64 -g -O0 -fpre-include=/usr/include/finclude/math-vector-fortran.h
REM seed 46494164 512462485 1179023890 -1497113238 -943694757 -986263059 736085934 288817112 -208307571 494919884 -401616937 1986875100 -752605450 467968691 401732637 -1648955472 1293394059 852158978 -436515453 467838053 -42128917 29411940 -1182669653 -1559149082 1547400428 794026457 1333058759 775570543 -1984409843 632052521 966110601 -10877235 -1801202353
REM
CELL 1.54180   50.00000   50.00000   50.00000   90.00000   90.00000   90.00000
LATT -1
SFAC C  
C      1  0.5470700000000  0.4461180000000  0.4438600000000 1.0
C      1  0.5451330000000  0.4335340000000  0.5318240000000 1.0
C      1  0.5550390000000  0.5015310000000  0.5732550000000 1.0
C      1  0.5508270000000  0.5688510000000  0.5179580000000 1.0
C      1  0.5420350000000  0.5307480000000  0.4272990000000 1.0
C      1  0.4742400000000  0.5450260000000  0.5717970000000 1.0
C      1  0.4756380000000  0.5837910000000  0.4813480000000 1.0
C      1  0.4759390000000  0.5049790000000  0.4144530000000 1.0
C      1  0.4758100000000  0.4197950000000  0.4676670000000 1.0
C      1  0.4771320000000  0.4433130000000  0.5660340000000 1.0
C      1  0.5786790000000  0.4929110000000  0.4710110000000 1.0
C      1  0.5770060000000  0.4707510000000  0.5046850000000 1.0
C      1  0.5855850000000  0.4900570000000  0.5390360000000 1.0
C      1  0.5782470000000  0.5210010000000  0.5124560000000 1.0
C      1  0.5803450000000  0.5401410000000  0.4674070000000 1.0
C      1  0.4658170000000  0.4765670000000  0.4783200000000 1.0
C      1  0.4691310000000  0.4752750000000  0.5196680000000 1.0
C      1  0.4672430000000  0.5172840000000  0.5237080000000 1.0
C      1  0.4634380000000  0.5321210000000  0.5010160000000 1.0
C      1  0.4715030000000  0.5147700000000  0.4656500000000 1.0
C      1  0.5491460000000  0.5452410000000  0.5560260000000 1.0
C      1  0.5614520000000  0.5607740000000  0.4656900000000 1.0
C      1  0.5550100000000  0.4836450000000  0.4301130000000 1.0
C      1  0.5533320000000  0.4309980000000  0.4908740000000 1.0
C      1  0.5548340000000  0.4658800000000  0.5634310000000 1.0
C      1  0.4271070000000  0.5108750000000  0.5515580000000 1.0
C      1  0.4272620000000  0.5546930000000  0.4830520000000 1.0
C      1  0.4303760000000  0.5068740000000  0.4413820000000 1.0
C      1  0.4290170000000  0.4468650000000  0.4754610000000 1.0
C      1  0.4304890000000  0.4616060000000  0.5416650000000 1.0
C      1  0.4781390000000  0.4763040000000  0.4529640000000 1.0
C      1  0.4778670000000  0.4486050000000  0.5063900000000 1.0
C      1  0.4769400000000  0.4890340000000  0.5620340000000 1.0
C      1  0.4761950000000  0.5578300000000  0.5311110000000 1.0
C      1  0.4788820000000  0.5419040000000  0.4625420000000 1.0
C      1  0.4343940000000  0.4874130000000  0.5283350000000 1.0
C      1  0.4390140000000  0.5301060000000  0.5345450000000 1.0
C      1  0.4361290000000  0.5251010000000  0.4913620000000 1.0
C      1  0.4428680000000  0.5089710000000  0.4675830000000 1.0
C      1  0.4373800000000  0.4729490000000  0.4850190000000 1.0
C      1  0.4356390000000  0.4314270000000  0.5004470000000 1.0
C      1  0.4350880000000  0.4743320000000  0.5689160000000 1.0
C      1  0.4364480000000  0.5592070000000  0.5343560000000 1.0
C      1  0.4369080000000  0.5558630000000  0.4549870000000 1.0
C      1  0.4363390000000  0.4778130000000  0.4349400000000 1.0
C      1  0.5642670000000  0.4417740000000  0.4675640000000 1.0
C      1  0.5642160000000  0.4488300000000  0.5454120000000 1.0
C      1  0.5645170000000  0.5243580000000  0.5630640000000 1.0
C      1  0.5659180000000  0.5670170000000  0.4946300000000 1.0
C      1  0.5631340000000  0.5106620000000  0.4295950000000 1.0
C      1  0.5168850000000  0.4540220000000  0.4720730000000 1.0
C      1  0.5134420000000  0.4648870000000  0.5339310000000 1.0
C      1  0.5138240000000  0.5242320000000  0.5465150000000 1.0
C      1  0.5136740000000  0.5500590000000  0.5007380000000 1.0
C      1  0.5205810000000  0.5026910000000  0.4625690000000 1.0
C      1  0.4901600000000  0.5328150000000  0.5323920000000 1.0
C      1  0.4872580000000  0.5417680000000  0.4900070000000 1.0
C      1  0.4933530000000  0.4996090000000  0.4559920000000 1.0
C      1  0.5018140000000  0.4572000000000  0.4945940000000 1.0
C      1  0.4903820000000  0.4809220000000  0.5387500000000 1.0
C      1  0.5097850000000  0.5745740000000  0.5471980000000 1.0
C      1  0.5093310000000  0.5652340000000  0.4457520000000 1.0
C      1  0.5100240000000  0.4700280000000  0.4228390000000 1.0
C      1  0.5087280000000  0.4132270000000  0.5038240000000 1.0
C      1  0.5108690000000  0.4797920000000  0.5825340000000 1.0
C      1  0.5177420000000  0.4324310000000  0.4512860000000 1.0
C      1  0.5167470000000  0.4371940000000  0.5454690000000 1.0
C      1  0.5150410000000  0.5308130000000  0.5756900000000 1.0
C      1  0.5164300000000  0.5786790000000  0.4964050000000 1.0
C      1  0.5159440000000  0.5248200000000  0.4187320000000 1.0
C      1  0.5320960000000  0.5274750000000  0.4691830000000 1.0
C      1  0.5321410000000  0.4772600000000  0.4680700000000 1.0
C      1  0.5229890000000  0.4725480000000  0.5071910000000 1.0
C      1  0.5287200000000  0.5026150000000  0.5384580000000 1.0
C      1  0.5301360000000  0.5265910000000  0.4966020000000 1.0
C      1  0.5375720000000  0.4695560000000  0.4386770000000 1.0
C      1  0.5389240000000  0.4186070000000  0.5082340000000 1.0
C      1  0.5388960000000  0.4848220000000  0.5651560000000 1.0
C      1  0.5388950000000  0.5681090000000  0.5435000000000 1.0
C      1  0.5374790000000  0.5505480000000  0.4509070000000 1.0
C      1  0.4701180000000  0.4384660000000  0.4448550000000 1.0
C      1  0.4701620000000  0.4284610000000  0.5408140000000 1.0
C      1  0.4717330000000  0.5143900000000  0.5781250000000 1.0
C      1  0.4741070000000  0.5807450000000  0.5112430000000 1.0
C      1  0.4700060000000  0.5323640000000  0.4247780000000 1.0
C      1  0.5016060000000  0.5070690000000  0.5881700000000 1.0
C      1  0.5016370000000  0.5866350000000  0.5215290000000 1.0
C      1  0.4972110000000  0.5466850000000  0.4269770000000 1.0
C      1  0.4972430000000  0.4465260000000  0.4336170000000 1.0
C      1  0.4964200000000  0.4200200000000  0.5301350000000 1.0
C      1  0.5022220000000  0.5816990000000  0.4692300000000 1.0
C      1  0.5036940000000  0.4970550000000  0.4141290000000 1.0
C      1  0.5027310000000  0.4155000000000  0.4756480000000 1.0
C      1  0.5034250000000  0.4540820000000  0.5717540000000 1.0
C      1  0.5007160000000  0.5563380000000  0.5691210000000 1.0
C      1  0.4366190000000  0.5669380000000  0.5066360000000 1.0
C      1  0.4423900000000  0.5338160000000  0.4357480000000 1.0
C      1  0.4428820000000  0.4521020000000  0.4493880000000 1.0
C      1  0.4424230000000  0.4379630000000  0.5288140000000 1.0
C      1  0.4409810000000  0.5023100000000  0.5752440000000 1.0
C      1  0.5796840000000  0.5153570000000  0.4535080000000 1.0
C      1  0.5816100000000  0.4641690000000  0.4766350000000 1.0
C      1  0.5838460000000  0.4632790000000  0.5313850000000 1.0
C      1  0.5830860000000  0.5173040000000  0.5412100000000 1.0
C      1  0.5846150000000  0.5436020000000  0.4952570000000 1.0
C      1  0.4632000000000  0.4256620000000  0.4942110000000 1.0
C      1  0.4624500000000  0.4670710000000  0.5744050000000 1.0
C      1  0.4589070000000  0.5614710000000  0.5539770000000 1.0
C      1  0.4631750000000  0.5674250000000  0.4600110000000 1.0
C      1  0.4634870000000  0.4808040000000  0.4263140000000 1.0
C      1  0.5260050000000  0.5013680000000  0.5110130000000 1.0
C      1  0.4265700000000  0.4947390000000  0.5010570000000 1.0
C      1  0.4761370000000  0.4941590000000  0.4982420000000 1.0
C      1  0.5733470000000  0.4972290000000  0.4979450000000 1.0
END
