TITL C-2441166-8118-276 0.00234919606089699 125000 -2179.61260087371 0 0 18 (D2) n - 1
REM
REM in /home/bkarasulu/work/CARBON/AIRSS/Generating-Clusters/ReaxFF-fromJPCA2015/Units_Real/with-SteepDescent/Higher-Symm
REM
REM
REM
REM
REM
REM ./C.cell (1df0a924f5614ab8850e4351716899ee)
REM
REM compiler GCC version 9.2.1 20190827 (Red Hat 9.2.1-1)
REM options -cpp -mtune=generic -march=x86-64 -g -O0 -fpre-include=/usr/include/finclude/math-vector-fortran.h
REM seed -444476587 -392497875 -615091489 -1662135151 -1326904399 -1869224516 -479782531 724699560 -474358477 -1616672110 1201646838 -1092278421 -1752008263 22495998 -1428571505 1517097331 -249269951 -1057224564 1767183087 -1217639608 -1622340031 390344108 412870578 1891455648 539709747 -1796821289 569320985 1198384763 -390174796 775578382 1902819534 -1541876456 223242716
REM
CELL 1.54180   50.00000   50.00000   50.00000   90.00000   90.00000   90.00000
LATT -1
SFAC C  
C      1  0.4914120000000  0.4850780000000  0.5440250000000 1.0
C      1  0.5085880000000  0.4850780000000  0.4559750000000 1.0
C      1  0.5085880000000  0.5097680000000  0.5440250000000 1.0
C      1  0.4914120000000  0.5097680000000  0.4559750000000 1.0
C      1  0.5206930000000  0.4701460000000  0.4781190000000 1.0
C      1  0.4793070000000  0.4701460000000  0.5218810000000 1.0
C      1  0.4793070000000  0.5247000000000  0.4781190000000 1.0
C      1  0.5206930000000  0.5247000000000  0.5218810000000 1.0
C      1  0.5419820000000  0.4852460000000  0.4910790000000 1.0
C      1  0.4580180000000  0.4852460000000  0.5089210000000 1.0
C      1  0.4580180000000  0.5096000000000  0.4910790000000 1.0
C      1  0.5419820000000  0.5096000000000  0.5089210000000 1.0
C      1  0.5075270000000  0.4408160000000  0.5247520000000 1.0
C      1  0.4924730000000  0.4408160000000  0.4752480000000 1.0
C      1  0.4924730000000  0.5540300000000  0.5247520000000 1.0
C      1  0.5075270000000  0.5540300000000  0.4752480000000 1.0
C      1  0.5000000000000  0.4552660000000  0.5000000000000 1.0
C      1  0.5000000000000  0.5395800000000  0.5000000000000 1.0
END
