TITL C-2441167-4473-836 0.125313452596482 125000 -23098.7595990536 0 0 176 (C1) n - 1
REM
REM in /home/bkarasulu/work/CARBON/AIRSS/Generating-Clusters/ReaxFF-fromJPCA2015/Units_Real/with-SteepDescent/Higher-Symm
REM
REM
REM
REM
REM
REM ./C.cell (1df0a924f5614ab8850e4351716899ee)
REM
REM compiler GCC version 9.2.1 20190827 (Red Hat 9.2.1-1)
REM options -cpp -mtune=generic -march=x86-64 -g -O0 -fpre-include=/usr/include/finclude/math-vector-fortran.h
REM seed -1212501209 1597388210 2118191280 417190184 1548951114 1473858088 -1032747560 -2055700795 -521376847 1383043483 1263142952 -345502752 739650016 1392274871 -448218827 604870346 -970445861 -1409299041 1393505256 100164175 -1816936269 1277320099 477727137 823084039 1949092338 -2040525323 -830022878 -33512565 1235797131 937002842 512827443 -727647572 2129369175
REM
CELL 1.54180   50.00000   50.00000   50.00000   90.00000   90.00000   90.00000
LATT -1
SFAC C  
C      1  0.4348580000000  0.4679040000000  0.4954490000000 1.0
C      1  0.5592240000000  0.4856720000000  0.5017100000000 1.0
C      1  0.4898730000000  0.5419720000000  0.4574730000000 1.0
C      1  0.5134380000000  0.5328330000000  0.5435870000000 1.0
C      1  0.5602430000000  0.4605580000000  0.4614040000000 1.0
C      1  0.4235960000000  0.4495200000000  0.5410050000000 1.0
C      1  0.4781890000000  0.5019990000000  0.4827290000000 1.0
C      1  0.5131930000000  0.4989770000000  0.5130040000000 1.0
C      1  0.5188580000000  0.4481970000000  0.5476070000000 1.0
C      1  0.4888270000000  0.4595790000000  0.4517720000000 1.0
C      1  0.4516950000000  0.4364670000000  0.4592030000000 1.0
C      1  0.5451780000000  0.4430740000000  0.5373610000000 1.0
C      1  0.4729530000000  0.4760810000000  0.5487850000000 1.0
C      1  0.5237870000000  0.4808690000000  0.4475080000000 1.0
C      1  0.4016060000000  0.5192740000000  0.4889340000000 1.0
C      1  0.5980970000000  0.5169440000000  0.5115880000000 1.0
C      1  0.4104980000000  0.4508730000000  0.4911820000000 1.0
C      1  0.5877360000000  0.4450170000000  0.5087330000000 1.0
C      1  0.4082460000000  0.4698440000000  0.5544490000000 1.0
C      1  0.5931950000000  0.4671720000000  0.4399190000000 1.0
C      1  0.5004320000000  0.4116050000000  0.5717030000000 1.0
C      1  0.5019700000000  0.4079410000000  0.4286350000000 1.0
C      1  0.4826160000000  0.4879230000000  0.4577340000000 1.0
C      1  0.5194650000000  0.4848110000000  0.5387470000000 1.0
C      1  0.5750630000000  0.5233440000000  0.4205320000000 1.0
C      1  0.4290490000000  0.5270880000000  0.5830640000000 1.0
C      1  0.4292260000000  0.5844570000000  0.4751090000000 1.0
C      1  0.5706020000000  0.5843020000000  0.5258420000000 1.0
C      1  0.5879850000000  0.4824870000000  0.5412050000000 1.0
C      1  0.4076350000000  0.4830470000000  0.4559980000000 1.0
C      1  0.5400620000000  0.4707420000000  0.5222580000000 1.0
C      1  0.4569450000000  0.4595140000000  0.4795170000000 1.0
C      1  0.4310920000000  0.4956610000000  0.4384520000000 1.0
C      1  0.5690430000000  0.4996660000000  0.5558300000000 1.0
C      1  0.4237410000000  0.5025580000000  0.5347270000000 1.0
C      1  0.5815100000000  0.5023630000000  0.4642110000000 1.0
C      1  0.4409150000000  0.4512260000000  0.5184680000000 1.0
C      1  0.5562720000000  0.4550560000000  0.4870940000000 1.0
C      1  0.4760950000000  0.4562920000000  0.4998460000000 1.0
C      1  0.5284160000000  0.4582920000000  0.4956300000000 1.0
C      1  0.5504140000000  0.4155900000000  0.4690800000000 1.0
C      1  0.4467150000000  0.4135370000000  0.5342410000000 1.0
C      1  0.5613010000000  0.4535010000000  0.4165720000000 1.0
C      1  0.4408630000000  0.4500850000000  0.5788180000000 1.0
C      1  0.4994310000000  0.4037290000000  0.5425060000000 1.0
C      1  0.4992300000000  0.4038300000000  0.4579590000000 1.0
C      1  0.4359630000000  0.5685050000000  0.5447540000000 1.0
C      1  0.5617560000000  0.5673040000000  0.4522230000000 1.0
C      1  0.5268470000000  0.4008160000000  0.5236890000000 1.0
C      1  0.4734940000000  0.3988150000000  0.4764490000000 1.0
C      1  0.4454810000000  0.5009640000000  0.4090800000000 1.0
C      1  0.5591940000000  0.4949940000000  0.5819470000000 1.0
C      1  0.5660770000000  0.4494730000000  0.5568120000000 1.0
C      1  0.4293810000000  0.4461060000000  0.4442390000000 1.0
C      1  0.3946280000000  0.4722870000000  0.5038790000000 1.0
C      1  0.6002020000000  0.4670580000000  0.4951180000000 1.0
C      1  0.4666020000000  0.4476050000000  0.5926090000000 1.0
C      1  0.5340710000000  0.4443660000000  0.4087780000000 1.0
C      1  0.5332080000000  0.4651460000000  0.5932530000000 1.0
C      1  0.4593990000000  0.4760080000000  0.4101160000000 1.0
C      1  0.5484290000000  0.4191070000000  0.5203930000000 1.0
C      1  0.4492020000000  0.4134040000000  0.4811960000000 1.0
C      1  0.3965320000000  0.4919840000000  0.4805900000000 1.0
C      1  0.6009340000000  0.4884770000000  0.5161680000000 1.0
C      1  0.4886970000000  0.4739870000000  0.4041630000000 1.0
C      1  0.5103580000000  0.4814920000000  0.5840330000000 1.0
C      1  0.4826420000000  0.5658590000000  0.4206960000000 1.0
C      1  0.5177090000000  0.5607070000000  0.5821360000000 1.0
C      1  0.4714490000000  0.3981880000000  0.5310140000000 1.0
C      1  0.5287400000000  0.3965110000000  0.4703200000000 1.0
C      1  0.5362600000000  0.6091290000000  0.4894270000000 1.0
C      1  0.4641530000000  0.6128560000000  0.5080010000000 1.0
C      1  0.5409650000000  0.5350320000000  0.5048910000000 1.0
C      1  0.4601670000000  0.5370070000000  0.4945530000000 1.0
C      1  0.4691880000000  0.5377930000000  0.5750390000000 1.0
C      1  0.5305040000000  0.5412400000000  0.4268630000000 1.0
C      1  0.4165280000000  0.5211430000000  0.5136310000000 1.0
C      1  0.5842430000000  0.5201640000000  0.4867240000000 1.0
C      1  0.5118630000000  0.5803480000000  0.5550350000000 1.0
C      1  0.4832060000000  0.5860030000000  0.4418290000000 1.0
C      1  0.5425580000000  0.5445880000000  0.5841510000000 1.0
C      1  0.4578400000000  0.5502640000000  0.4169860000000 1.0
C      1  0.5097520000000  0.5627730000000  0.4603730000000 1.0
C      1  0.4885780000000  0.5642700000000  0.5442670000000 1.0
C      1  0.4050440000000  0.5416490000000  0.5294160000000 1.0
C      1  0.5898510000000  0.5434810000000  0.4718040000000 1.0
C      1  0.5582970000000  0.4660150000000  0.5791400000000 1.0
C      1  0.4424990000000  0.4684580000000  0.4332950000000 1.0
C      1  0.4935290000000  0.5487780000000  0.5822850000000 1.0
C      1  0.5043050000000  0.5460480000000  0.4145350000000 1.0
C      1  0.5225540000000  0.5160100000000  0.4669560000000 1.0
C      1  0.4764110000000  0.5123260000000  0.5339340000000 1.0
C      1  0.4079390000000  0.4549070000000  0.4614090000000 1.0
C      1  0.5862650000000  0.4534790000000  0.5370260000000 1.0
C      1  0.4486160000000  0.4923500000000  0.5542460000000 1.0
C      1  0.5546910000000  0.4858330000000  0.4474270000000 1.0
C      1  0.4750480000000  0.4272260000000  0.5734330000000 1.0
C      1  0.5279080000000  0.4205600000000  0.4241820000000 1.0
C      1  0.4964710000000  0.4352010000000  0.5350900000000 1.0
C      1  0.5074700000000  0.4349190000000  0.4644390000000 1.0
C      1  0.5623340000000  0.5465920000000  0.5620340000000 1.0
C      1  0.4372640000000  0.5458180000000  0.4386720000000 1.0
C      1  0.5551610000000  0.5900310000000  0.5010820000000 1.0
C      1  0.4485380000000  0.5924420000000  0.4956490000000 1.0
C      1  0.4253260000000  0.5485060000000  0.5647880000000 1.0
C      1  0.5752210000000  0.5497350000000  0.4331700000000 1.0
C      1  0.5416140000000  0.5168810000000  0.5923240000000 1.0
C      1  0.4618950000000  0.5246300000000  0.4036470000000 1.0
C      1  0.5410870000000  0.5497140000000  0.4810520000000 1.0
C      1  0.4612830000000  0.5461080000000  0.5206900000000 1.0
C      1  0.5136990000000  0.4434220000000  0.5972500000000 1.0
C      1  0.4873050000000  0.4289500000000  0.4150550000000 1.0
C      1  0.5264920000000  0.3930470000000  0.4976380000000 1.0
C      1  0.4810620000000  0.4002510000000  0.5039770000000 1.0
C      1  0.4540110000000  0.5182390000000  0.5931640000000 1.0
C      1  0.5468570000000  0.5204860000000  0.4111880000000 1.0
C      1  0.5571930000000  0.5716930000000  0.5481900000000 1.0
C      1  0.4416160000000  0.5707010000000  0.4527880000000 1.0
C      1  0.5505030000000  0.5217270000000  0.5493240000000 1.0
C      1  0.4456500000000  0.5195880000000  0.4499060000000 1.0
C      1  0.4874160000000  0.6063080000000  0.4892990000000 1.0
C      1  0.5130500000000  0.6075690000000  0.5098090000000 1.0
C      1  0.5348300000000  0.4317450000000  0.4505740000000 1.0
C      1  0.4748190000000  0.4469430000000  0.5520220000000 1.0
C      1  0.4906680000000  0.4319660000000  0.5068510000000 1.0
C      1  0.5125420000000  0.4359250000000  0.4922580000000 1.0
C      1  0.4146540000000  0.5409900000000  0.4739950000000 1.0
C      1  0.5864550000000  0.5383790000000  0.5280880000000 1.0
C      1  0.4699520000000  0.4986300000000  0.5098460000000 1.0
C      1  0.5295750000000  0.4984560000000  0.4891070000000 1.0
C      1  0.5306690000000  0.5670980000000  0.5385050000000 1.0
C      1  0.4702750000000  0.5674180000000  0.4607390000000 1.0
C      1  0.5922600000000  0.5269970000000  0.4452390000000 1.0
C      1  0.4091870000000  0.5259610000000  0.5534850000000 1.0
C      1  0.4177040000000  0.5661710000000  0.5212160000000 1.0
C      1  0.5821120000000  0.5675330000000  0.4839270000000 1.0
C      1  0.5277160000000  0.5772500000000  0.5122860000000 1.0
C      1  0.4739120000000  0.5786370000000  0.4889860000000 1.0
C      1  0.5342220000000  0.5770440000000  0.4481280000000 1.0
C      1  0.4628180000000  0.5799150000000  0.5479720000000 1.0
C      1  0.5211210000000  0.4317120000000  0.5719450000000 1.0
C      1  0.4730840000000  0.4411450000000  0.4369250000000 1.0
C      1  0.4899500000000  0.4656770000000  0.5975720000000 1.0
C      1  0.5052380000000  0.4510200000000  0.4058860000000 1.0
C      1  0.4407630000000  0.5266900000000  0.4774350000000 1.0
C      1  0.5599700000000  0.5269570000000  0.5229020000000 1.0
C      1  0.5728670000000  0.4428130000000  0.4421070000000 1.0
C      1  0.4358400000000  0.4294020000000  0.5571900000000 1.0
C      1  0.5873930000000  0.5645380000000  0.5128410000000 1.0
C      1  0.4156060000000  0.5649050000000  0.4914690000000 1.0
C      1  0.4826420000000  0.4763680000000  0.5192770000000 1.0
C      1  0.5203340000000  0.4764200000000  0.4757770000000 1.0
C      1  0.4851600000000  0.5618870000000  0.5152290000000 1.0
C      1  0.5157690000000  0.5633870000000  0.4886350000000 1.0
C      1  0.5324880000000  0.4998390000000  0.3995840000000 1.0
C      1  0.4681160000000  0.4959210000000  0.6047310000000 1.0
C      1  0.4910240000000  0.5237650000000  0.4014810000000 1.0
C      1  0.5145330000000  0.5066230000000  0.5953840000000 1.0
C      1  0.5260610000000  0.6021570000000  0.4626170000000 1.0
C      1  0.4736160000000  0.6047520000000  0.5352460000000 1.0
C      1  0.5379720000000  0.5347960000000  0.4556400000000 1.0
C      1  0.4594310000000  0.5311830000000  0.5465260000000 1.0
C      1  0.4017790000000  0.4831910000000  0.5302520000000 1.0
C      1  0.5980890000000  0.4779830000000  0.4666900000000 1.0
C      1  0.4933030000000  0.5030700000000  0.6134610000000 1.0
C      1  0.5047210000000  0.4977490000000  0.3958940000000 1.0
C      1  0.5134920000000  0.5280930000000  0.5143260000000 1.0
C      1  0.4865610000000  0.5298370000000  0.4840990000000 1.0
C      1  0.5021970000000  0.6042690000000  0.5372540000000 1.0
C      1  0.4972390000000  0.6031610000000  0.4599840000000 1.0
C      1  0.5006150000000  0.5070650000000  0.5502010000000 1.0
C      1  0.5044060000000  0.5048130000000  0.4470620000000 1.0
C      1  0.5725080000000  0.4803850000000  0.4231560000000 1.0
C      1  0.4312020000000  0.4771590000000  0.5717360000000 1.0
C      1  0.5645970000000  0.4274550000000  0.4971450000000 1.0
C      1  0.4382910000000  0.4238300000000  0.5072040000000 1.0
END
