TITL C-2441164-471-1378 0.0540920086621005 125000 -16544.5032914651 0 0 124 (C1) n - 1
REM
REM in /home/bkarasulu/work/CARBON/AIRSS/Generating-Clusters/ReaxFF-fromJPCA2015/Units_Real/with-SteepDescent/Higher-Symm
REM
REM
REM
REM
REM
REM ./C.cell (1df0a924f5614ab8850e4351716899ee)
REM
REM compiler GCC version 9.2.1 20190827 (Red Hat 9.2.1-1)
REM options -cpp -mtune=generic -march=x86-64 -g -O0 -fpre-include=/usr/include/finclude/math-vector-fortran.h
REM seed -1916563339 1922156015 1564457980 853701021 147933250 1949090045 780367204 -191250951 301338362 1726527640 606708775 -1463808132 -1408146126 1688512152 39647878 1617871828 1531257726 1256042332 -659658601 -554967475 -445225320 14893747 975123626 -224497520 -754608579 960358597 -1843709425 1460016459 770613048 -1443658330 607580317 -2039345762 -326877782
REM
CELL 1.54180   50.00000   50.00000   50.00000   90.00000   90.00000   90.00000
LATT -1
SFAC C  
C      1  0.5148830000000  0.4809620000000  0.4982740000000 1.0
C      1  0.4943320000000  0.4654970000000  0.4861890000000 1.0
C      1  0.4871960000000  0.4654080000000  0.5117740000000 1.0
C      1  0.4572920000000  0.5215260000000  0.5750160000000 1.0
C      1  0.5911730000000  0.5219680000000  0.4987000000000 1.0
C      1  0.4595290000000  0.5271530000000  0.4228330000000 1.0
C      1  0.4955830000000  0.5234910000000  0.5497680000000 1.0
C      1  0.5397940000000  0.5184420000000  0.4910040000000 1.0
C      1  0.4594840000000  0.5150960000000  0.4695120000000 1.0
C      1  0.4681570000000  0.5578470000000  0.5711830000000 1.0
C      1  0.5746030000000  0.5586840000000  0.4901310000000 1.0
C      1  0.4577330000000  0.5563610000000  0.4353520000000 1.0
C      1  0.4371590000000  0.5320250000000  0.4716780000000 1.0
C      1  0.5081260000000  0.5297880000000  0.5729460000000 1.0
C      1  0.5550480000000  0.5340970000000  0.4614540000000 1.0
C      1  0.4940740000000  0.4420640000000  0.4252790000000 1.0
C      1  0.4327970000000  0.4434930000000  0.5419650000000 1.0
C      1  0.5691210000000  0.4431780000000  0.5332810000000 1.0
C      1  0.4926130000000  0.4604620000000  0.5852650000000 1.0
C      1  0.5810510000000  0.4602340000000  0.4589490000000 1.0
C      1  0.4265630000000  0.4631400000000  0.4486120000000 1.0
C      1  0.5777050000000  0.5161000000000  0.5473360000000 1.0
C      1  0.5055440000000  0.5103300000000  0.4046120000000 1.0
C      1  0.4198350000000  0.5137240000000  0.5435710000000 1.0
C      1  0.5939080000000  0.4722920000000  0.4833710000000 1.0
C      1  0.4398580000000  0.4818870000000  0.4274290000000 1.0
C      1  0.4653420000000  0.4748060000000  0.5877860000000 1.0
C      1  0.4545710000000  0.4296300000000  0.5491890000000 1.0
C      1  0.5651320000000  0.4304470000000  0.5104950000000 1.0
C      1  0.4759400000000  0.4310560000000  0.4389070000000 1.0
C      1  0.5457860000000  0.5218920000000  0.4368000000000 1.0
C      1  0.4203300000000  0.5213170000000  0.4940200000000 1.0
C      1  0.5356160000000  0.5202940000000  0.5748050000000 1.0
C      1  0.4272940000000  0.4433970000000  0.4720750000000 1.0
C      1  0.5117900000000  0.4416520000000  0.5731130000000 1.0
C      1  0.5601110000000  0.4414840000000  0.4512260000000 1.0
C      1  0.4996650000000  0.5996880000000  0.4836790000000 1.0
C      1  0.4846080000000  0.5991880000000  0.5088970000000 1.0
C      1  0.5140890000000  0.5990810000000  0.5095670000000 1.0
C      1  0.5289650000000  0.5643950000000  0.5441750000000 1.0
C      1  0.5213560000000  0.5652070000000  0.4544370000000 1.0
C      1  0.4468200000000  0.5657020000000  0.5025110000000 1.0
C      1  0.5404450000000  0.4488540000000  0.4725130000000 1.0
C      1  0.4541700000000  0.4357390000000  0.4766410000000 1.0
C      1  0.4976230000000  0.4342030000000  0.5508500000000 1.0
C      1  0.5403190000000  0.4820720000000  0.4622800000000 1.0
C      1  0.4538170000000  0.4889760000000  0.4791820000000 1.0
C      1  0.5137120000000  0.4887610000000  0.5483220000000 1.0
C      1  0.5252980000000  0.4218560000000  0.5161760000000 1.0
C      1  0.5022870000000  0.4217390000000  0.4688640000000 1.0
C      1  0.4734900000000  0.4193610000000  0.5120910000000 1.0
C      1  0.4770190000000  0.4185650000000  0.4842640000000 1.0
C      1  0.4987500000000  0.4196100000000  0.5267050000000 1.0
C      1  0.5231210000000  0.4252470000000  0.4876090000000 1.0
C      1  0.5588870000000  0.4939930000000  0.4267160000000 1.0
C      1  0.4065290000000  0.4938830000000  0.4873530000000 1.0
C      1  0.5324700000000  0.4915210000000  0.5877730000000 1.0
C      1  0.4629720000000  0.4490520000000  0.4538320000000 1.0
C      1  0.4753960000000  0.4488430000000  0.5538370000000 1.0
C      1  0.5531350000000  0.4502770000000  0.4957310000000 1.0
C      1  0.5278190000000  0.5467750000000  0.4318320000000 1.0
C      1  0.4257470000000  0.5466010000000  0.5102710000000 1.0
C      1  0.5471620000000  0.5453990000000  0.5574850000000 1.0
C      1  0.5628120000000  0.4705290000000  0.5296580000000 1.0
C      1  0.4914760000000  0.4709750000000  0.4277810000000 1.0
C      1  0.4426120000000  0.4708210000000  0.5415230000000 1.0
C      1  0.4374510000000  0.5343960000000  0.5333490000000 1.0
C      1  0.5584620000000  0.5341000000000  0.5341070000000 1.0
C      1  0.5052140000000  0.5318260000000  0.4243320000000 1.0
C      1  0.4446230000000  0.4264760000000  0.5207900000000 1.0
C      1  0.5474550000000  0.4288860000000  0.5408230000000 1.0
C      1  0.5144970000000  0.4301420000000  0.4387510000000 1.0
C      1  0.4246450000000  0.4892340000000  0.5250890000000 1.0
C      1  0.5629530000000  0.4882840000000  0.5542790000000 1.0
C      1  0.5141430000000  0.4835690000000  0.4135940000000 1.0
C      1  0.5228480000000  0.5588080000000  0.4831690000000 1.0
C      1  0.4705300000000  0.5590420000000  0.4864880000000 1.0
C      1  0.5023230000000  0.5598570000000  0.5312840000000 1.0
C      1  0.5682580000000  0.4864220000000  0.4532470000000 1.0
C      1  0.4243500000000  0.4857700000000  0.4664430000000 1.0
C      1  0.5043280000000  0.4871530000000  0.5782510000000 1.0
C      1  0.4699360000000  0.5156810000000  0.5481990000000 1.0
C      1  0.5659650000000  0.5068820000000  0.4978320000000 1.0
C      1  0.4736250000000  0.5149680000000  0.4467690000000 1.0
C      1  0.4762930000000  0.5657540000000  0.5422100000000 1.0
C      1  0.5470170000000  0.5660450000000  0.4987230000000 1.0
C      1  0.4735870000000  0.5662750000000  0.4577510000000 1.0
C      1  0.5252860000000  0.5016190000000  0.4491130000000 1.0
C      1  0.4433580000000  0.5010910000000  0.5056730000000 1.0
C      1  0.5389340000000  0.5022770000000  0.5509570000000 1.0
C      1  0.4985620000000  0.5833210000000  0.4588050000000 1.0
C      1  0.4632910000000  0.5821220000000  0.5211580000000 1.0
C      1  0.5359120000000  0.5824180000000  0.5212750000000 1.0
C      1  0.5814240000000  0.5412770000000  0.4670160000000 1.0
C      1  0.4209170000000  0.5287980000000  0.4440240000000 1.0
C      1  0.4934850000000  0.5480380000000  0.5892280000000 1.0
C      1  0.5087180000000  0.5128480000000  0.5287760000000 1.0
C      1  0.5109960000000  0.5078670000000  0.4867650000000 1.0
C      1  0.4911330000000  0.5212490000000  0.5043840000000 1.0
C      1  0.5487640000000  0.4710060000000  0.5765190000000 1.0
C      1  0.5400840000000  0.4726840000000  0.4195630000000 1.0
C      1  0.4085960000000  0.4712950000000  0.5054400000000 1.0
C      1  0.4230730000000  0.4468050000000  0.4999270000000 1.0
C      1  0.5389660000000  0.4457550000000  0.5655740000000 1.0
C      1  0.5386260000000  0.4455130000000  0.4321370000000 1.0
C      1  0.4671640000000  0.4838950000000  0.4164000000000 1.0
C      1  0.4416210000000  0.4811690000000  0.5715010000000 1.0
C      1  0.5804830000000  0.4854230000000  0.5114000000000 1.0
C      1  0.5954330000000  0.5083800000000  0.5260160000000 1.0
C      1  0.4765240000000  0.5089270000000  0.4044360000000 1.0
C      1  0.4303030000000  0.5075900000000  0.5696210000000 1.0
C      1  0.5352570000000  0.5237940000000  0.5195340000000 1.0
C      1  0.5010240000000  0.5168690000000  0.4537760000000 1.0
C      1  0.4621560000000  0.5164160000000  0.5208690000000 1.0
C      1  0.4327620000000  0.5102980000000  0.4260950000000 1.0
C      1  0.4737840000000  0.5013850000000  0.5887310000000 1.0
C      1  0.6030320000000  0.4987860000000  0.4801790000000 1.0
C      1  0.5648640000000  0.5613970000000  0.4626220000000 1.0
C      1  0.4330370000000  0.5545340000000  0.4492240000000 1.0
C      1  0.4875720000000  0.5745090000000  0.5832230000000 1.0
C      1  0.4773140000000  0.4716140000000  0.4650390000000 1.0
C      1  0.4714760000000  0.4688310000000  0.5336070000000 1.0
C      1  0.5395010000000  0.4692210000000  0.5103840000000 1.0
C      1  0.4975430000000  0.5523310000000  0.5002720000000 1.0
END
