TITL C-2441154-10-1209 0.0150030880541276 125000 -4800.90935670651 0 0 38 (C1) n - 1
REM
REM in /home/bkarasulu/work/CARBON/AIRSS/Generating-Clusters/ReaxFF-fromJPCA2015/Units_Real/with-SteepDescent/Higher-Symm
REM
REM
REM
REM
REM
REM ./C.cell (1df0a924f5614ab8850e4351716899ee)
REM
REM compiler GCC version 9.2.1 20190827 (Red Hat 9.2.1-1)
REM options -cpp -mtune=generic -march=x86-64 -g -O0 -fpre-include=/usr/include/finclude/math-vector-fortran.h
REM seed -1290274247 572093651 836678155 1704736044 -674536889 351933082 54565874 413372343 1859333830 1401067896 -1497396845 -1212173002 1047736052 1499714116 1871554477 -2050867735 -281574002 558510136 -2075002440 -1058780808 -1724868917 -370132307 55548812 470495788 -335419790 625994418 -1110253206 667144024 1102477288 1770678081 -1798281917 -479255355 -1172132356
REM
CELL 1.54180   50.00000   50.00000   50.00000   90.00000   90.00000   90.00000
LATT -1
SFAC C  
C      1  0.4495440000000  0.5109080000000  0.5289560000000 1.0
C      1  0.5546300000000  0.5060120000000  0.5294030000000 1.0
C      1  0.5013120000000  0.5063130000000  0.4381180000000 1.0
C      1  0.5176670000000  0.4484500000000  0.4744880000000 1.0
C      1  0.4710910000000  0.4489350000000  0.4970990000000 1.0
C      1  0.5143750000000  0.4484520000000  0.5258870000000 1.0
C      1  0.4443350000000  0.5208050000000  0.4888090000000 1.0
C      1  0.5225890000000  0.5169610000000  0.5552390000000 1.0
C      1  0.5391950000000  0.5169560000000  0.4534960000000 1.0
C      1  0.4743050000000  0.5474360000000  0.5005480000000 1.0
C      1  0.5115720000000  0.5495100000000  0.5175730000000 1.0
C      1  0.5075070000000  0.5492830000000  0.4776480000000 1.0
C      1  0.4516250000000  0.4707080000000  0.4964660000000 1.0
C      1  0.5223870000000  0.4697260000000  0.5437140000000 1.0
C      1  0.5291520000000  0.4695620000000  0.4589590000000 1.0
C      1  0.4384540000000  0.4955930000000  0.5071090000000 1.0
C      1  0.5406240000000  0.4933920000000  0.5505660000000 1.0
C      1  0.5262360000000  0.4933160000000  0.4399390000000 1.0
C      1  0.5567850000000  0.4891680000000  0.4908840000000 1.0
C      1  0.4655360000000  0.4899660000000  0.4560100000000 1.0
C      1  0.4811120000000  0.4890780000000  0.5521640000000 1.0
C      1  0.4498550000000  0.5135430000000  0.4608570000000 1.0
C      1  0.4949100000000  0.5113240000000  0.5642960000000 1.0
C      1  0.5603290000000  0.5117760000000  0.4733450000000 1.0
C      1  0.5141110000000  0.4900620000000  0.5208330000000 1.0
C      1  0.5126480000000  0.4901320000000  0.4774730000000 1.0
C      1  0.4765970000000  0.4879130000000  0.5002490000000 1.0
C      1  0.5166540000000  0.5246830000000  0.5277710000000 1.0
C      1  0.5177780000000  0.5242980000000  0.4719100000000 1.0
C      1  0.4668590000000  0.5235210000000  0.5044620000000 1.0
C      1  0.5298220000000  0.4801410000000  0.4984530000000 1.0
C      1  0.4856830000000  0.4809930000000  0.4746140000000 1.0
C      1  0.4878300000000  0.4798710000000  0.5251440000000 1.0
C      1  0.4694040000000  0.5159270000000  0.5497990000000 1.0
C      1  0.5599500000000  0.5164480000000  0.5029220000000 1.0
C      1  0.4751930000000  0.5162350000000  0.4450490000000 1.0
C      1  0.4968140000000  0.5607070000000  0.4987680000000 1.0
C      1  0.5005480000000  0.4438650000000  0.4993790000000 1.0
END
