TITL C-2441167-4473-910 0.0146372439609076 125000 -6281.2320192149 0 0 48 (C2) n - 1
REM
REM in /home/bkarasulu/work/CARBON/AIRSS/Generating-Clusters/ReaxFF-fromJPCA2015/Units_Real/with-SteepDescent/Higher-Symm
REM
REM
REM
REM
REM
REM ./C.cell (1df0a924f5614ab8850e4351716899ee)
REM
REM compiler GCC version 9.2.1 20190827 (Red Hat 9.2.1-1)
REM options -cpp -mtune=generic -march=x86-64 -g -O0 -fpre-include=/usr/include/finclude/math-vector-fortran.h
REM seed 1860976575 -975665108 -336997247 -1827200679 1567109762 567732523 -1889741708 1339296401 -83168036 339093444 -1870004584 -1156348804 900028742 -1943179261 1398317597 -554855142 634127584 1117797923 144064663 -1585054337 1140477763 -7003287 -126863018 538935074 1094310553 -1187638447 -1864540607 -860181481 1154089550 1618712037 292886987 -514961483 -948567747
REM
CELL 1.54180   50.00000   50.00000   50.00000   90.00000   90.00000   90.00000
LATT -1
SFAC C  
C      1  0.4763970000000  0.4761510000000  0.4963530000000 1.0
C      1  0.5228330000000  0.5207920000000  0.4962220000000 1.0
C      1  0.5234940000000  0.4755170000000  0.4960850000000 1.0
C      1  0.4762470000000  0.5209900000000  0.4962410000000 1.0
C      1  0.4733260000000  0.4834380000000  0.5633560000000 1.0
C      1  0.5255890000000  0.5132750000000  0.5635150000000 1.0
C      1  0.5255370000000  0.4837160000000  0.5634390000000 1.0
C      1  0.4732060000000  0.5132030000000  0.5632120000000 1.0
C      1  0.4789090000000  0.4752270000000  0.4454350000000 1.0
C      1  0.5202500000000  0.5214850000000  0.4453970000000 1.0
C      1  0.5200920000000  0.4751020000000  0.4453940000000 1.0
C      1  0.4789750000000  0.5214810000000  0.4454500000000 1.0
C      1  0.4463350000000  0.4835970000000  0.4836520000000 1.0
C      1  0.5522890000000  0.5132390000000  0.4838900000000 1.0
C      1  0.5528390000000  0.4836310000000  0.4836790000000 1.0
C      1  0.4457030000000  0.5130890000000  0.4833680000000 1.0
C      1  0.4769390000000  0.4490590000000  0.4597920000000 1.0
C      1  0.5220870000000  0.5478270000000  0.4596290000000 1.0
C      1  0.5224390000000  0.4491340000000  0.4599350000000 1.0
C      1  0.4765780000000  0.5474940000000  0.4601890000000 1.0
C      1  0.5380160000000  0.4700290000000  0.5211750000000 1.0
C      1  0.4612340000000  0.5265600000000  0.5213650000000 1.0
C      1  0.4614680000000  0.4713270000000  0.5217410000000 1.0
C      1  0.5376300000000  0.5256170000000  0.5215230000000 1.0
C      1  0.4545030000000  0.5287680000000  0.4587990000000 1.0
C      1  0.5445020000000  0.4679530000000  0.4586150000000 1.0
C      1  0.5443570000000  0.5292380000000  0.4589130000000 1.0
C      1  0.4546410000000  0.4676890000000  0.4587810000000 1.0
C      1  0.5242730000000  0.5360510000000  0.5447230000000 1.0
C      1  0.4746950000000  0.4604810000000  0.5449600000000 1.0
C      1  0.4747760000000  0.5362440000000  0.5448950000000 1.0
C      1  0.5241280000000  0.4609730000000  0.5446790000000 1.0
C      1  0.4374260000000  0.5131130000000  0.5126340000000 1.0
C      1  0.5618420000000  0.4837740000000  0.5128620000000 1.0
C      1  0.5616780000000  0.5125780000000  0.5130510000000 1.0
C      1  0.4374590000000  0.4841980000000  0.5128700000000 1.0
C      1  0.5204470000000  0.4467410000000  0.4889920000000 1.0
C      1  0.4786850000000  0.5500420000000  0.4891050000000 1.0
C      1  0.4786920000000  0.4465630000000  0.4889080000000 1.0
C      1  0.5204560000000  0.5503560000000  0.4887250000000 1.0
C      1  0.4995480000000  0.4484540000000  0.5346500000000 1.0
C      1  0.4995880000000  0.5483650000000  0.5346070000000 1.0
C      1  0.4995510000000  0.4372890000000  0.5069650000000 1.0
C      1  0.4996370000000  0.5595150000000  0.5069110000000 1.0
C      1  0.5132000000000  0.4984430000000  0.5442710000000 1.0
C      1  0.4869460000000  0.4983460000000  0.5428150000000 1.0
C      1  0.4994070000000  0.4986930000000  0.4526270000000 1.0
C      1  0.4991300000000  0.4986990000000  0.4987050000000 1.0
END
