TITL C-2441160-1326-1072 0.00011379175046538 125000 -4290.32554048294 0 0 30 (C1) n - 1
REM
REM in /home/bkarasulu/work/CARBON/AIRSS/Generating-Clusters/ReaxFF-fromJPCA2015/Units_Real/with-SteepDescent/Higher-Symm
REM
REM
REM
REM
REM
REM ./C.cell (1df0a924f5614ab8850e4351716899ee)
REM
REM compiler GCC version 9.2.1 20190827 (Red Hat 9.2.1-1)
REM options -cpp -mtune=generic -march=x86-64 -g -O0 -fpre-include=/usr/include/finclude/math-vector-fortran.h
REM seed -375407946 737283086 -1949149834 -261836032 585874932 379997853 974638131 99382805 -788715193 -406543980 427321630 -894758498 -1004178870 1312166386 148957368 1113172950 1896427662 1726558295 2107717729 -816095015 969746021 -1208931216 -1771093360 1346430399 -1389459927 1329220673 -1327244873 604004178 -513135763 321236439 1909518766 -2111246346 -1865533234
REM
CELL 1.54180   50.00000   50.00000   50.00000   90.00000   90.00000   90.00000
LATT -1
SFAC C  
C      1  0.5160850000000  0.5548480000000  0.4850610000000 1.0
C      1  0.4848210000000  0.5541210000000  0.5141460000000 1.0
C      1  0.4884200000000  0.4380950000000  0.5096830000000 1.0
C      1  0.5105690000000  0.4641690000000  0.4878280000000 1.0
C      1  0.5137620000000  0.5629930000000  0.5143840000000 1.0
C      1  0.4899180000000  0.5408710000000  0.4876060000000 1.0
C      1  0.4858910000000  0.4466450000000  0.4830220000000 1.0
C      1  0.5121860000000  0.4504490000000  0.5156550000000 1.0
C      1  0.5075290000000  0.4919680000000  0.5693740000000 1.0
C      1  0.4926830000000  0.4922190000000  0.4362260000000 1.0
C      1  0.4896630000000  0.5088840000000  0.5646010000000 1.0
C      1  0.5118910000000  0.5093490000000  0.4372080000000 1.0
C      1  0.5612800000000  0.4926020000000  0.5125260000000 1.0
C      1  0.4371200000000  0.4935390000000  0.4905840000000 1.0
C      1  0.5640490000000  0.5092310000000  0.4935050000000 1.0
C      1  0.4353030000000  0.5108970000000  0.5090790000000 1.0
C      1  0.4436950000000  0.5273970000000  0.5264950000000 1.0
C      1  0.5572150000000  0.5257740000000  0.4753590000000 1.0
C      1  0.5509620000000  0.4769780000000  0.5301560000000 1.0
C      1  0.4464200000000  0.4770510000000  0.4733160000000 1.0
C      1  0.5295910000000  0.5257440000000  0.4466380000000 1.0
C      1  0.4729530000000  0.5247160000000  0.5536970000000 1.0
C      1  0.5241220000000  0.4753020000000  0.5598580000000 1.0
C      1  0.4745410000000  0.4758400000000  0.4445830000000 1.0
C      1  0.4647930000000  0.5437920000000  0.5351460000000 1.0
C      1  0.5316680000000  0.4590000000000  0.5386340000000 1.0
C      1  0.5379530000000  0.5439290000000  0.4663510000000 1.0
C      1  0.4644690000000  0.4581930000000  0.4638050000000 1.0
C      1  0.4969710000000  0.5140010000000  0.4877080000000 1.0
C      1  0.5034770000000  0.4901860000000  0.4877700000000 1.0
END
