TITL C-2441169-1362-936 0.0490590320178855 125000 -15497.3445621947 0 0 115 (C1) n - 1
REM
REM in /home/bkarasulu/work/CARBON/AIRSS/Generating-Clusters/ReaxFF-fromJPCA2015/Units_Real/with-SteepDescent/Higher-Symm
REM
REM
REM
REM
REM
REM ./C.cell (1df0a924f5614ab8850e4351716899ee)
REM
REM compiler GCC version 9.2.1 20190827 (Red Hat 9.2.1-1)
REM options -cpp -mtune=generic -march=x86-64 -g -O0 -fpre-include=/usr/include/finclude/math-vector-fortran.h
REM seed -1470523618 -1880268901 -769382198 635410836 -830593762 -1877960057 1862274385 1361929629 -285561208 -512822343 59855342 -490765902 -1454431463 1206815883 -1993057909 -1383617751 -130855273 -1611092995 -1446707340 388947466 526057688 2021725273 477755322 -995129218 1692026828 2121164510 2051374555 1085952674 96734478 -389549590 -1081064416 -1709730173 -1689059091
REM
CELL 1.54180   50.00000   50.00000   50.00000   90.00000   90.00000   90.00000
LATT -1
SFAC C  
C      1  0.4701620000000  0.4619110000000  0.4938220000000 1.0
C      1  0.4873580000000  0.4605630000000  0.4748520000000 1.0
C      1  0.5137510000000  0.4607610000000  0.4760140000000 1.0
C      1  0.5322020000000  0.4633830000000  0.4953440000000 1.0
C      1  0.5262830000000  0.4627090000000  0.5218190000000 1.0
C      1  0.4998190000000  0.4541000000000  0.5312180000000 1.0
C      1  0.4755650000000  0.4602290000000  0.5179310000000 1.0
C      1  0.4463080000000  0.5136630000000  0.4360320000000 1.0
C      1  0.5172170000000  0.5129110000000  0.4180570000000 1.0
C      1  0.5733190000000  0.5145690000000  0.4626220000000 1.0
C      1  0.5746460000000  0.5130570000000  0.5344080000000 1.0
C      1  0.5201150000000  0.5124100000000  0.5807380000000 1.0
C      1  0.4495530000000  0.5125100000000  0.5668420000000 1.0
C      1  0.4150330000000  0.5150740000000  0.5023560000000 1.0
C      1  0.5171000000000  0.5412850000000  0.4636330000000 1.0
C      1  0.5348140000000  0.5370570000000  0.4842020000000 1.0
C      1  0.5272330000000  0.5380230000000  0.5270120000000 1.0
C      1  0.5012660000000  0.5424770000000  0.5370770000000 1.0
C      1  0.4711660000000  0.5377360000000  0.5259650000000 1.0
C      1  0.4591580000000  0.5359930000000  0.4994350000000 1.0
C      1  0.4901010000000  0.5343690000000  0.4558370000000 1.0
C      1  0.4111680000000  0.4874690000000  0.5134810000000 1.0
C      1  0.4348240000000  0.4863260000000  0.4402810000000 1.0
C      1  0.5059890000000  0.4866400000000  0.4106640000000 1.0
C      1  0.5717220000000  0.4847730000000  0.4516790000000 1.0
C      1  0.5813430000000  0.4843860000000  0.5271080000000 1.0
C      1  0.5296670000000  0.4843170000000  0.5808980000000 1.0
C      1  0.4551680000000  0.4842400000000  0.5771360000000 1.0
C      1  0.4810940000000  0.4836700000000  0.5866910000000 1.0
C      1  0.4206040000000  0.4836240000000  0.5393710000000 1.0
C      1  0.4194260000000  0.4835130000000  0.4638340000000 1.0
C      1  0.4780630000000  0.4835010000000  0.4127540000000 1.0
C      1  0.5543440000000  0.4827450000000  0.4306930000000 1.0
C      1  0.5805520000000  0.4838120000000  0.4979760000000 1.0
C      1  0.5524490000000  0.4838340000000  0.5625700000000 1.0
C      1  0.4712370000000  0.5308590000000  0.5694440000000 1.0
C      1  0.4257970000000  0.5319510000000  0.5227400000000 1.0
C      1  0.4389070000000  0.5314590000000  0.4574940000000 1.0
C      1  0.4947500000000  0.5303730000000  0.4254120000000 1.0
C      1  0.5550590000000  0.5320490000000  0.4492710000000 1.0
C      1  0.5741460000000  0.5324270000000  0.5128740000000 1.0
C      1  0.5358270000000  0.5326630000000  0.5671370000000 1.0
C      1  0.5260370000000  0.5846740000000  0.4775980000000 1.0
C      1  0.5327530000000  0.5840240000000  0.5061420000000 1.0
C      1  0.5154460000000  0.5845190000000  0.5305540000000 1.0
C      1  0.4857850000000  0.5832180000000  0.5328480000000 1.0
C      1  0.4656050000000  0.5854500000000  0.5115200000000 1.0
C      1  0.4736640000000  0.5817920000000  0.4821250000000 1.0
C      1  0.4992650000000  0.5871650000000  0.4650350000000 1.0
C      1  0.5495040000000  0.5560430000000  0.5364600000000 1.0
C      1  0.5028950000000  0.5566210000000  0.5627800000000 1.0
C      1  0.4524010000000  0.5551810000000  0.5420350000000 1.0
C      1  0.4383210000000  0.5554350000000  0.4912580000000 1.0
C      1  0.4703800000000  0.5573690000000  0.4461320000000 1.0
C      1  0.5252220000000  0.5585720000000  0.4428200000000 1.0
C      1  0.5587380000000  0.5552820000000  0.4831800000000 1.0
C      1  0.5440620000000  0.4390200000000  0.4529910000000 1.0
C      1  0.5619680000000  0.4378580000000  0.5078980000000 1.0
C      1  0.5342940000000  0.4372310000000  0.5549520000000 1.0
C      1  0.4774310000000  0.4388100000000  0.5623470000000 1.0
C      1  0.4404900000000  0.4388360000000  0.5218890000000 1.0
C      1  0.4455020000000  0.4380800000000  0.4689210000000 1.0
C      1  0.4915730000000  0.4390260000000  0.4364980000000 1.0
C      1  0.5282380000000  0.5699980000000  0.5529280000000 1.0
C      1  0.4754700000000  0.5677640000000  0.5562020000000 1.0
C      1  0.4415470000000  0.5692420000000  0.5179740000000 1.0
C      1  0.4507190000000  0.5664390000000  0.4656860000000 1.0
C      1  0.4965020000000  0.5709950000000  0.4402580000000 1.0
C      1  0.5457170000000  0.5698730000000  0.4606890000000 1.0
C      1  0.5578320000000  0.5686780000000  0.5102300000000 1.0
C      1  0.4752090000000  0.5094070000000  0.5231480000000 1.0
C      1  0.4630860000000  0.5075960000000  0.4937360000000 1.0
C      1  0.4826780000000  0.5063160000000  0.4684630000000 1.0
C      1  0.5114310000000  0.5016590000000  0.4700880000000 1.0
C      1  0.5326200000000  0.5075640000000  0.4889380000000 1.0
C      1  0.5277120000000  0.5078800000000  0.5212980000000 1.0
C      1  0.5012450000000  0.5031100000000  0.5322000000000 1.0
C      1  0.4229320000000  0.5131270000000  0.4726880000000 1.0
C      1  0.4722540000000  0.5112860000000  0.4208370000000 1.0
C      1  0.5439020000000  0.5123740000000  0.4312230000000 1.0
C      1  0.5809300000000  0.5161620000000  0.4910510000000 1.0
C      1  0.5569440000000  0.5162960000000  0.5582670000000 1.0
C      1  0.4898000000000  0.5124010000000  0.5814170000000 1.0
C      1  0.4298720000000  0.5121540000000  0.5433590000000 1.0
C      1  0.4639190000000  0.4230460000000  0.5146440000000 1.0
C      1  0.4650110000000  0.4234640000000  0.4848310000000 1.0
C      1  0.4941650000000  0.4227340000000  0.4608160000000 1.0
C      1  0.5225660000000  0.4231970000000  0.4669270000000 1.0
C      1  0.5353010000000  0.4230180000000  0.5071070000000 1.0
C      1  0.5225750000000  0.4218460000000  0.5327970000000 1.0
C      1  0.4880430000000  0.4255050000000  0.5376080000000 1.0
C      1  0.4934110000000  0.4805970000000  0.5457320000000 1.0
C      1  0.4659110000000  0.4822510000000  0.5348670000000 1.0
C      1  0.4494100000000  0.4814950000000  0.4916850000000 1.0
C      1  0.4772640000000  0.4795490000000  0.4560160000000 1.0
C      1  0.5181500000000  0.4795470000000  0.4548660000000 1.0
C      1  0.5510250000000  0.4843160000000  0.4900530000000 1.0
C      1  0.5384360000000  0.4841320000000  0.5347610000000 1.0
C      1  0.5414270000000  0.4558380000000  0.4293590000000 1.0
C      1  0.5772640000000  0.4526980000000  0.4884190000000 1.0
C      1  0.5581480000000  0.4530220000000  0.5552840000000 1.0
C      1  0.4926100000000  0.4564570000000  0.5798430000000 1.0
C      1  0.4326460000000  0.4558130000000  0.5437730000000 1.0
C      1  0.4229240000000  0.4553520000000  0.4745530000000 1.0
C      1  0.4712170000000  0.4552990000000  0.4236240000000 1.0
C      1  0.5205390000000  0.4572630000000  0.5737020000000 1.0
C      1  0.4532200000000  0.4567400000000  0.5643030000000 1.0
C      1  0.4273260000000  0.4631090000000  0.5028520000000 1.0
C      1  0.4527750000000  0.4621160000000  0.4461960000000 1.0
C      1  0.5126390000000  0.4614030000000  0.4277990000000 1.0
C      1  0.5665840000000  0.4570310000000  0.4624010000000 1.0
C      1  0.5711300000000  0.4567570000000  0.5299940000000 1.0
C      1  0.4983360000000  0.5317620000000  0.4979900000000 1.0
C      1  0.4937710000000  0.5590140000000  0.4950620000000 1.0
C      1  0.5036040000000  0.4234970000000  0.4971980000000 1.0
END
