TITL C-2441159-1093-1155 0.000609476373092755 125000 -5438.08883220793 0 0 39 (C1) n - 1
REM
REM in /home/bkarasulu/work/CARBON/AIRSS/Generating-Clusters/ReaxFF-fromJPCA2015/Units_Real/with-SteepDescent/Higher-Symm
REM
REM
REM
REM
REM
REM ./C.cell (1df0a924f5614ab8850e4351716899ee)
REM
REM compiler GCC version 9.2.1 20190827 (Red Hat 9.2.1-1)
REM options -cpp -mtune=generic -march=x86-64 -g -O0 -fpre-include=/usr/include/finclude/math-vector-fortran.h
REM seed -546502083 -1189298965 243901831 1336650762 -1506964161 1059567406 -1622931912 1947882922 495330191 -2090170134 1362234825 -1714700446 417925128 994838207 -269235788 -1242504160 1308927950 -1369815186 1970361601 1161295397 796972311 -1065260251 1037938780 -373114277 2010385575 -902845025 1507537806 -342121589 -1696129336 -1441301609 -847592315 1070917443 -52916437
REM
CELL 1.54180   50.00000   50.00000   50.00000   90.00000   90.00000   90.00000
LATT -1
SFAC C  
C      1  0.4407650000000  0.4747930000000  0.4816130000000 1.0
C      1  0.4783490000000  0.4728430000000  0.4404340000000 1.0
C      1  0.5326590000000  0.4760050000000  0.4450840000000 1.0
C      1  0.5634810000000  0.4743060000000  0.4903630000000 1.0
C      1  0.5493660000000  0.4747010000000  0.5447000000000 1.0
C      1  0.4960040000000  0.4760400000000  0.5616370000000 1.0
C      1  0.4463450000000  0.4742420000000  0.5356350000000 1.0
C      1  0.5486230000000  0.5220680000000  0.4923470000000 1.0
C      1  0.5443770000000  0.5205770000000  0.5217090000000 1.0
C      1  0.5123170000000  0.5122870000000  0.5336120000000 1.0
C      1  0.4559460000000  0.5218970000000  0.5307570000000 1.0
C      1  0.4467620000000  0.5210970000000  0.5042570000000 1.0
C      1  0.4794660000000  0.5196640000000  0.4517040000000 1.0
C      1  0.5066800000000  0.5212820000000  0.4453390000000 1.0
C      1  0.5097900000000  0.5438270000000  0.4640250000000 1.0
C      1  0.5355840000000  0.5454520000000  0.4789470000000 1.0
C      1  0.5298130000000  0.5493630000000  0.5274560000000 1.0
C      1  0.5026890000000  0.5412670000000  0.5344960000000 1.0
C      1  0.4755360000000  0.5426850000000  0.5237360000000 1.0
C      1  0.4660110000000  0.5410180000000  0.4958630000000 1.0
C      1  0.4811830000000  0.5406780000000  0.4711330000000 1.0
C      1  0.5249980000000  0.4729080000000  0.5599740000000 1.0
C      1  0.4740300000000  0.4743590000000  0.5431990000000 1.0
C      1  0.4341390000000  0.4736960000000  0.5095040000000 1.0
C      1  0.4645040000000  0.4728190000000  0.4659660000000 1.0
C      1  0.5064070000000  0.4736880000000  0.4334870000000 1.0
C      1  0.5430820000000  0.4747200000000  0.4710670000000 1.0
C      1  0.5630770000000  0.4732590000000  0.5190430000000 1.0
C      1  0.4569420000000  0.4976130000000  0.5449870000000 1.0
C      1  0.4335860000000  0.4981500000000  0.4943830000000 1.0
C      1  0.4657440000000  0.4957060000000  0.4487000000000 1.0
C      1  0.5203350000000  0.4986050000000  0.4349840000000 1.0
C      1  0.5579060000000  0.4985840000000  0.4780100000000 1.0
C      1  0.5584570000000  0.4976310000000  0.5328630000000 1.0
C      1  0.5115890000000  0.4976860000000  0.5585400000000 1.0
C      1  0.5004570000000  0.4948400000000  0.5089460000000 1.0
C      1  0.5014260000000  0.4457810000000  0.4939220000000 1.0
C      1  0.5228760000000  0.5560400000000  0.5011750000000 1.0
C      1  0.5006700000000  0.4692640000000  0.5006080000000 1.0
END
