TITL C-2441164-471-1393 -3.81879704925036e-07 125000 -3954.60659863614 0 0 28 (C2v) n - 1
REM
REM in /home/bkarasulu/work/CARBON/AIRSS/Generating-Clusters/ReaxFF-fromJPCA2015/Units_Real/with-SteepDescent/Higher-Symm
REM
REM
REM
REM
REM
REM ./C.cell (1df0a924f5614ab8850e4351716899ee)
REM
REM compiler GCC version 9.2.1 20190827 (Red Hat 9.2.1-1)
REM options -cpp -mtune=generic -march=x86-64 -g -O0 -fpre-include=/usr/include/finclude/math-vector-fortran.h
REM seed -1901739323 -89197386 -1502969461 -1487900370 897492371 -920894195 1705319064 1943573921 -1199185180 -635846890 -372962776 1631086401 1666085796 -713622034 -753980619 2116624024 -1376477235 -1480488288 -1100327204 1606476127 -1769476935 176005313 1250426409 296009513 -93366262 1106455417 -211074576 677571491 -167798219 -1218604870 -695656540 -1150617552 2073374469
REM
CELL 1.54180   50.00000   50.00000   50.00000   90.00000   90.00000   90.00000
LATT -1
SFAC C  
C      1  0.4853760000000  0.4921280000000  0.4509570000000 1.0
C      1  0.5146240000000  0.4921280000000  0.5490430000000 1.0
C      1  0.5146240000000  0.4921280000000  0.4509570000000 1.0
C      1  0.4853760000000  0.4921280000000  0.5490430000000 1.0
C      1  0.5411540000000  0.4743320000000  0.5115400000000 1.0
C      1  0.4588460000000  0.4743320000000  0.4884600000000 1.0
C      1  0.4588460000000  0.4743320000000  0.5115400000000 1.0
C      1  0.5411540000000  0.4743320000000  0.4884600000000 1.0
C      1  0.5145680000000  0.5207010000000  0.5553390000000 1.0
C      1  0.4854320000000  0.5207010000000  0.4446610000000 1.0
C      1  0.4854320000000  0.5207010000000  0.5553390000000 1.0
C      1  0.5145680000000  0.5207010000000  0.4446610000000 1.0
C      1  0.4691080000000  0.4715880000000  0.4638380000000 1.0
C      1  0.5308920000000  0.4715880000000  0.5361620000000 1.0
C      1  0.5308920000000  0.4715880000000  0.4638380000000 1.0
C      1  0.4691080000000  0.4715880000000  0.5361620000000 1.0
C      1  0.5124740000000  0.4545350000000  0.5322910000000 1.0
C      1  0.4875260000000  0.4545350000000  0.4677090000000 1.0
C      1  0.4875260000000  0.4545350000000  0.5322910000000 1.0
C      1  0.5124740000000  0.4545350000000  0.4677090000000 1.0
C      1  0.4640600000000  0.5455490000000  0.5124400000000 1.0
C      1  0.5359400000000  0.5455490000000  0.4875600000000 1.0
C      1  0.5359400000000  0.5455490000000  0.5124400000000 1.0
C      1  0.4640600000000  0.5455490000000  0.4875600000000 1.0
C      1  0.5321390000000  0.5411670000000  0.4597100000000 1.0
C      1  0.4678610000000  0.5411670000000  0.5402900000000 1.0
C      1  0.4678610000000  0.5411670000000  0.4597100000000 1.0
C      1  0.5321390000000  0.5411670000000  0.5402900000000 1.0
END
