TITL C-2441154-10-1420 0.00175257795439032 125000 -7176.33680940824 0 0 50 (C10) n - 1
REM
REM in /home/bkarasulu/work/CARBON/AIRSS/Generating-Clusters/ReaxFF-fromJPCA2015/Units_Real/with-SteepDescent/Higher-Symm
REM
REM
REM
REM
REM
REM ./C.cell (1df0a924f5614ab8850e4351716899ee)
REM
REM compiler GCC version 9.2.1 20190827 (Red Hat 9.2.1-1)
REM options -cpp -mtune=generic -march=x86-64 -g -O0 -fpre-include=/usr/include/finclude/math-vector-fortran.h
REM seed -259120255 -855749792 -1553342465 -525938367 -1253425514 1829004266 -1652321269 -407380079 1746872356 1529496249 -703797672 1775379665 952686645 -505379449 468756290 -1902301891 2133357409 -1428243896 992866088 1033244583 -2079488046 -774032616 -61546861 -629395068 -1569463330 -1465157805 -674042552 2017389764 -1951933290 -480864748 -540418272 1159291302 1751198027
REM
CELL 1.54180   50.00000   50.00000   50.00000   90.00000   90.00000   90.00000
LATT -1
SFAC C  
C      1  0.5672150000000  0.5220870000000  0.4985270000000 1.0
C      1  0.5536010000000  0.5220040000000  0.4588320000000 1.0
C      1  0.5192020000000  0.5232310000000  0.4356750000000 1.0
C      1  0.4777530000000  0.5222900000000  0.4365980000000 1.0
C      1  0.4447990000000  0.5232420000000  0.4616880000000 1.0
C      1  0.4327770000000  0.5220860000000  0.5013330000000 1.0
C      1  0.4463390000000  0.5220440000000  0.5411800000000 1.0
C      1  0.4807590000000  0.5232050000000  0.5643300000000 1.0
C      1  0.5222750000000  0.5223190000000  0.5635010000000 1.0
C      1  0.5553680000000  0.5234650000000  0.5383710000000 1.0
C      1  0.4712210000000  0.4486680000000  0.4637320000000 1.0
C      1  0.4553550000000  0.4491080000000  0.4875680000000 1.0
C      1  0.4563490000000  0.4486540000000  0.5162480000000 1.0
C      1  0.4742700000000  0.4489290000000  0.5386850000000 1.0
C      1  0.5018690000000  0.4490980000000  0.5461930000000 1.0
C      1  0.5287810000000  0.4485970000000  0.5362700000000 1.0
C      1  0.5446650000000  0.4491480000000  0.5123790000000 1.0
C      1  0.5436480000000  0.4485940000000  0.4837460000000 1.0
C      1  0.5257250000000  0.4489810000000  0.4613170000000 1.0
C      1  0.4980790000000  0.4490520000000  0.4538220000000 1.0
C      1  0.4697460000000  0.4801910000000  0.4614380000000 1.0
C      1  0.4531970000000  0.4804800000000  0.4863860000000 1.0
C      1  0.4534120000000  0.4798480000000  0.5170510000000 1.0
C      1  0.4726280000000  0.4803210000000  0.5408190000000 1.0
C      1  0.5016660000000  0.4806230000000  0.5484070000000 1.0
C      1  0.5301820000000  0.4798340000000  0.5384600000000 1.0
C      1  0.5467460000000  0.4805140000000  0.5135730000000 1.0
C      1  0.5465890000000  0.4798610000000  0.4829240000000 1.0
C      1  0.5273250000000  0.4803160000000  0.4592130000000 1.0
C      1  0.4982900000000  0.4805850000000  0.4516090000000 1.0
C      1  0.5425920000000  0.5037170000000  0.5548170000000 1.0
C      1  0.5656000000000  0.5036520000000  0.5203790000000 1.0
C      1  0.5652800000000  0.5033060000000  0.4769610000000 1.0
C      1  0.5385580000000  0.5035680000000  0.4427560000000 1.0
C      1  0.4987640000000  0.5037050000000  0.4313760000000 1.0
C      1  0.4578800000000  0.5036880000000  0.4455230000000 1.0
C      1  0.4343380000000  0.5035810000000  0.4795640000000 1.0
C      1  0.4346630000000  0.5033520000000  0.5230230000000 1.0
C      1  0.4613960000000  0.5035680000000  0.5572260000000 1.0
C      1  0.5011750000000  0.5037130000000  0.5685740000000 1.0
C      1  0.4850330000000  0.5443220000000  0.4554720000000 1.0
C      1  0.4617100000000  0.5452390000000  0.4728620000000 1.0
C      1  0.4529080000000  0.5443410000000  0.5006220000000 1.0
C      1  0.4620150000000  0.5441300000000  0.5281730000000 1.0
C      1  0.4858350000000  0.5453060000000  0.5448600000000 1.0
C      1  0.5149530000000  0.5443010000000  0.5445050000000 1.0
C      1  0.5382540000000  0.5453250000000  0.5271120000000 1.0
C      1  0.5470830000000  0.5443360000000  0.4993680000000 1.0
C      1  0.5379790000000  0.5441310000000  0.4718190000000 1.0
C      1  0.5141550000000  0.5453450000000  0.4551340000000 1.0
END
