TITL C-2441165-58-762 0.0151225882648127 125000 -9736.2817166288 0 0 67 (C1) n - 1
REM
REM in /home/bkarasulu/work/CARBON/AIRSS/Generating-Clusters/ReaxFF-fromJPCA2015/Units_Real/with-SteepDescent/Higher-Symm
REM
REM
REM
REM
REM
REM ./C.cell (1df0a924f5614ab8850e4351716899ee)
REM
REM compiler GCC version 9.2.1 20190827 (Red Hat 9.2.1-1)
REM options -cpp -mtune=generic -march=x86-64 -g -O0 -fpre-include=/usr/include/finclude/math-vector-fortran.h
REM seed 1230602660 -397960948 1333437835 -1769639163 -1712800204 1106506187 -882208242 -1239421586 1126866858 -838575409 104692928 -757159567 -1906185438 -740693994 1811718316 2146540455 -1986812583 -1362747662 916689855 -2131009727 1843061332 -580679112 -1758422680 1704742243 1398644046 -502169073 -331274662 -328667804 2125305774 889243436 1946660257 -1753005908 886996813
REM
CELL 1.54180   50.00000   50.00000   50.00000   90.00000   90.00000   90.00000
LATT -1
SFAC C  
C      1  0.5161370000000  0.4805940000000  0.4559430000000 1.0
C      1  0.5075100000000  0.5233030000000  0.4593470000000 1.0
C      1  0.4761550000000  0.4944470000000  0.4593300000000 1.0
C      1  0.4841570000000  0.4814380000000  0.5417330000000 1.0
C      1  0.4938030000000  0.5237800000000  0.5412130000000 1.0
C      1  0.5272030000000  0.4950860000000  0.5499010000000 1.0
C      1  0.5419520000000  0.5598310000000  0.5003880000000 1.0
C      1  0.4271650000000  0.5063980000000  0.5012910000000 1.0
C      1  0.5314730000000  0.4319570000000  0.5008980000000 1.0
C      1  0.4579330000000  0.5600110000000  0.4989700000000 1.0
C      1  0.5716670000000  0.5066610000000  0.5004460000000 1.0
C      1  0.4694800000000  0.4324620000000  0.4981040000000 1.0
C      1  0.4839010000000  0.5593280000000  0.4591690000000 1.0
C      1  0.4563360000000  0.4560060000000  0.4584780000000 1.0
C      1  0.5593070000000  0.4841910000000  0.4589720000000 1.0
C      1  0.5168310000000  0.5614440000000  0.5407900000000 1.0
C      1  0.5442450000000  0.4534820000000  0.5418870000000 1.0
C      1  0.4413840000000  0.4842250000000  0.5409570000000 1.0
C      1  0.4348760000000  0.5096080000000  0.5293730000000 1.0
C      1  0.5243330000000  0.4368010000000  0.5292060000000 1.0
C      1  0.5416280000000  0.5534600000000  0.5286570000000 1.0
C      1  0.5652250000000  0.5091630000000  0.4718180000000 1.0
C      1  0.4756240000000  0.4378000000000  0.4693590000000 1.0
C      1  0.4587950000000  0.5518790000000  0.4708610000000 1.0
C      1  0.4323580000000  0.4644060000000  0.5211850000000 1.0
C      1  0.5653260000000  0.4575590000000  0.5208190000000 1.0
C      1  0.5038520000000  0.5781480000000  0.5206280000000 1.0
C      1  0.5683570000000  0.4648350000000  0.4792040000000 1.0
C      1  0.4356400000000  0.4580680000000  0.4795070000000 1.0
C      1  0.4965700000000  0.5768960000000  0.4790220000000 1.0
C      1  0.5292390000000  0.5192050000000  0.4418210000000 1.0
C      1  0.4688810000000  0.5155140000000  0.4416570000000 1.0
C      1  0.5020710000000  0.4649720000000  0.4392700000000 1.0
C      1  0.4716990000000  0.5194050000000  0.5584720000000 1.0
C      1  0.5325770000000  0.5214640000000  0.5605980000000 1.0
C      1  0.4973180000000  0.4642430000000  0.5587360000000 1.0
C      1  0.4797150000000  0.5787840000000  0.5028390000000 1.0
C      1  0.4422270000000  0.4422650000000  0.5034830000000 1.0
C      1  0.5778520000000  0.4784120000000  0.5033860000000 1.0
C      1  0.5207130000000  0.5789950000000  0.4965190000000 1.0
C      1  0.5587970000000  0.4419750000000  0.4968300000000 1.0
C      1  0.4221490000000  0.4781610000000  0.4973600000000 1.0
C      1  0.4726810000000  0.4743200000000  0.4416010000000 1.0
C      1  0.5355780000000  0.4888360000000  0.4411690000000 1.0
C      1  0.4918620000000  0.5360260000000  0.4427230000000 1.0
C      1  0.5272580000000  0.4684790000000  0.5606430000000 1.0
C      1  0.4652850000000  0.4893290000000  0.5573610000000 1.0
C      1  0.5081660000000  0.5387700000000  0.5584740000000 1.0
C      1  0.5340380000000  0.5403600000000  0.4832000000000 1.0
C      1  0.4465520000000  0.5085250000000  0.4816760000000 1.0
C      1  0.5194270000000  0.4476800000000  0.4796910000000 1.0
C      1  0.4659480000000  0.5423020000000  0.5185130000000 1.0
C      1  0.5535270000000  0.5091930000000  0.5204830000000 1.0
C      1  0.4814980000000  0.4498230000000  0.5175900000000 1.0
C      1  0.5518670000000  0.5287430000000  0.5402550000000 1.0
C      1  0.4517530000000  0.5305070000000  0.5400600000000 1.0
C      1  0.4974300000000  0.4413640000000  0.5400530000000 1.0
C      1  0.4492350000000  0.5267960000000  0.4600890000000 1.0
C      1  0.5484760000000  0.5302450000000  0.4610720000000 1.0
C      1  0.5019290000000  0.4415530000000  0.4573310000000 1.0
C      1  0.5311280000000  0.4926940000000  0.5200080000000 1.0
C      1  0.4909010000000  0.5316250000000  0.5147110000000 1.0
C      1  0.4822080000000  0.4804710000000  0.5121880000000 1.0
C      1  0.4684250000000  0.4928660000000  0.4858640000000 1.0
C      1  0.5087540000000  0.5258890000000  0.4891540000000 1.0
C      1  0.5217830000000  0.4767310000000  0.4837880000000 1.0
C      1  0.5098650000000  0.4934080000000  0.5020990000000 1.0
END
