TITL C-2441165-58-742 0.028906004487911 125000 -14854.0603479031 0 0 106 (C1) n - 1
REM
REM in /home/bkarasulu/work/CARBON/AIRSS/Generating-Clusters/ReaxFF-fromJPCA2015/Units_Real/with-SteepDescent/Higher-Symm
REM
REM
REM
REM
REM
REM ./C.cell (1df0a924f5614ab8850e4351716899ee)
REM
REM compiler GCC version 9.2.1 20190827 (Red Hat 9.2.1-1)
REM options -cpp -mtune=generic -march=x86-64 -g -O0 -fpre-include=/usr/include/finclude/math-vector-fortran.h
REM seed -1360384143 1637282970 -798781801 1698024211 -1505662223 -83563330 1226203441 -829981883 1541207569 1372819594 1846630316 1202135446 1008650078 276429988 -376393365 -1217423502 912406099 2044155354 487615702 -175891926 -2052664839 -1923902373 1714629560 378764828 -1015754145 1113679008 218600573 -306057456 2097143696 -1266873137 1809674234 2146885704 1126421284
REM
CELL 1.54180   50.00000   50.00000   50.00000   90.00000   90.00000   90.00000
LATT -1
SFAC C  
C      1  0.4598080000000  0.5217680000000  0.5308440000000 1.0
C      1  0.4722280000000  0.4678610000000  0.4653910000000 1.0
C      1  0.5352980000000  0.5287800000000  0.4725880000000 1.0
C      1  0.5274310000000  0.4721250000000  0.5382530000000 1.0
C      1  0.4049690000000  0.4964450000000  0.4798530000000 1.0
C      1  0.5062600000000  0.5056530000000  0.4059480000000 1.0
C      1  0.5947980000000  0.4921150000000  0.5131140000000 1.0
C      1  0.4947310000000  0.5064970000000  0.5950860000000 1.0
C      1  0.5115360000000  0.5445870000000  0.4909480000000 1.0
C      1  0.5129930000000  0.4548550000000  0.5241170000000 1.0
C      1  0.4797840000000  0.5404140000000  0.5188030000000 1.0
C      1  0.4869230000000  0.4516130000000  0.4852420000000 1.0
C      1  0.4946110000000  0.4802050000000  0.5872330000000 1.0
C      1  0.4163820000000  0.5144590000000  0.4979910000000 1.0
C      1  0.5076050000000  0.4794940000000  0.4134680000000 1.0
C      1  0.5872520000000  0.5178060000000  0.5072320000000 1.0
C      1  0.5643700000000  0.5582210000000  0.4968060000000 1.0
C      1  0.5058480000000  0.4396580000000  0.5656800000000 1.0
C      1  0.4383120000000  0.5574090000000  0.5056430000000 1.0
C      1  0.4974780000000  0.4412860000000  0.4327740000000 1.0
C      1  0.5240340000000  0.5869750000000  0.5170330000000 1.0
C      1  0.4842710000000  0.4132480000000  0.5223230000000 1.0
C      1  0.4808960000000  0.5860740000000  0.4856800000000 1.0
C      1  0.5165250000000  0.4114060000000  0.4773950000000 1.0
C      1  0.4974940000000  0.4929440000000  0.5085000000000 1.0
C      1  0.4815400000000  0.5062730000000  0.4867270000000 1.0
C      1  0.5033380000000  0.4961350000000  0.4661040000000 1.0
C      1  0.5252750000000  0.5019970000000  0.5086180000000 1.0
C      1  0.4705590000000  0.4522150000000  0.4400420000000 1.0
C      1  0.5554690000000  0.5496530000000  0.4690250000000 1.0
C      1  0.5333750000000  0.4500990000000  0.5619620000000 1.0
C      1  0.4412630000000  0.5466120000000  0.5331850000000 1.0
C      1  0.5251200000000  0.5668540000000  0.5606160000000 1.0
C      1  0.4425790000000  0.4359850000000  0.5248430000000 1.0
C      1  0.4760450000000  0.5689300000000  0.4419110000000 1.0
C      1  0.5443280000000  0.4209590000000  0.4792270000000 1.0
C      1  0.4931310000000  0.4649290000000  0.5101660000000 1.0
C      1  0.4845380000000  0.5347300000000  0.4910030000000 1.0
C      1  0.5123310000000  0.4703410000000  0.4705950000000 1.0
C      1  0.5260360000000  0.5300800000000  0.5132410000000 1.0
C      1  0.4589410000000  0.4183330000000  0.5081180000000 1.0
C      1  0.4955540000000  0.5825670000000  0.4593810000000 1.0
C      1  0.5527350000000  0.4327500000000  0.5057100000000 1.0
C      1  0.5078190000000  0.5807160000000  0.5412610000000 1.0
C      1  0.5200950000000  0.4596440000000  0.4260200000000 1.0
C      1  0.5717580000000  0.5371090000000  0.5162750000000 1.0
C      1  0.4875800000000  0.4602050000000  0.5730550000000 1.0
C      1  0.4313180000000  0.5377830000000  0.4851490000000 1.0
C      1  0.5452550000000  0.5367750000000  0.4272750000000 1.0
C      1  0.5689950000000  0.4648940000000  0.5457050000000 1.0
C      1  0.4563760000000  0.5365200000000  0.5731400000000 1.0
C      1  0.4312510000000  0.4627170000000  0.4534530000000 1.0
C      1  0.5205630000000  0.5522120000000  0.4362270000000 1.0
C      1  0.5709000000000  0.4526230000000  0.5162150000000 1.0
C      1  0.4812730000000  0.5507870000000  0.5651450000000 1.0
C      1  0.4367170000000  0.4483620000000  0.4796210000000 1.0
C      1  0.5507360000000  0.5743850000000  0.5167650000000 1.0
C      1  0.4843680000000  0.4274020000000  0.5481880000000 1.0
C      1  0.4538740000000  0.5744610000000  0.4868230000000 1.0
C      1  0.5136560000000  0.4241220000000  0.4502430000000 1.0
C      1  0.5427100000000  0.4316640000000  0.4517050000000 1.0
C      1  0.5499280000000  0.5637890000000  0.5449450000000 1.0
C      1  0.4596860000000  0.4440140000000  0.5474600000000 1.0
C      1  0.4514580000000  0.5646030000000  0.4585600000000 1.0
C      1  0.5202390000000  0.4991850000000  0.5521220000000 1.0
C      1  0.4392710000000  0.5004640000000  0.5155280000000 1.0
C      1  0.4733010000000  0.5059390000000  0.4365820000000 1.0
C      1  0.5574670000000  0.4976590000000  0.4751750000000 1.0
C      1  0.4566150000000  0.4903400000000  0.4734660000000 1.0
C      1  0.5224910000000  0.5126870000000  0.4522640000000 1.0
C      1  0.5456120000000  0.4879130000000  0.5217810000000 1.0
C      1  0.4663840000000  0.5004610000000  0.5528580000000 1.0
C      1  0.4774330000000  0.5132650000000  0.4112790000000 1.0
C      1  0.5822300000000  0.4820940000000  0.4705530000000 1.0
C      1  0.5199210000000  0.5199790000000  0.5873650000000 1.0
C      1  0.4174900000000  0.4884980000000  0.5320040000000 1.0
C      1  0.4484960000000  0.4679290000000  0.4294860000000 1.0
C      1  0.5675710000000  0.5331000000000  0.4464690000000 1.0
C      1  0.5512700000000  0.4710100000000  0.5695880000000 1.0
C      1  0.4301480000000  0.5345120000000  0.5572820000000 1.0
C      1  0.5302220000000  0.5122430000000  0.4234790000000 1.0
C      1  0.5720630000000  0.4913710000000  0.5338850000000 1.0
C      1  0.4679410000000  0.5107610000000  0.5800790000000 1.0
C      1  0.4281020000000  0.4904930000000  0.4643530000000 1.0
C      1  0.5412360000000  0.4717270000000  0.4720910000000 1.0
C      1  0.5257800000000  0.5262330000000  0.5415860000000 1.0
C      1  0.4510370000000  0.4758140000000  0.5162090000000 1.0
C      1  0.4753730000000  0.5279410000000  0.4527810000000 1.0
C      1  0.4478700000000  0.5361410000000  0.4606030000000 1.0
C      1  0.5441980000000  0.4601150000000  0.4455410000000 1.0
C      1  0.5539490000000  0.5354460000000  0.5426300000000 1.0
C      1  0.4617420000000  0.4735230000000  0.5433350000000 1.0
C      1  0.4849010000000  0.5618290000000  0.5382830000000 1.0
C      1  0.4610390000000  0.4336100000000  0.4835540000000 1.0
C      1  0.5197260000000  0.5662860000000  0.4606590000000 1.0
C      1  0.5267030000000  0.4310540000000  0.5186890000000 1.0
C      1  0.5096050000000  0.5454990000000  0.5739710000000 1.0
C      1  0.4311590000000  0.4572340000000  0.5084750000000 1.0
C      1  0.4902800000000  0.5452700000000  0.4331500000000 1.0
C      1  0.5863940000000  0.4687220000000  0.4970480000000 1.0
C      1  0.4182820000000  0.5095790000000  0.5487980000000 1.0
C      1  0.4555150000000  0.4944340000000  0.4192880000000 1.0
C      1  0.5764230000000  0.5061890000000  0.4536750000000 1.0
C      1  0.5374530000000  0.4986170000000  0.5745080000000 1.0
C      1  0.5037150000000  0.5756200000000  0.5001210000000 1.0
C      1  0.5080820000000  0.4130860000000  0.5057680000000 1.0
END
