TITL C-2441162-9305-1404 0.127501231787569 125000 -20823.6567102399 0 0 159 (C1) n - 1
REM
REM in /home/bkarasulu/work/CARBON/AIRSS/Generating-Clusters/ReaxFF-fromJPCA2015/Units_Real/with-SteepDescent/Higher-Symm
REM
REM
REM
REM
REM
REM ./C.cell (1df0a924f5614ab8850e4351716899ee)
REM
REM compiler GCC version 9.2.1 20190827 (Red Hat 9.2.1-1)
REM options -cpp -mtune=generic -march=x86-64 -g -O0 -fpre-include=/usr/include/finclude/math-vector-fortran.h
REM seed -1112815247 609842579 -1812142688 -232572220 -1933933080 -675152500 -915733860 1648020904 1900681225 -247792623 -829827626 -422483615 655807754 1656981099 525263882 616889319 1703222171 143737944 1315337587 -1498539489 -312245339 1669845772 -835686594 -1061449178 -255805288 1423184510 -1206455799 1859905698 -256905897 -316577909 -1072118595 -1680833696 2004716209
REM
CELL 1.54180   50.00000   50.00000   50.00000   90.00000   90.00000   90.00000
LATT -1
SFAC C  
C      1  0.4667320000000  0.5591130000000  0.5110250000000 1.0
C      1  0.4684970000000  0.4706800000000  0.5512030000000 1.0
C      1  0.4667680000000  0.4759940000000  0.4460010000000 1.0
C      1  0.5620070000000  0.4290660000000  0.5425570000000 1.0
C      1  0.5592850000000  0.4991160000000  0.4160030000000 1.0
C      1  0.5640460000000  0.5747510000000  0.5429420000000 1.0
C      1  0.5470570000000  0.5413540000000  0.4684140000000 1.0
C      1  0.5369570000000  0.5070080000000  0.5384660000000 1.0
C      1  0.5442220000000  0.4521470000000  0.4792690000000 1.0
C      1  0.5097600000000  0.5012100000000  0.4027110000000 1.0
C      1  0.5119350000000  0.5826300000000  0.5532160000000 1.0
C      1  0.5151170000000  0.4114880000000  0.5449970000000 1.0
C      1  0.4223140000000  0.5621620000000  0.4986390000000 1.0
C      1  0.4197390000000  0.4794330000000  0.5536140000000 1.0
C      1  0.4126640000000  0.4804330000000  0.4494590000000 1.0
C      1  0.5637790000000  0.5660110000000  0.4677890000000 1.0
C      1  0.5632420000000  0.4948110000000  0.5771810000000 1.0
C      1  0.5635860000000  0.4397860000000  0.4604180000000 1.0
C      1  0.5936540000000  0.4914170000000  0.4915130000000 1.0
C      1  0.5853430000000  0.5207030000000  0.5027880000000 1.0
C      1  0.5960310000000  0.4766650000000  0.5157110000000 1.0
C      1  0.5415930000000  0.4140810000000  0.4554500000000 1.0
C      1  0.5354490000000  0.5852620000000  0.4527240000000 1.0
C      1  0.5385640000000  0.4988680000000  0.5941250000000 1.0
C      1  0.4391460000000  0.5848900000000  0.4945020000000 1.0
C      1  0.4451830000000  0.4633180000000  0.5694030000000 1.0
C      1  0.4300180000000  0.4593440000000  0.4425270000000 1.0
C      1  0.4631460000000  0.5058000000000  0.5954260000000 1.0
C      1  0.4682600000000  0.4157690000000  0.4523000000000 1.0
C      1  0.4623020000000  0.5797640000000  0.4468410000000 1.0
C      1  0.4162630000000  0.4494120000000  0.4932390000000 1.0
C      1  0.4103240000000  0.5308610000000  0.4587010000000 1.0
C      1  0.4130070000000  0.5269120000000  0.5421880000000 1.0
C      1  0.4410200000000  0.5608260000000  0.4458210000000 1.0
C      1  0.4411400000000  0.5179110000000  0.5815710000000 1.0
C      1  0.4456160000000  0.4192420000000  0.4696230000000 1.0
C      1  0.5494670000000  0.5597970000000  0.5776650000000 1.0
C      1  0.5522820000000  0.4069800000000  0.5091500000000 1.0
C      1  0.5506840000000  0.5391780000000  0.4136290000000 1.0
C      1  0.4758490000000  0.4319200000000  0.4284040000000 1.0
C      1  0.4582630000000  0.5911180000000  0.4729730000000 1.0
C      1  0.4624560000000  0.4777730000000  0.5920470000000 1.0
C      1  0.5291490000000  0.4619770000000  0.4151420000000 1.0
C      1  0.5328890000000  0.5880730000000  0.5091850000000 1.0
C      1  0.5290220000000  0.4484500000000  0.5688280000000 1.0
C      1  0.5739610000000  0.5710600000000  0.4949330000000 1.0
C      1  0.5697430000000  0.4704270000000  0.5645480000000 1.0
C      1  0.5704560000000  0.4645990000000  0.4451960000000 1.0
C      1  0.4762520000000  0.5303160000000  0.4783040000000 1.0
C      1  0.4809130000000  0.5013780000000  0.5195360000000 1.0
C      1  0.4646890000000  0.4666520000000  0.4949340000000 1.0
C      1  0.4077570000000  0.5239180000000  0.5011230000000 1.0
C      1  0.4038270000000  0.4819560000000  0.5297010000000 1.0
C      1  0.3974930000000  0.4855190000000  0.4740590000000 1.0
C      1  0.4909430000000  0.4348610000000  0.5198000000000 1.0
C      1  0.4951140000000  0.5215250000000  0.4384060000000 1.0
C      1  0.4936050000000  0.5364620000000  0.5475760000000 1.0
C      1  0.3997850000000  0.4713840000000  0.4998750000000 1.0
C      1  0.3954070000000  0.5145620000000  0.4765220000000 1.0
C      1  0.3981840000000  0.5098740000000  0.5250600000000 1.0
C      1  0.4793050000000  0.4559120000000  0.4110200000000 1.0
C      1  0.4862920000000  0.5945080000000  0.5092370000000 1.0
C      1  0.4852550000000  0.4410100000000  0.5800840000000 1.0
C      1  0.5175700000000  0.5496990000000  0.5548780000000 1.0
C      1  0.5171820000000  0.4264480000000  0.5153130000000 1.0
C      1  0.5219520000000  0.5101230000000  0.4394350000000 1.0
C      1  0.5183110000000  0.5166570000000  0.5117940000000 1.0
C      1  0.5123980000000  0.4706770000000  0.5026040000000 1.0
C      1  0.5169050000000  0.5150350000000  0.4839920000000 1.0
C      1  0.4511540000000  0.5441710000000  0.5744540000000 1.0
C      1  0.4511770000000  0.4116390000000  0.4982020000000 1.0
C      1  0.4515290000000  0.5427640000000  0.4257590000000 1.0
C      1  0.5387260000000  0.5152180000000  0.4025710000000 1.0
C      1  0.5421580000000  0.5811710000000  0.5614230000000 1.0
C      1  0.5443420000000  0.4060470000000  0.5372800000000 1.0
C      1  0.5260620000000  0.4170380000000  0.4333790000000 1.0
C      1  0.5106350000000  0.5980440000000  0.4642490000000 1.0
C      1  0.5162200000000  0.4790190000000  0.5987710000000 1.0
C      1  0.5417890000000  0.5338210000000  0.5474150000000 1.0
C      1  0.5475550000000  0.4372340000000  0.5041820000000 1.0
C      1  0.5459630000000  0.5266700000000  0.4433720000000 1.0
C      1  0.4910540000000  0.5105530000000  0.5593480000000 1.0
C      1  0.4906540000000  0.4439490000000  0.4747990000000 1.0
C      1  0.4917350000000  0.5543280000000  0.4690530000000 1.0
C      1  0.4273690000000  0.4417580000000  0.4656920000000 1.0
C      1  0.4231490000000  0.5542040000000  0.4694040000000 1.0
C      1  0.4226600000000  0.5063790000000  0.5616100000000 1.0
C      1  0.4433370000000  0.5163260000000  0.4240580000000 1.0
C      1  0.4428570000000  0.5577460000000  0.5493580000000 1.0
C      1  0.4448470000000  0.4273690000000  0.5225820000000 1.0
C      1  0.4599690000000  0.4201130000000  0.5458180000000 1.0
C      1  0.4595990000000  0.4996830000000  0.4083780000000 1.0
C      1  0.4612390000000  0.5797730000000  0.5486610000000 1.0
C      1  0.4817360000000  0.5002970000000  0.4526820000000 1.0
C      1  0.4866610000000  0.5441160000000  0.5224660000000 1.0
C      1  0.4859430000000  0.4586530000000  0.5328580000000 1.0
C      1  0.4597940000000  0.4950720000000  0.5372820000000 1.0
C      1  0.4544410000000  0.4771300000000  0.4714820000000 1.0
C      1  0.4547000000000  0.5382230000000  0.4952170000000 1.0
C      1  0.5558750000000  0.4455280000000  0.5648030000000 1.0
C      1  0.5548350000000  0.4719650000000  0.4221440000000 1.0
C      1  0.5584830000000  0.5814920000000  0.5165100000000 1.0
C      1  0.5270800000000  0.4701480000000  0.5265430000000 1.0
C      1  0.5283760000000  0.4883900000000  0.4591810000000 1.0
C      1  0.5300070000000  0.5439990000000  0.5081460000000 1.0
C      1  0.5262760000000  0.5461660000000  0.5853040000000 1.0
C      1  0.5253660000000  0.4011900000000  0.5001730000000 1.0
C      1  0.5277360000000  0.5534480000000  0.4141800000000 1.0
C      1  0.5858580000000  0.5271930000000  0.4505440000000 1.0
C      1  0.5859570000000  0.5255140000000  0.5349140000000 1.0
C      1  0.5899920000000  0.4499940000000  0.5064470000000 1.0
C      1  0.5503400000000  0.4815970000000  0.5144040000000 1.0
C      1  0.5482550000000  0.4922200000000  0.4854530000000 1.0
C      1  0.5573670000000  0.5191330000000  0.4896170000000 1.0
C      1  0.4878420000000  0.4772470000000  0.5096980000000 1.0
C      1  0.5030380000000  0.4948690000000  0.4712620000000 1.0
C      1  0.4883490000000  0.5221290000000  0.5083560000000 1.0
C      1  0.4773230000000  0.5522660000000  0.5822900000000 1.0
C      1  0.4771320000000  0.4012240000000  0.5023340000000 1.0
C      1  0.4800390000000  0.5385670000000  0.4183060000000 1.0
C      1  0.5095540000000  0.5912770000000  0.5249210000000 1.0
C      1  0.5089530000000  0.4296640000000  0.5674280000000 1.0
C      1  0.5040910000000  0.4721170000000  0.4061880000000 1.0
C      1  0.5697580000000  0.5072710000000  0.4427700000000 1.0
C      1  0.5662370000000  0.5456720000000  0.5395910000000 1.0
C      1  0.5649100000000  0.4502690000000  0.5207730000000 1.0
C      1  0.5196440000000  0.4034440000000  0.4715100000000 1.0
C      1  0.5170060000000  0.5724680000000  0.4311120000000 1.0
C      1  0.5196970000000  0.5204180000000  0.5962930000000 1.0
C      1  0.4835470000000  0.4071070000000  0.5313990000000 1.0
C      1  0.4834400000000  0.5140070000000  0.3995850000000 1.0
C      1  0.4838720000000  0.5748560000000  0.5656840000000 1.0
C      1  0.5922200000000  0.5486020000000  0.4919120000000 1.0
C      1  0.5888200000000  0.4830240000000  0.5453340000000 1.0
C      1  0.5890550000000  0.4742390000000  0.4676940000000 1.0
C      1  0.5195030000000  0.4728920000000  0.5707660000000 1.0
C      1  0.5210520000000  0.4447100000000  0.4351810000000 1.0
C      1  0.5284200000000  0.5846000000000  0.4813560000000 1.0
C      1  0.4270680000000  0.5089890000000  0.4480740000000 1.0
C      1  0.4251560000000  0.5491210000000  0.5285310000000 1.0
C      1  0.4321160000000  0.4533300000000  0.5178720000000 1.0
C      1  0.4885150000000  0.4661750000000  0.5948690000000 1.0
C      1  0.4946580000000  0.4451650000000  0.4461880000000 1.0
C      1  0.4870970000000  0.5888510000000  0.4811740000000 1.0
C      1  0.5195330000000  0.5426060000000  0.4772790000000 1.0
C      1  0.5153160000000  0.4922960000000  0.5514060000000 1.0
C      1  0.5162090000000  0.4558950000000  0.4812700000000 1.0
C      1  0.4580950000000  0.4356930000000  0.5701530000000 1.0
C      1  0.4549750000000  0.4710350000000  0.4189670000000 1.0
C      1  0.4602360000000  0.5892390000000  0.5194720000000 1.0
C      1  0.5894970000000  0.4472010000000  0.4777850000000 1.0
C      1  0.5913600000000  0.5515310000000  0.4624570000000 1.0
C      1  0.5850210000000  0.5084890000000  0.5581580000000 1.0
C      1  0.4881620000000  0.5225010000000  0.5871620000000 1.0
C      1  0.4888330000000  0.4125740000000  0.4750480000000 1.0
C      1  0.4884050000000  0.5648070000000  0.4407430000000 1.0
C      1  0.4373460000000  0.5139780000000  0.5003180000000 1.0
C      1  0.4462110000000  0.4790280000000  0.5139130000000 1.0
C      1  0.4447060000000  0.5040040000000  0.4739410000000 1.0
END
