TITL C-2441169-1362-908 0.126849534338593 125000 -16714.5676338658 0 0 134 (C1) n - 1
REM
REM in /home/bkarasulu/work/CARBON/AIRSS/Generating-Clusters/ReaxFF-fromJPCA2015/Units_Real/with-SteepDescent/Higher-Symm
REM
REM
REM
REM
REM
REM ./C.cell (1df0a924f5614ab8850e4351716899ee)
REM
REM compiler GCC version 9.2.1 20190827 (Red Hat 9.2.1-1)
REM options -cpp -mtune=generic -march=x86-64 -g -O0 -fpre-include=/usr/include/finclude/math-vector-fortran.h
REM seed 2075551602 -1261837144 1410352064 691955846 779595590 206806685 -1351589712 1475425977 -1764979270 -656902202 1571018415 -1578193775 41383084 -1697375358 -20615028 2112906042 558557276 -1618734214 -696012942 1075299772 1861481533 1426249404 -1892935756 -12571426 1643279455 -1231646260 -1666459788 1406586727 -36858788 27537471 -1261978730 1198813559 -497806513
REM
CELL 1.54180   50.00000   50.00000   50.00000   90.00000   90.00000   90.00000
LATT -1
SFAC C  
C      1  0.4120780000000  0.5228110000000  0.4812000000000 1.0
C      1  0.4552590000000  0.5215470000000  0.5784000000000 1.0
C      1  0.5433040000000  0.5250880000000  0.5745940000000 1.0
C      1  0.5833760000000  0.5237340000000  0.4633680000000 1.0
C      1  0.4925570000000  0.5227180000000  0.4121500000000 1.0
C      1  0.5298810000000  0.4227450000000  0.5712690000000 1.0
C      1  0.5772190000000  0.4253080000000  0.4959540000000 1.0
C      1  0.5198610000000  0.4229630000000  0.4246920000000 1.0
C      1  0.4338580000000  0.4246960000000  0.4582870000000 1.0
C      1  0.4444930000000  0.4245430000000  0.5460700000000 1.0
C      1  0.5341070000000  0.5393790000000  0.4155130000000 1.0
C      1  0.4322330000000  0.5406340000000  0.4425490000000 1.0
C      1  0.4257500000000  0.5404700000000  0.5473010000000 1.0
C      1  0.5251270000000  0.5452960000000  0.5862470000000 1.0
C      1  0.5898880000000  0.5404830000000  0.5070210000000 1.0
C      1  0.4721540000000  0.4212880000000  0.5525760000000 1.0
C      1  0.5435610000000  0.4223980000000  0.5461860000000 1.0
C      1  0.5548800000000  0.4254330000000  0.4766520000000 1.0
C      1  0.4957610000000  0.4225990000000  0.4393220000000 1.0
C      1  0.4365960000000  0.4246480000000  0.4863110000000 1.0
C      1  0.4533050000000  0.5364540000000  0.4238110000000 1.0
C      1  0.4128940000000  0.5353350000000  0.5226840000000 1.0
C      1  0.4981280000000  0.5353490000000  0.5916680000000 1.0
C      1  0.5820400000000  0.5364840000000  0.5340710000000 1.0
C      1  0.5591020000000  0.5359130000000  0.4289360000000 1.0
C      1  0.5192810000000  0.4844320000000  0.4133600000000 1.0
C      1  0.4240470000000  0.4863650000000  0.4570340000000 1.0
C      1  0.4349030000000  0.4853180000000  0.5599620000000 1.0
C      1  0.5397730000000  0.4757430000000  0.5824720000000 1.0
C      1  0.5896350000000  0.4868570000000  0.4884760000000 1.0
C      1  0.5284450000000  0.5002400000000  0.5729200000000 1.0
C      1  0.5931080000000  0.5150660000000  0.4888850000000 1.0
C      1  0.5193440000000  0.5138920000000  0.4116890000000 1.0
C      1  0.4209140000000  0.5150890000000  0.4554300000000 1.0
C      1  0.4342250000000  0.5148930000000  0.5606330000000 1.0
C      1  0.4968970000000  0.5771540000000  0.5525510000000 1.0
C      1  0.5498700000000  0.5756120000000  0.5202580000000 1.0
C      1  0.5381180000000  0.5717800000000  0.4571350000000 1.0
C      1  0.4718600000000  0.5776380000000  0.4541710000000 1.0
C      1  0.4469990000000  0.5764210000000  0.5124830000000 1.0
C      1  0.5773390000000  0.5141340000000  0.4365850000000 1.0
C      1  0.4649020000000  0.5150100000000  0.4071460000000 1.0
C      1  0.4005590000000  0.5146170000000  0.5066360000000 1.0
C      1  0.4781900000000  0.5122550000000  0.5948180000000 1.0
C      1  0.5756110000000  0.5119520000000  0.5492040000000 1.0
C      1  0.4210670000000  0.4727210000000  0.5381520000000 1.0
C      1  0.5120770000000  0.4679240000000  0.5922800000000 1.0
C      1  0.5909370000000  0.4740230000000  0.5135220000000 1.0
C      1  0.5439710000000  0.4743460000000  0.4225010000000 1.0
C      1  0.4383000000000  0.4736100000000  0.4359820000000 1.0
C      1  0.5143530000000  0.4520310000000  0.4587570000000 1.0
C      1  0.4663210000000  0.4538680000000  0.4745270000000 1.0
C      1  0.4779000000000  0.4559550000000  0.5265020000000 1.0
C      1  0.5173150000000  0.4556700000000  0.5416630000000 1.0
C      1  0.5259790000000  0.4533880000000  0.4971160000000 1.0
C      1  0.4867060000000  0.4911570000000  0.4418660000000 1.0
C      1  0.4352540000000  0.4944380000000  0.5010310000000 1.0
C      1  0.4757220000000  0.4945080000000  0.5513420000000 1.0
C      1  0.5519600000000  0.4932000000000  0.5393410000000 1.0
C      1  0.5498930000000  0.4908170000000  0.4698180000000 1.0
C      1  0.4230820000000  0.4733310000000  0.4852520000000 1.0
C      1  0.4622540000000  0.4758710000000  0.5682130000000 1.0
C      1  0.5563890000000  0.4708620000000  0.5581100000000 1.0
C      1  0.5732770000000  0.4740470000000  0.4616320000000 1.0
C      1  0.4921070000000  0.4715230000000  0.4210700000000 1.0
C      1  0.4793800000000  0.5476660000000  0.5150740000000 1.0
C      1  0.5055060000000  0.5423510000000  0.5220640000000 1.0
C      1  0.5183160000000  0.5384510000000  0.4799730000000 1.0
C      1  0.5031730000000  0.5574560000000  0.4755810000000 1.0
C      1  0.4795870000000  0.5481180000000  0.4871310000000 1.0
C      1  0.5109390000000  0.5223600000000  0.4613630000000 1.0
C      1  0.4648900000000  0.5282940000000  0.4715950000000 1.0
C      1  0.4628420000000  0.5241990000000  0.5198250000000 1.0
C      1  0.5110250000000  0.5285690000000  0.5434060000000 1.0
C      1  0.5471580000000  0.5241890000000  0.5012970000000 1.0
C      1  0.4690740000000  0.4807540000000  0.4834900000000 1.0
C      1  0.4648220000000  0.4807400000000  0.5293780000000 1.0
C      1  0.5211650000000  0.4846700000000  0.5469350000000 1.0
C      1  0.5463760000000  0.4729440000000  0.4926430000000 1.0
C      1  0.5055740000000  0.4772360000000  0.4581930000000 1.0
C      1  0.5012940000000  0.5010370000000  0.5355160000000 1.0
C      1  0.5389300000000  0.4955040000000  0.5102230000000 1.0
C      1  0.5208460000000  0.4974380000000  0.4696170000000 1.0
C      1  0.4741180000000  0.5001500000000  0.4655490000000 1.0
C      1  0.4623150000000  0.4965630000000  0.5087170000000 1.0
C      1  0.4079910000000  0.4874690000000  0.5159190000000 1.0
C      1  0.4917240000000  0.4877030000000  0.5938800000000 1.0
C      1  0.5934780000000  0.4920970000000  0.5377140000000 1.0
C      1  0.5683530000000  0.4866460000000  0.4333600000000 1.0
C      1  0.4507900000000  0.4904850000000  0.4160870000000 1.0
C      1  0.4829720000000  0.5903740000000  0.4785820000000 1.0
C      1  0.4750670000000  0.5862950000000  0.5067010000000 1.0
C      1  0.5001040000000  0.5856990000000  0.5251050000000 1.0
C      1  0.5237350000000  0.5846180000000  0.5086740000000 1.0
C      1  0.5142350000000  0.5851650000000  0.4800420000000 1.0
C      1  0.4944450000000  0.5371890000000  0.5633650000000 1.0
C      1  0.5552550000000  0.5402820000000  0.5245520000000 1.0
C      1  0.5446330000000  0.5431180000000  0.4530430000000 1.0
C      1  0.4708420000000  0.5405290000000  0.4449610000000 1.0
C      1  0.4397220000000  0.5391480000000  0.5113520000000 1.0
C      1  0.4320230000000  0.4492260000000  0.4999950000000 1.0
C      1  0.4783480000000  0.4504640000000  0.5563100000000 1.0
C      1  0.5591710000000  0.4481230000000  0.5399360000000 1.0
C      1  0.5557880000000  0.4494460000000  0.4609780000000 1.0
C      1  0.4801640000000  0.4467010000000  0.4302480000000 1.0
C      1  0.4940440000000  0.4139600000000  0.5309080000000 1.0
C      1  0.5214670000000  0.4248770000000  0.5261600000000 1.0
C      1  0.5264030000000  0.4246250000000  0.4900120000000 1.0
C      1  0.5037120000000  0.4276320000000  0.4700060000000 1.0
C      1  0.4661130000000  0.4278820000000  0.4875900000000 1.0
C      1  0.5363920000000  0.4488140000000  0.4384380000000 1.0
C      1  0.4546100000000  0.4483110000000  0.4475240000000 1.0
C      1  0.4370610000000  0.4495450000000  0.5286790000000 1.0
C      1  0.5095400000000  0.4477960000000  0.5682530000000 1.0
C      1  0.5764620000000  0.4474150000000  0.5166980000000 1.0
C      1  0.5640830000000  0.5687210000000  0.4738200000000 1.0
C      1  0.4951800000000  0.5683400000000  0.4344490000000 1.0
C      1  0.4347040000000  0.5679890000000  0.4856470000000 1.0
C      1  0.4677170000000  0.5688670000000  0.5564940000000 1.0
C      1  0.5443490000000  0.5682510000000  0.5486190000000 1.0
C      1  0.5222230000000  0.5690070000000  0.5666660000000 1.0
C      1  0.5736760000000  0.5643890000000  0.5004260000000 1.0
C      1  0.5235110000000  0.5647240000000  0.4295270000000 1.0
C      1  0.4425050000000  0.5648390000000  0.4580890000000 1.0
C      1  0.4427640000000  0.5651320000000  0.5415360000000 1.0
C      1  0.5404900000000  0.5379790000000  0.5471540000000 1.0
C      1  0.5602420000000  0.5378220000000  0.4726190000000 1.0
C      1  0.4958910000000  0.5365070000000  0.4381050000000 1.0
C      1  0.4353060000000  0.5376830000000  0.4859230000000 1.0
C      1  0.4675950000000  0.5399390000000  0.5601730000000 1.0
C      1  0.4860620000000  0.4188380000000  0.5052590000000 1.0
C      1  0.5198570000000  0.5328850000000  0.5036730000000 1.0
C      1  0.5002010000000  0.4640470000000  0.5065790000000 1.0
C      1  0.5080850000000  0.4923150000000  0.5069720000000 1.0
END
