TITL C-2441156-4686-239 0.154526785801717 125000 -23943.8162304241 0 0 184 (C1) n - 1
REM
REM in /home/bkarasulu/work/CARBON/AIRSS/Generating-Clusters/ReaxFF-fromJPCA2015/Units_Real/with-SteepDescent/Higher-Symm
REM
REM
REM
REM
REM
REM ./C.cell (1df0a924f5614ab8850e4351716899ee)
REM
REM compiler GCC version 9.2.1 20190827 (Red Hat 9.2.1-1)
REM options -cpp -mtune=generic -march=x86-64 -g -O0 -fpre-include=/usr/include/finclude/math-vector-fortran.h
REM seed 880130140 134165330 846375638 120506416 966347845 -1162032034 1367071630 -679832173 303975579 1706444073 -116896441 1477067752 569067431 -1200454937 -1767684824 1278637765 1185456978 -1614367615 -342807502 1816236172 -2006244299 -434031406 966246630 747790985 -2055202137 530065789 -770849956 -1642500446 -1594923374 1665743337 -1309343985 2050191343 18890627
REM
CELL 1.54180   50.00000   50.00000   50.00000   90.00000   90.00000   90.00000
LATT -1
SFAC C  
C      1  0.4920440000000  0.4422650000000  0.4073920000000 1.0
C      1  0.4016230000000  0.4399940000000  0.5090430000000 1.0
C      1  0.5091680000000  0.4428750000000  0.5945940000000 1.0
C      1  0.5958100000000  0.4398050000000  0.4900370000000 1.0
C      1  0.4917530000000  0.5580630000000  0.5943400000000 1.0
C      1  0.4048440000000  0.5580990000000  0.4908820000000 1.0
C      1  0.5088860000000  0.5566610000000  0.4054820000000 1.0
C      1  0.5946120000000  0.5581810000000  0.5082360000000 1.0
C      1  0.4859210000000  0.4724680000000  0.4867140000000 1.0
C      1  0.4779000000000  0.4732570000000  0.5099560000000 1.0
C      1  0.5165030000000  0.4690910000000  0.5146680000000 1.0
C      1  0.5142840000000  0.4713560000000  0.4894370000000 1.0
C      1  0.4900640000000  0.5286310000000  0.5154370000000 1.0
C      1  0.4877620000000  0.5256070000000  0.4892190000000 1.0
C      1  0.5114120000000  0.5224490000000  0.4810050000000 1.0
C      1  0.5150190000000  0.5311130000000  0.5169190000000 1.0
C      1  0.4808070000000  0.5860520000000  0.5564480000000 1.0
C      1  0.5565690000000  0.5861420000000  0.5195650000000 1.0
C      1  0.5195240000000  0.5861170000000  0.4434820000000 1.0
C      1  0.4435000000000  0.5860230000000  0.4811840000000 1.0
C      1  0.4796820000000  0.4118970000000  0.4422920000000 1.0
C      1  0.5495020000000  0.4220420000000  0.4711870000000 1.0
C      1  0.5201880000000  0.4127030000000  0.5569060000000 1.0
C      1  0.4472740000000  0.4198420000000  0.5193930000000 1.0
C      1  0.5341120000000  0.5105480000000  0.5103510000000 1.0
C      1  0.5095560000000  0.5076960000000  0.4607390000000 1.0
C      1  0.4638940000000  0.5095550000000  0.4876730000000 1.0
C      1  0.4872800000000  0.5074760000000  0.5337600000000 1.0
C      1  0.5331650000000  0.4925520000000  0.4873590000000 1.0
C      1  0.5099080000000  0.4889690000000  0.5337020000000 1.0
C      1  0.4615240000000  0.4928350000000  0.5116950000000 1.0
C      1  0.4867870000000  0.4892990000000  0.4623250000000 1.0
C      1  0.4758520000000  0.5178240000000  0.5827100000000 1.0
C      1  0.5829090000000  0.5190930000000  0.5242300000000 1.0
C      1  0.5291210000000  0.5159870000000  0.4243650000000 1.0
C      1  0.4193710000000  0.5134070000000  0.4730750000000 1.0
C      1  0.4745240000000  0.4864750000000  0.4183690000000 1.0
C      1  0.5812860000000  0.4831780000000  0.4759160000000 1.0
C      1  0.5233680000000  0.4832090000000  0.5814120000000 1.0
C      1  0.4172350000000  0.4816240000000  0.5243490000000 1.0
C      1  0.4402760000000  0.5864580000000  0.5095990000000 1.0
C      1  0.5090020000000  0.5867730000000  0.5595970000000 1.0
C      1  0.5596980000000  0.5867910000000  0.4914790000000 1.0
C      1  0.4912470000000  0.5861670000000  0.4402940000000 1.0
C      1  0.4321590000000  0.4129170000000  0.4954120000000 1.0
C      1  0.5090200000000  0.4117410000000  0.4403920000000 1.0
C      1  0.5666940000000  0.4133170000000  0.5028410000000 1.0
C      1  0.4916190000000  0.4139700000000  0.5602990000000 1.0
C      1  0.5441970000000  0.4378580000000  0.4184090000000 1.0
C      1  0.4170810000000  0.4364180000000  0.4546810000000 1.0
C      1  0.4568630000000  0.4377390000000  0.5853030000000 1.0
C      1  0.5833430000000  0.4386630000000  0.5435570000000 1.0
C      1  0.5429730000000  0.5620890000000  0.5838020000000 1.0
C      1  0.4160910000000  0.5623420000000  0.5427340000000 1.0
C      1  0.4569330000000  0.5621860000000  0.4174730000000 1.0
C      1  0.5833990000000  0.5624180000000  0.4571410000000 1.0
C      1  0.4809920000000  0.4769000000000  0.5960000000000 1.0
C      1  0.5941610000000  0.4784420000000  0.5194240000000 1.0
C      1  0.5202570000000  0.4796810000000  0.4033220000000 1.0
C      1  0.4027820000000  0.4753600000000  0.4801480000000 1.0
C      1  0.4812710000000  0.5256190000000  0.4038910000000 1.0
C      1  0.5941650000000  0.5231220000000  0.4789860000000 1.0
C      1  0.5204530000000  0.5231500000000  0.5934210000000 1.0
C      1  0.4070380000000  0.5217370000000  0.5196470000000 1.0
C      1  0.4370320000000  0.4508040000000  0.5512870000000 1.0
C      1  0.5513950000000  0.4460820000000  0.5671630000000 1.0
C      1  0.5656190000000  0.4530530000000  0.4489150000000 1.0
C      1  0.4510400000000  0.4536220000000  0.4346680000000 1.0
C      1  0.4337110000000  0.5513850000000  0.4497200000000 1.0
C      1  0.5514010000000  0.5528260000000  0.4340240000000 1.0
C      1  0.5669650000000  0.5534630000000  0.5517660000000 1.0
C      1  0.4497040000000  0.5525650000000  0.5652030000000 1.0
C      1  0.4722520000000  0.5685160000000  0.5767190000000 1.0
C      1  0.5772600000000  0.5689420000000  0.5280360000000 1.0
C      1  0.5283610000000  0.5691880000000  0.4229100000000 1.0
C      1  0.4213140000000  0.5711700000000  0.4709030000000 1.0
C      1  0.4705950000000  0.4331100000000  0.4242150000000 1.0
C      1  0.5777630000000  0.4194050000000  0.4770510000000 1.0
C      1  0.5283550000000  0.4312200000000  0.5772810000000 1.0
C      1  0.4188840000000  0.4202160000000  0.5225570000000 1.0
C      1  0.5170110000000  0.4527290000000  0.4650230000000 1.0
C      1  0.4696390000000  0.4506700000000  0.4794100000000 1.0
C      1  0.4794160000000  0.4530220000000  0.5273180000000 1.0
C      1  0.5343100000000  0.4505080000000  0.5199380000000 1.0
C      1  0.5198380000000  0.5508100000000  0.5337670000000 1.0
C      1  0.4686370000000  0.5471700000000  0.5173660000000 1.0
C      1  0.4820910000000  0.5460830000000  0.4673040000000 1.0
C      1  0.5290170000000  0.5443710000000  0.4787450000000 1.0
C      1  0.5851500000000  0.4304160000000  0.5160170000000 1.0
C      1  0.5163070000000  0.4292990000000  0.4182210000000 1.0
C      1  0.4126770000000  0.4321040000000  0.4833040000000 1.0
C      1  0.4854190000000  0.4302280000000  0.5833390000000 1.0
C      1  0.5829230000000  0.5708260000000  0.4851040000000 1.0
C      1  0.5151710000000  0.5707150000000  0.5829940000000 1.0
C      1  0.4162290000000  0.5705330000000  0.5148000000000 1.0
C      1  0.4848410000000  0.5697200000000  0.4170440000000 1.0
C      1  0.4075170000000  0.5121040000000  0.4466140000000 1.0
C      1  0.4478410000000  0.5135430000000  0.5911040000000 1.0
C      1  0.5908460000000  0.5126930000000  0.5520510000000 1.0
C      1  0.5529750000000  0.5134150000000  0.4075050000000 1.0
C      1  0.4096760000000  0.4878360000000  0.5522830000000 1.0
C      1  0.4487250000000  0.4874210000000  0.4057890000000 1.0
C      1  0.5904670000000  0.4883850000000  0.4482630000000 1.0
C      1  0.5481600000000  0.4844940000000  0.5924970000000 1.0
C      1  0.5466020000000  0.4658210000000  0.5408270000000 1.0
C      1  0.5397710000000  0.4655540000000  0.4519090000000 1.0
C      1  0.4509860000000  0.4623300000000  0.4616650000000 1.0
C      1  0.4630720000000  0.4641060000000  0.5486870000000 1.0
C      1  0.5464590000000  0.5320290000000  0.4592320000000 1.0
C      1  0.5403110000000  0.5343990000000  0.5464070000000 1.0
C      1  0.4550970000000  0.5346190000000  0.5401560000000 1.0
C      1  0.4580940000000  0.5343650000000  0.4552480000000 1.0
C      1  0.6027050000000  0.5147270000000  0.4519760000000 1.0
C      1  0.4546580000000  0.5154130000000  0.3959890000000 1.0
C      1  0.3980600000000  0.5142350000000  0.5466050000000 1.0
C      1  0.5467910000000  0.5132020000000  0.6016010000000 1.0
C      1  0.6015520000000  0.4854950000000  0.5470040000000 1.0
C      1  0.4539920000000  0.4867520000000  0.6029110000000 1.0
C      1  0.3971080000000  0.4838200000000  0.4527180000000 1.0
C      1  0.5474920000000  0.4854430000000  0.3961840000000 1.0
C      1  0.5808930000000  0.4683340000000  0.4292710000000 1.0
C      1  0.4306210000000  0.4672960000000  0.4180780000000 1.0
C      1  0.4209470000000  0.4674430000000  0.5696500000000 1.0
C      1  0.5682020000000  0.4663600000000  0.5807040000000 1.0
C      1  0.5811030000000  0.5327910000000  0.5704090000000 1.0
C      1  0.4297670000000  0.5333240000000  0.5805440000000 1.0
C      1  0.4191600000000  0.5321280000000  0.4290600000000 1.0
C      1  0.5708090000000  0.5339590000000  0.4181080000000 1.0
C      1  0.5600960000000  0.4245500000000  0.5486290000000 1.0
C      1  0.5560990000000  0.4258390000000  0.4427370000000 1.0
C      1  0.4398260000000  0.4191020000000  0.4547020000000 1.0
C      1  0.4494650000000  0.4260650000000  0.5603580000000 1.0
C      1  0.5595170000000  0.5752440000000  0.4510870000000 1.0
C      1  0.5495410000000  0.5759380000000  0.5604660000000 1.0
C      1  0.4401500000000  0.5754880000000  0.5488570000000 1.0
C      1  0.4500670000000  0.5763920000000  0.4412630000000 1.0
C      1  0.5105810000000  0.4248020000000  0.4827970000000 1.0
C      1  0.4800780000000  0.4246720000000  0.4874160000000 1.0
C      1  0.4880920000000  0.4260010000000  0.5200830000000 1.0
C      1  0.5198830000000  0.4245760000000  0.5138910000000 1.0
C      1  0.5128670000000  0.5742970000000  0.5177170000000 1.0
C      1  0.4827840000000  0.5741950000000  0.5123980000000 1.0
C      1  0.4880870000000  0.5738070000000  0.4823700000000 1.0
C      1  0.5187860000000  0.5714450000000  0.4865940000000 1.0
C      1  0.4700850000000  0.4100430000000  0.5396890000000 1.0
C      1  0.5389260000000  0.4113410000000  0.5336130000000 1.0
C      1  0.5256590000000  0.4081060000000  0.4641810000000 1.0
C      1  0.4628350000000  0.4081060000000  0.4668620000000 1.0
C      1  0.4693390000000  0.5900100000000  0.4609870000000 1.0
C      1  0.5394660000000  0.5900560000000  0.4683230000000 1.0
C      1  0.5325630000000  0.5910100000000  0.5404310000000 1.0
C      1  0.4603130000000  0.5906490000000  0.5325540000000 1.0
C      1  0.5882770000000  0.4634280000000  0.5604070000000 1.0
C      1  0.5587030000000  0.4628470000000  0.4103560000000 1.0
C      1  0.4110790000000  0.4622340000000  0.4389330000000 1.0
C      1  0.4412760000000  0.4639830000000  0.5908180000000 1.0
C      1  0.5892750000000  0.5373320000000  0.4397150000000 1.0
C      1  0.5596580000000  0.5358040000000  0.5893530000000 1.0
C      1  0.4107090000000  0.5370010000000  0.5595100000000 1.0
C      1  0.4409510000000  0.5366270000000  0.4110670000000 1.0
C      1  0.4471880000000  0.5322590000000  0.4949170000000 1.0
C      1  0.4901840000000  0.5231000000000  0.5581090000000 1.0
C      1  0.5587470000000  0.5266600000000  0.5098650000000 1.0
C      1  0.4996300000000  0.5309630000000  0.4457520000000 1.0
C      1  0.4384530000000  0.4782540000000  0.5072820000000 1.0
C      1  0.4989000000000  0.4686690000000  0.4455400000000 1.0
C      1  0.5576740000000  0.4780640000000  0.4918200000000 1.0
C      1  0.5108770000000  0.4740070000000  0.5584740000000 1.0
C      1  0.4355930000000  0.5249540000000  0.5209510000000 1.0
C      1  0.5194610000000  0.5242620000000  0.5642580000000 1.0
C      1  0.5653000000000  0.5242530000000  0.4800500000000 1.0
C      1  0.4755050000000  0.5199580000000  0.4330530000000 1.0
C      1  0.4315460000000  0.4812460000000  0.4790430000000 1.0
C      1  0.5230440000000  0.4829800000000  0.4329260000000 1.0
C      1  0.5648620000000  0.4771940000000  0.5208040000000 1.0
C      1  0.4821690000000  0.4748000000000  0.5670960000000 1.0
C      1  0.4926080000000  0.4711870000000  0.4007470000000 1.0
C      1  0.3973320000000  0.4687580000000  0.5074930000000 1.0
C      1  0.5102460000000  0.4716470000000  0.6022010000000 1.0
C      1  0.6005230000000  0.4686280000000  0.4923680000000 1.0
C      1  0.4935450000000  0.5302360000000  0.6014810000000 1.0
C      1  0.4020500000000  0.5285880000000  0.4915160000000 1.0
C      1  0.5105080000000  0.5270410000000  0.4033490000000 1.0
C      1  0.6019850000000  0.5303730000000  0.5058730000000 1.0
END
