TITL C-2441158-471-162 0.0977950591895766 125000 -24329.5516387232 0 0 177 (C1) n - 1
REM
REM in /home/bkarasulu/work/CARBON/AIRSS/Generating-Clusters/ReaxFF-fromJPCA2015/Units_Real/with-SteepDescent/Higher-Symm
REM
REM
REM
REM
REM
REM ./C.cell (1df0a924f5614ab8850e4351716899ee)
REM
REM compiler GCC version 9.2.1 20190827 (Red Hat 9.2.1-1)
REM options -cpp -mtune=generic -march=x86-64 -g -O0 -fpre-include=/usr/include/finclude/math-vector-fortran.h
REM seed -571903442 1576262371 -1796607196 -1644908875 -468892678 -1546879681 83892648 1179793089 821214632 -1148127114 183964219 315385256 -1642026622 1814604061 1756072927 -704248634 -1975007550 1466090179 1244092653 145629455 -1878137384 -1606114660 -710889200 1110046034 -1274139629 -1956643321 -934116335 -833339936 -1416749095 -1549522272 1568073318 1692707015 1151441012
REM
CELL 1.54180   50.00000   50.00000   50.00000   90.00000   90.00000   90.00000
LATT -1
SFAC C  
C      1  0.5069550000000  0.5199590000000  0.4973650000000 1.0
C      1  0.5135860000000  0.5008710000000  0.4790670000000 1.0
C      1  0.5060090000000  0.4761360000000  0.4874610000000 1.0
C      1  0.5074650000000  0.4740580000000  0.5165010000000 1.0
C      1  0.5059240000000  0.5037370000000  0.5221360000000 1.0
C      1  0.5400920000000  0.5562660000000  0.4170020000000 1.0
C      1  0.5455130000000  0.4392660000000  0.4206410000000 1.0
C      1  0.5473420000000  0.4094380000000  0.5386240000000 1.0
C      1  0.5452950000000  0.5081880000000  0.5959630000000 1.0
C      1  0.5411490000000  0.5962030000000  0.5221040000000 1.0
C      1  0.4959210000000  0.5660590000000  0.4241740000000 1.0
C      1  0.4988310000000  0.4488350000000  0.4147900000000 1.0
C      1  0.4993210000000  0.3983470000000  0.5216960000000 1.0
C      1  0.4952830000000  0.4910650000000  0.6021680000000 1.0
C      1  0.4962570000000  0.5974550000000  0.5404160000000 1.0
C      1  0.5008880000000  0.5544720000000  0.4520760000000 1.0
C      1  0.5023270000000  0.4682520000000  0.4354010000000 1.0
C      1  0.5121660000000  0.4016770000000  0.4948050000000 1.0
C      1  0.5052850000000  0.4651340000000  0.5964950000000 1.0
C      1  0.5085660000000  0.5873320000000  0.5642490000000 1.0
C      1  0.4459690000000  0.4715920000000  0.4401080000000 1.0
C      1  0.4410010000000  0.4461770000000  0.5147560000000 1.0
C      1  0.4479100000000  0.5020480000000  0.5563180000000 1.0
C      1  0.4470740000000  0.5558380000000  0.5203900000000 1.0
C      1  0.4439130000000  0.5341470000000  0.4587870000000 1.0
C      1  0.5508620000000  0.5955670000000  0.4547330000000 1.0
C      1  0.5547840000000  0.5031020000000  0.3961210000000 1.0
C      1  0.5576640000000  0.3986110000000  0.4717350000000 1.0
C      1  0.5463660000000  0.4382710000000  0.5845010000000 1.0
C      1  0.5496110000000  0.5636940000000  0.5837650000000 1.0
C      1  0.5340740000000  0.4593650000000  0.6010790000000 1.0
C      1  0.5373330000000  0.5856730000000  0.5690760000000 1.0
C      1  0.5259050000000  0.6021340000000  0.4448080000000 1.0
C      1  0.5351090000000  0.4829120000000  0.3881900000000 1.0
C      1  0.5397550000000  0.3893360000000  0.4925350000000 1.0
C      1  0.5130650000000  0.6031040000000  0.5179180000000 1.0
C      1  0.5132270000000  0.5511480000000  0.4068640000000 1.0
C      1  0.5181130000000  0.4291580000000  0.4181140000000 1.0
C      1  0.5186670000000  0.4081820000000  0.5405250000000 1.0
C      1  0.5168980000000  0.5108350000000  0.6019570000000 1.0
C      1  0.4567980000000  0.5781360000000  0.4471630000000 1.0
C      1  0.4616310000000  0.4673810000000  0.3978030000000 1.0
C      1  0.4583400000000  0.4104940000000  0.5008500000000 1.0
C      1  0.4473620000000  0.4733140000000  0.5889950000000 1.0
C      1  0.4628140000000  0.5789280000000  0.5644360000000 1.0
C      1  0.5524180000000  0.5833110000000  0.5448060000000 1.0
C      1  0.5547030000000  0.5740380000000  0.4351920000000 1.0
C      1  0.5497580000000  0.4632660000000  0.4055590000000 1.0
C      1  0.5565810000000  0.3996250000000  0.5133920000000 1.0
C      1  0.5527200000000  0.4811850000000  0.5982800000000 1.0
C      1  0.5300810000000  0.4883500000000  0.4344620000000 1.0
C      1  0.5326330000000  0.4316170000000  0.4897550000000 1.0
C      1  0.5376480000000  0.4710440000000  0.5541620000000 1.0
C      1  0.5352490000000  0.5403810000000  0.5460270000000 1.0
C      1  0.5297570000000  0.5576780000000  0.4719660000000 1.0
C      1  0.5579560000000  0.4775290000000  0.4295120000000 1.0
C      1  0.5629420000000  0.4279550000000  0.5019360000000 1.0
C      1  0.5639790000000  0.4750820000000  0.5692540000000 1.0
C      1  0.5610160000000  0.5552030000000  0.5415110000000 1.0
C      1  0.5611080000000  0.5549280000000  0.4565310000000 1.0
C      1  0.5015020000000  0.5255960000000  0.4479960000000 1.0
C      1  0.5038880000000  0.4464830000000  0.4593800000000 1.0
C      1  0.4899710000000  0.4507810000000  0.5281680000000 1.0
C      1  0.4958740000000  0.5163240000000  0.5606300000000 1.0
C      1  0.4965810000000  0.5602350000000  0.5078400000000 1.0
C      1  0.5343360000000  0.5118740000000  0.4152250000000 1.0
C      1  0.5398900000000  0.4209110000000  0.4622170000000 1.0
C      1  0.5281480000000  0.4465820000000  0.5628360000000 1.0
C      1  0.5295240000000  0.5456970000000  0.5731630000000 1.0
C      1  0.5414280000000  0.5830930000000  0.4797570000000 1.0
C      1  0.5073220000000  0.5343480000000  0.5876940000000 1.0
C      1  0.4989460000000  0.6072260000000  0.4936600000000 1.0
C      1  0.5020080000000  0.5238040000000  0.3988550000000 1.0
C      1  0.5129400000000  0.4202500000000  0.4456760000000 1.0
C      1  0.5068640000000  0.4319590000000  0.5512900000000 1.0
C      1  0.4753730000000  0.4817450000000  0.4449970000000 1.0
C      1  0.4705570000000  0.4382890000000  0.5037170000000 1.0
C      1  0.4743880000000  0.4927570000000  0.5583300000000 1.0
C      1  0.4765110000000  0.5552420000000  0.5291680000000 1.0
C      1  0.4699390000000  0.5572660000000  0.4612610000000 1.0
C      1  0.5810450000000  0.5148070000000  0.4664300000000 1.0
C      1  0.5831070000000  0.4703070000000  0.4823360000000 1.0
C      1  0.5901290000000  0.4714270000000  0.5114970000000 1.0
C      1  0.5858340000000  0.4961930000000  0.5302200000000 1.0
C      1  0.5821480000000  0.5319040000000  0.5074620000000 1.0
C      1  0.4199220000000  0.4839700000000  0.4808550000000 1.0
C      1  0.4079970000000  0.4785970000000  0.5077830000000 1.0
C      1  0.4157550000000  0.4980360000000  0.5276140000000 1.0
C      1  0.4135470000000  0.5197370000000  0.5094940000000 1.0
C      1  0.4113180000000  0.5118540000000  0.4831010000000 1.0
C      1  0.4757540000000  0.5271990000000  0.4940760000000 1.0
C      1  0.4617600000000  0.5133200000000  0.4737410000000 1.0
C      1  0.4766510000000  0.4723900000000  0.4749970000000 1.0
C      1  0.4602000000000  0.4877810000000  0.5170940000000 1.0
C      1  0.4711390000000  0.5145210000000  0.5197530000000 1.0
C      1  0.4824690000000  0.4829960000000  0.3844960000000 1.0
C      1  0.4924560000000  0.3916720000000  0.4753710000000 1.0
C      1  0.4853200000000  0.4436360000000  0.5915570000000 1.0
C      1  0.4873800000000  0.5764240000000  0.5791210000000 1.0
C      1  0.4871650000000  0.6049800000000  0.4478360000000 1.0
C      1  0.4569450000000  0.4272820000000  0.4308490000000 1.0
C      1  0.4563520000000  0.4064500000000  0.5505970000000 1.0
C      1  0.4491400000000  0.5179080000000  0.6040240000000 1.0
C      1  0.4534660000000  0.5999330000000  0.5149230000000 1.0
C      1  0.4555190000000  0.5457800000000  0.4084200000000 1.0
C      1  0.4215950000000  0.5500700000000  0.4707150000000 1.0
C      1  0.4230870000000  0.4881590000000  0.4377660000000 1.0
C      1  0.4182430000000  0.4375250000000  0.4977430000000 1.0
C      1  0.4306090000000  0.4786290000000  0.5614620000000 1.0
C      1  0.4243820000000  0.5483200000000  0.5371690000000 1.0
C      1  0.5695810000000  0.5477210000000  0.5690390000000 1.0
C      1  0.5792430000000  0.5598080000000  0.4777050000000 1.0
C      1  0.5743890000000  0.4993710000000  0.4188520000000 1.0
C      1  0.5770450000000  0.4201180000000  0.4780300000000 1.0
C      1  0.5699700000000  0.4446480000000  0.5693480000000 1.0
C      1  0.4233720000000  0.5211540000000  0.5906770000000 1.0
C      1  0.4277540000000  0.5906420000000  0.5056640000000 1.0
C      1  0.4293130000000  0.5350710000000  0.4134650000000 1.0
C      1  0.4370020000000  0.4436930000000  0.4451990000000 1.0
C      1  0.4432230000000  0.4324990000000  0.5603520000000 1.0
C      1  0.4325770000000  0.5655400000000  0.4958090000000 1.0
C      1  0.4307320000000  0.5190890000000  0.4357130000000 1.0
C      1  0.4262520000000  0.4390530000000  0.4713150000000 1.0
C      1  0.4341300000000  0.4520410000000  0.5421690000000 1.0
C      1  0.4350700000000  0.5306770000000  0.5626960000000 1.0
C      1  0.3945500000000  0.4532040000000  0.5119070000000 1.0
C      1  0.4046840000000  0.4959620000000  0.5545240000000 1.0
C      1  0.3995790000000  0.5447120000000  0.5216470000000 1.0
C      1  0.3975540000000  0.5331790000000  0.4659330000000 1.0
C      1  0.4028190000000  0.4761370000000  0.4551410000000 1.0
C      1  0.4728700000000  0.4075730000000  0.5732140000000 1.0
C      1  0.4613870000000  0.5451380000000  0.5983040000000 1.0
C      1  0.4711920000000  0.6043010000000  0.4913020000000 1.0
C      1  0.4728480000000  0.5221830000000  0.4036000000000 1.0
C      1  0.4665680000000  0.4050070000000  0.4464110000000 1.0
C      1  0.5802430000000  0.5626810000000  0.5060250000000 1.0
C      1  0.5772660000000  0.5229960000000  0.4369080000000 1.0
C      1  0.5798590000000  0.4456540000000  0.4649400000000 1.0
C      1  0.5794090000000  0.4456200000000  0.5209170000000 1.0
C      1  0.5805450000000  0.4995880000000  0.5590470000000 1.0
C      1  0.5085950000000  0.4954150000000  0.3896430000000 1.0
C      1  0.4946610000000  0.3989980000000  0.4488700000000 1.0
C      1  0.4967600000000  0.4202840000000  0.5788480000000 1.0
C      1  0.4883990000000  0.5545030000000  0.5967320000000 1.0
C      1  0.5082980000000  0.6133590000000  0.4639020000000 1.0
C      1  0.4650440000000  0.4926090000000  0.6012490000000 1.0
C      1  0.4676930000000  0.5945020000000  0.5403120000000 1.0
C      1  0.4674190000000  0.5695650000000  0.4212300000000 1.0
C      1  0.4716110000000  0.4436340000000  0.4113220000000 1.0
C      1  0.4705400000000  0.3998220000000  0.5250770000000 1.0
C      1  0.4720260000000  0.4715610000000  0.5375280000000 1.0
C      1  0.4771570000000  0.5306980000000  0.5433180000000 1.0
C      1  0.4753990000000  0.5553260000000  0.4887830000000 1.0
C      1  0.4784580000000  0.5095930000000  0.4505850000000 1.0
C      1  0.4791440000000  0.4450420000000  0.4759600000000 1.0
C      1  0.4565960000000  0.4471190000000  0.5840410000000 1.0
C      1  0.4496010000000  0.5550730000000  0.5742980000000 1.0
C      1  0.4636460000000  0.6021160000000  0.4622130000000 1.0
C      1  0.4601760000000  0.4970080000000  0.3976290000000 1.0
C      1  0.4639420000000  0.3970730000000  0.4754090000000 1.0
C      1  0.5541860000000  0.4793940000000  0.4821230000000 1.0
C      1  0.5512190000000  0.4809790000000  0.5101870000000 1.0
C      1  0.5575640000000  0.5025310000000  0.5228620000000 1.0
C      1  0.5532570000000  0.5251240000000  0.5041170000000 1.0
C      1  0.5536930000000  0.5114290000000  0.4770910000000 1.0
C      1  0.5668600000000  0.5190820000000  0.5754820000000 1.0
C      1  0.5572570000000  0.5828160000000  0.5036440000000 1.0
C      1  0.5512100000000  0.5316760000000  0.4253190000000 1.0
C      1  0.5577170000000  0.4386600000000  0.4472570000000 1.0
C      1  0.5677270000000  0.4318880000000  0.5437970000000 1.0
C      1  0.5219450000000  0.5470610000000  0.4988320000000 1.0
C      1  0.5264530000000  0.5097580000000  0.4558240000000 1.0
C      1  0.5255060000000  0.4570770000000  0.4774680000000 1.0
C      1  0.5345860000000  0.4700360000000  0.5257670000000 1.0
C      1  0.5201150000000  0.5162020000000  0.5436520000000 1.0
C      1  0.5921580000000  0.5084820000000  0.4925600000000 1.0
C      1  0.4538140000000  0.4852180000000  0.4884670000000 1.0
END
