TITL C-2441162-9305-228 0.1328951839519 125000 -19773.7564114742 0 0 151 (C1) n - 1
REM
REM in /home/bkarasulu/work/CARBON/AIRSS/Generating-Clusters/ReaxFF-fromJPCA2015/Units_Real/with-SteepDescent/Higher-Symm
REM
REM
REM
REM
REM
REM ./C.cell (1df0a924f5614ab8850e4351716899ee)
REM
REM compiler GCC version 9.2.1 20190827 (Red Hat 9.2.1-1)
REM options -cpp -mtune=generic -march=x86-64 -g -O0 -fpre-include=/usr/include/finclude/math-vector-fortran.h
REM seed 1641230751 1093925974 1728468594 933922243 157198211 813098856 -1705337630 -1725254049 20628706 406733922 203842889 -1098427786 1162471393 -1993599737 -309663867 -1524868009 910497903 641154852 448491856 1247987141 1718083746 1921771677 -788997229 479529533 -1047328478 -1600839357 -37321056 638031808 383692951 -1171314506 -433690500 2050891416 -1814518517
REM
CELL 1.54180   50.00000   50.00000   50.00000   90.00000   90.00000   90.00000
LATT -1
SFAC C  
C      1  0.4751730000000  0.4130810000000  0.4977630000000 1.0
C      1  0.5022250000000  0.4005830000000  0.4641220000000 1.0
C      1  0.5246360000000  0.4092630000000  0.5037960000000 1.0
C      1  0.4948530000000  0.4055890000000  0.5332790000000 1.0
C      1  0.4623550000000  0.5885970000000  0.4964020000000 1.0
C      1  0.5044270000000  0.5879980000000  0.4758260000000 1.0
C      1  0.5324990000000  0.5907350000000  0.5063160000000 1.0
C      1  0.4962670000000  0.5894940000000  0.5265810000000 1.0
C      1  0.4067310000000  0.5466700000000  0.4722470000000 1.0
C      1  0.5279050000000  0.5478180000000  0.4076980000000 1.0
C      1  0.5931730000000  0.5476330000000  0.5282950000000 1.0
C      1  0.4726700000000  0.5486290000000  0.5947920000000 1.0
C      1  0.4092940000000  0.4520820000000  0.4713090000000 1.0
C      1  0.5298140000000  0.4526910000000  0.4088180000000 1.0
C      1  0.5908550000000  0.4525380000000  0.5288560000000 1.0
C      1  0.4724260000000  0.4526940000000  0.5912430000000 1.0
C      1  0.4429230000000  0.4568960000000  0.5886550000000 1.0
C      1  0.4142780000000  0.4563530000000  0.4436090000000 1.0
C      1  0.5578010000000  0.4570140000000  0.4131370000000 1.0
C      1  0.5876120000000  0.4573490000000  0.5567300000000 1.0
C      1  0.4459760000000  0.5445700000000  0.5856140000000 1.0
C      1  0.4151630000000  0.5403710000000  0.4451780000000 1.0
C      1  0.5568950000000  0.5432620000000  0.4113250000000 1.0
C      1  0.5864640000000  0.5426890000000  0.5554580000000 1.0
C      1  0.4412310000000  0.4861730000000  0.5134880000000 1.0
C      1  0.4872200000000  0.4826210000000  0.4419240000000 1.0
C      1  0.5597450000000  0.4857200000000  0.4874610000000 1.0
C      1  0.5189430000000  0.4897680000000  0.5597880000000 1.0
C      1  0.4420840000000  0.5135180000000  0.5116510000000 1.0
C      1  0.4824380000000  0.5089000000000  0.4443140000000 1.0
C      1  0.5596960000000  0.5125170000000  0.4846070000000 1.0
C      1  0.5111310000000  0.5159860000000  0.5601690000000 1.0
C      1  0.5299250000000  0.5117560000000  0.4465280000000 1.0
C      1  0.5525730000000  0.5088450000000  0.5309940000000 1.0
C      1  0.4684810000000  0.5081980000000  0.5594040000000 1.0
C      1  0.4370300000000  0.5080620000000  0.4642130000000 1.0
C      1  0.5336610000000  0.4842780000000  0.4559900000000 1.0
C      1  0.5377180000000  0.4820900000000  0.5390550000000 1.0
C      1  0.4706100000000  0.4828340000000  0.5463700000000 1.0
C      1  0.4529320000000  0.4832500000000  0.4660540000000 1.0
C      1  0.5481310000000  0.5317670000000  0.5496110000000 1.0
C      1  0.4533650000000  0.5303270000000  0.5480970000000 1.0
C      1  0.4521580000000  0.5327630000000  0.4602090000000 1.0
C      1  0.5504690000000  0.5335490000000  0.4500230000000 1.0
C      1  0.5493970000000  0.4599530000000  0.5488590000000 1.0
C      1  0.4519190000000  0.4623270000000  0.5480740000000 1.0
C      1  0.4535420000000  0.4601560000000  0.4503170000000 1.0
C      1  0.5494230000000  0.4630510000000  0.4515490000000 1.0
C      1  0.4810090000000  0.4340150000000  0.5700640000000 1.0
C      1  0.4315240000000  0.4330180000000  0.4799860000000 1.0
C      1  0.5202450000000  0.4345270000000  0.4301070000000 1.0
C      1  0.5694700000000  0.4336050000000  0.5200310000000 1.0
C      1  0.4796020000000  0.5651380000000  0.5703750000000 1.0
C      1  0.4277200000000  0.5649900000000  0.4799000000000 1.0
C      1  0.5212130000000  0.5657510000000  0.4294370000000 1.0
C      1  0.5693080000000  0.5640790000000  0.5198010000000 1.0
C      1  0.5366970000000  0.5315880000000  0.4924770000000 1.0
C      1  0.5064710000000  0.5341180000000  0.5373040000000 1.0
C      1  0.4645480000000  0.5311450000000  0.5029480000000 1.0
C      1  0.4968280000000  0.5436090000000  0.4671480000000 1.0
C      1  0.5383690000000  0.4655130000000  0.4950210000000 1.0
C      1  0.5028620000000  0.4529330000000  0.5275640000000 1.0
C      1  0.4625420000000  0.4672060000000  0.5062960000000 1.0
C      1  0.4936030000000  0.4631730000000  0.4659260000000 1.0
C      1  0.5863420000000  0.5247050000000  0.4808440000000 1.0
C      1  0.5186270000000  0.5257470000000  0.5868820000000 1.0
C      1  0.4152190000000  0.5249220000000  0.5185440000000 1.0
C      1  0.4809670000000  0.5224070000000  0.4181020000000 1.0
C      1  0.5864640000000  0.4746260000000  0.4819770000000 1.0
C      1  0.5181990000000  0.4749620000000  0.5845790000000 1.0
C      1  0.4144730000000  0.4748090000000  0.5179560000000 1.0
C      1  0.4827340000000  0.4730410000000  0.4142300000000 1.0
C      1  0.4028430000000  0.5251650000000  0.4921140000000 1.0
C      1  0.5076670000000  0.5250780000000  0.4053030000000 1.0
C      1  0.5951520000000  0.5245550000000  0.5092780000000 1.0
C      1  0.4912500000000  0.5257180000000  0.5976550000000 1.0
C      1  0.4064740000000  0.4752930000000  0.4896480000000 1.0
C      1  0.5114650000000  0.4765920000000  0.4071080000000 1.0
C      1  0.5920760000000  0.4767600000000  0.5112030000000 1.0
C      1  0.4899050000000  0.4764380000000  0.5925580000000 1.0
C      1  0.4966700000000  0.4403170000000  0.4443080000000 1.0
C      1  0.5566700000000  0.4388360000000  0.4949740000000 1.0
C      1  0.5038520000000  0.4428630000000  0.5559760000000 1.0
C      1  0.4436410000000  0.4398260000000  0.5051950000000 1.0
C      1  0.4970370000000  0.5587910000000  0.4428020000000 1.0
C      1  0.5561010000000  0.5574160000000  0.4951150000000 1.0
C      1  0.5048080000000  0.5597720000000  0.5570840000000 1.0
C      1  0.4468220000000  0.5624790000000  0.5022530000000 1.0
C      1  0.5387930000000  0.5834880000000  0.5529490000000 1.0
C      1  0.4484670000000  0.5826080000000  0.5387070000000 1.0
C      1  0.4625220000000  0.5830750000000  0.4480260000000 1.0
C      1  0.5527230000000  0.5839320000000  0.4625130000000 1.0
C      1  0.5377250000000  0.4138550000000  0.5516230000000 1.0
C      1  0.4463970000000  0.4130070000000  0.5374720000000 1.0
C      1  0.4669150000000  0.4117810000000  0.4467180000000 1.0
C      1  0.5530460000000  0.4133570000000  0.4622620000000 1.0
C      1  0.4289380000000  0.5355170000000  0.5647000000000 1.0
C      1  0.4328040000000  0.5381020000000  0.4260220000000 1.0
C      1  0.5745880000000  0.5353740000000  0.4338520000000 1.0
C      1  0.5661450000000  0.5348370000000  0.5733320000000 1.0
C      1  0.4274760000000  0.4647230000000  0.5647060000000 1.0
C      1  0.4363590000000  0.4614880000000  0.4263020000000 1.0
C      1  0.5748520000000  0.4634300000000  0.4348250000000 1.0
C      1  0.5657920000000  0.4632590000000  0.5732260000000 1.0
C      1  0.4762620000000  0.5949320000000  0.4716040000000 1.0
C      1  0.5318880000000  0.5986300000000  0.4779130000000 1.0
C      1  0.5231580000000  0.5995450000000  0.5329390000000 1.0
C      1  0.4683920000000  0.5979390000000  0.5229350000000 1.0
C      1  0.4762400000000  0.3994260000000  0.4716400000000 1.0
C      1  0.5278950000000  0.4005540000000  0.4751480000000 1.0
C      1  0.5229600000000  0.3986240000000  0.5309570000000 1.0
C      1  0.4685090000000  0.4000990000000  0.5224150000000 1.0
C      1  0.4864860000000  0.5213660000000  0.5192410000000 1.0
C      1  0.4758360000000  0.5263110000000  0.4711040000000 1.0
C      1  0.5172640000000  0.5249390000000  0.4707390000000 1.0
C      1  0.5271050000000  0.5184570000000  0.5171330000000 1.0
C      1  0.4836230000000  0.4750980000000  0.5236940000000 1.0
C      1  0.4731090000000  0.4742320000000  0.4823330000000 1.0
C      1  0.5190490000000  0.4727920000000  0.4752200000000 1.0
C      1  0.5223380000000  0.4733080000000  0.5178010000000 1.0
C      1  0.4617120000000  0.4349150000000  0.5487600000000 1.0
C      1  0.4534590000000  0.4334810000000  0.4608050000000 1.0
C      1  0.5387390000000  0.4358450000000  0.4519270000000 1.0
C      1  0.5499680000000  0.4351620000000  0.5389300000000 1.0
C      1  0.4615580000000  0.5586710000000  0.5480140000000 1.0
C      1  0.4470960000000  0.5612480000000  0.4595380000000 1.0
C      1  0.5405440000000  0.5609020000000  0.4498230000000 1.0
C      1  0.5482230000000  0.5595230000000  0.5392010000000 1.0
C      1  0.5264830000000  0.5676870000000  0.5747240000000 1.0
C      1  0.4280360000000  0.5675580000000  0.5254760000000 1.0
C      1  0.4736150000000  0.5663960000000  0.4271380000000 1.0
C      1  0.5737860000000  0.5670060000000  0.4742600000000 1.0
C      1  0.5254420000000  0.4317620000000  0.5714470000000 1.0
C      1  0.4259230000000  0.4314010000000  0.5263240000000 1.0
C      1  0.4764230000000  0.4313140000000  0.4265370000000 1.0
C      1  0.5739960000000  0.4311380000000  0.4731880000000 1.0
C      1  0.5407940000000  0.5450840000000  0.5871380000000 1.0
C      1  0.4157100000000  0.5453790000000  0.5392120000000 1.0
C      1  0.4595000000000  0.5429740000000  0.4162140000000 1.0
C      1  0.5875560000000  0.5451930000000  0.4599120000000 1.0
C      1  0.5386270000000  0.4537130000000  0.5860120000000 1.0
C      1  0.4134040000000  0.4547840000000  0.5395990000000 1.0
C      1  0.4621770000000  0.4524270000000  0.4120540000000 1.0
C      1  0.5872790000000  0.4542900000000  0.4609580000000 1.0
C      1  0.4118270000000  0.5016280000000  0.4773550000000 1.0
C      1  0.5210390000000  0.5023600000000  0.4157460000000 1.0
C      1  0.5821820000000  0.5019910000000  0.5216260000000 1.0
C      1  0.4775140000000  0.5025390000000  0.5864160000000 1.0
C      1  0.4996140000000  0.4257630000000  0.5085100000000 1.0
C      1  0.5072630000000  0.5754010000000  0.5026830000000 1.0
C      1  0.5037610000000  0.4996620000000  0.5098960000000 1.0
END
