TITL C-2441166-8118-571 0.0486430987475134 125000 -16637.1987501856 0 0 122 (C1) n - 1
REM
REM in /home/bkarasulu/work/CARBON/AIRSS/Generating-Clusters/ReaxFF-fromJPCA2015/Units_Real/with-SteepDescent/Higher-Symm
REM
REM
REM
REM
REM
REM ./C.cell (1df0a924f5614ab8850e4351716899ee)
REM
REM compiler GCC version 9.2.1 20190827 (Red Hat 9.2.1-1)
REM options -cpp -mtune=generic -march=x86-64 -g -O0 -fpre-include=/usr/include/finclude/math-vector-fortran.h
REM seed 719460545 -1695669479 936146589 823606669 -1334833931 1634576164 -1501124518 -1690545214 1721486378 1468507490 312257159 -1777104821 -918039100 -783426525 1319125767 1523939394 -26232406 71324686 -1316430142 1355100295 1975913425 -342447079 -1138795701 478018399 -1200245088 -385366334 163168492 -2029865986 -608274365 -1660070025 -1420129235 1713942452 967431334
REM
CELL 1.54180   50.00000   50.00000   50.00000   90.00000   90.00000   90.00000
LATT -1
SFAC C  
C      1  0.4885040000000  0.5293460000000  0.4746330000000 1.0
C      1  0.5016250000000  0.4782000000000  0.4804350000000 1.0
C      1  0.4968660000000  0.5211670000000  0.5244170000000 1.0
C      1  0.5053210000000  0.4689560000000  0.5281460000000 1.0
C      1  0.5259860000000  0.4916710000000  0.4905420000000 1.0
C      1  0.4851450000000  0.5024930000000  0.4868340000000 1.0
C      1  0.5120070000000  0.4954990000000  0.5197900000000 1.0
C      1  0.4730070000000  0.5098980000000  0.5120600000000 1.0
C      1  0.5784100000000  0.5406980000000  0.4580850000000 1.0
C      1  0.4194660000000  0.4582160000000  0.4626540000000 1.0
C      1  0.5857030000000  0.5367490000000  0.5276660000000 1.0
C      1  0.4149270000000  0.4574940000000  0.5330490000000 1.0
C      1  0.4344350000000  0.5262850000000  0.4848390000000 1.0
C      1  0.5514860000000  0.4777240000000  0.4871950000000 1.0
C      1  0.4420620000000  0.5216490000000  0.5120420000000 1.0
C      1  0.5607090000000  0.4807020000000  0.5121640000000 1.0
C      1  0.5244980000000  0.4156240000000  0.4474110000000 1.0
C      1  0.4728310000000  0.5835950000000  0.4473320000000 1.0
C      1  0.5220310000000  0.4177940000000  0.5547310000000 1.0
C      1  0.4815680000000  0.5771150000000  0.5579340000000 1.0
C      1  0.4461690000000  0.5507410000000  0.5226030000000 1.0
C      1  0.5558350000000  0.4498430000000  0.5253150000000 1.0
C      1  0.4433890000000  0.5522810000000  0.4786970000000 1.0
C      1  0.5515330000000  0.4503840000000  0.4801740000000 1.0
C      1  0.4678300000000  0.4844520000000  0.5897360000000 1.0
C      1  0.5362300000000  0.5137210000000  0.5914920000000 1.0
C      1  0.4639320000000  0.4904280000000  0.4199860000000 1.0
C      1  0.5439880000000  0.5147570000000  0.4213400000000 1.0
C      1  0.4070340000000  0.4840340000000  0.5204430000000 1.0
C      1  0.5906390000000  0.5085490000000  0.5209210000000 1.0
C      1  0.4125650000000  0.4854560000000  0.4721110000000 1.0
C      1  0.5852430000000  0.5171510000000  0.4740500000000 1.0
C      1  0.5047920000000  0.4332420000000  0.5704970000000 1.0
C      1  0.5019430000000  0.5615060000000  0.5737610000000 1.0
C      1  0.5086890000000  0.4288530000000  0.4296050000000 1.0
C      1  0.4897440000000  0.5695240000000  0.4285910000000 1.0
C      1  0.5184030000000  0.4185910000000  0.5268960000000 1.0
C      1  0.4833270000000  0.5803480000000  0.5277050000000 1.0
C      1  0.5187100000000  0.4180520000000  0.4755490000000 1.0
C      1  0.4802280000000  0.5823900000000  0.4753680000000 1.0
C      1  0.4290220000000  0.5245050000000  0.4403610000000 1.0
C      1  0.5696820000000  0.4755180000000  0.4475730000000 1.0
C      1  0.4358260000000  0.5207130000000  0.5628740000000 1.0
C      1  0.5579680000000  0.4790390000000  0.5610740000000 1.0
C      1  0.5258510000000  0.5194030000000  0.5624060000000 1.0
C      1  0.4750840000000  0.4830100000000  0.5611900000000 1.0
C      1  0.5282180000000  0.5108370000000  0.4468350000000 1.0
C      1  0.4782380000000  0.4897830000000  0.4466090000000 1.0
C      1  0.4478410000000  0.4279510000000  0.4663800000000 1.0
C      1  0.5508970000000  0.5726850000000  0.4658240000000 1.0
C      1  0.4457770000000  0.4257030000000  0.5335990000000 1.0
C      1  0.5563690000000  0.5740530000000  0.5290670000000 1.0
C      1  0.4551340000000  0.4391740000000  0.4393440000000 1.0
C      1  0.5450360000000  0.5617790000000  0.4385930000000 1.0
C      1  0.4508760000000  0.4383950000000  0.5593510000000 1.0
C      1  0.5539470000000  0.5639570000000  0.5566610000000 1.0
C      1  0.5251700000000  0.5717400000000  0.5276300000000 1.0
C      1  0.4751470000000  0.4278160000000  0.5285390000000 1.0
C      1  0.5219490000000  0.5678770000000  0.4726370000000 1.0
C      1  0.4774000000000  0.4308790000000  0.4731260000000 1.0
C      1  0.4612300000000  0.5610480000000  0.4318850000000 1.0
C      1  0.5372100000000  0.4358570000000  0.4331450000000 1.0
C      1  0.4621380000000  0.5598120000000  0.5646640000000 1.0
C      1  0.5341170000000  0.4381510000000  0.5687680000000 1.0
C      1  0.4543600000000  0.5163960000000  0.4283930000000 1.0
C      1  0.5521720000000  0.4852460000000  0.4265940000000 1.0
C      1  0.4512620000000  0.5076550000000  0.5839560000000 1.0
C      1  0.5487550000000  0.4890170000000  0.5856060000000 1.0
C      1  0.5191060000000  0.5405830000000  0.5166250000000 1.0
C      1  0.4789150000000  0.4592670000000  0.5175950000000 1.0
C      1  0.5171440000000  0.5407150000000  0.4856120000000 1.0
C      1  0.4803310000000  0.4584710000000  0.4862230000000 1.0
C      1  0.5059000000000  0.5902490000000  0.4853940000000 1.0
C      1  0.4932430000000  0.4093080000000  0.4864500000000 1.0
C      1  0.5061290000000  0.5915030000000  0.5142430000000 1.0
C      1  0.4941220000000  0.4088940000000  0.5149870000000 1.0
C      1  0.4276920000000  0.4388010000000  0.4842980000000 1.0
C      1  0.5720610000000  0.5604380000000  0.4809440000000 1.0
C      1  0.4265030000000  0.4379120000000  0.5147760000000 1.0
C      1  0.5737450000000  0.5586660000000  0.5108740000000 1.0
C      1  0.5408270000000  0.5267480000000  0.5349800000000 1.0
C      1  0.4548380000000  0.4738480000000  0.5286020000000 1.0
C      1  0.5346170000000  0.5190390000000  0.4764430000000 1.0
C      1  0.4599050000000  0.4755830000000  0.4666840000000 1.0
C      1  0.5887060000000  0.4843570000000  0.5040660000000 1.0
C      1  0.4137930000000  0.5112530000000  0.5235810000000 1.0
C      1  0.5835620000000  0.4877220000000  0.4738780000000 1.0
C      1  0.4178850000000  0.5137570000000  0.4659090000000 1.0
C      1  0.5603050000000  0.5084780000000  0.5170590000000 1.0
C      1  0.4358510000000  0.4815890000000  0.5092850000000 1.0
C      1  0.5608970000000  0.5209730000000  0.4895020000000 1.0
C      1  0.4393500000000  0.4854230000000  0.4839410000000 1.0
C      1  0.4792240000000  0.4323570000000  0.5574500000000 1.0
C      1  0.5254810000000  0.5701410000000  0.5582990000000 1.0
C      1  0.4848040000000  0.4420450000000  0.4397450000000 1.0
C      1  0.5150970000000  0.5588570000000  0.4390340000000 1.0
C      1  0.5565820000000  0.4502930000000  0.4494540000000 1.0
C      1  0.4395870000000  0.5504900000000  0.4475580000000 1.0
C      1  0.5563070000000  0.4510480000000  0.5552650000000 1.0
C      1  0.4398770000000  0.5484130000000  0.5540660000000 1.0
C      1  0.4377070000000  0.4628560000000  0.5505780000000 1.0
C      1  0.5648090000000  0.5380250000000  0.5484430000000 1.0
C      1  0.4422070000000  0.4645360000000  0.4441860000000 1.0
C      1  0.5597970000000  0.5377760000000  0.4348270000000 1.0
C      1  0.5077370000000  0.5140210000000  0.5987760000000 1.0
C      1  0.4966190000000  0.4869920000000  0.5954440000000 1.0
C      1  0.5123710000000  0.5113440000000  0.4086400000000 1.0
C      1  0.4925320000000  0.4907590000000  0.4088020000000 1.0
C      1  0.5238920000000  0.4452070000000  0.5166710000000 1.0
C      1  0.4749200000000  0.5554710000000  0.5158060000000 1.0
C      1  0.5237310000000  0.4441670000000  0.4873510000000 1.0
C      1  0.4733540000000  0.5553820000000  0.4867900000000 1.0
C      1  0.4805860000000  0.5200400000000  0.4463080000000 1.0
C      1  0.5269250000000  0.4810770000000  0.4413310000000 1.0
C      1  0.4619220000000  0.5095490000000  0.5572810000000 1.0
C      1  0.5286700000000  0.4900130000000  0.5590350000000 1.0
C      1  0.4996900000000  0.4723100000000  0.4323900000000 1.0
C      1  0.5059760000000  0.5274510000000  0.4320120000000 1.0
C      1  0.5030410000000  0.4775300000000  0.5684160000000 1.0
C      1  0.5020360000000  0.5319700000000  0.5764170000000 1.0
C      1  0.4294970000000  0.5671530000000  0.5025920000000 1.0
C      1  0.5761070000000  0.4459720000000  0.5034690000000 1.0
END
