TITL C-2441163-1170-959 0.0272245756031819 125000 -7976.22271313561 0 0 62 (C1) n - 1
REM
REM in /home/bkarasulu/work/CARBON/AIRSS/Generating-Clusters/ReaxFF-fromJPCA2015/Units_Real/with-SteepDescent/Higher-Symm
REM
REM
REM
REM
REM
REM ./C.cell (1df0a924f5614ab8850e4351716899ee)
REM
REM compiler GCC version 9.2.1 20190827 (Red Hat 9.2.1-1)
REM options -cpp -mtune=generic -march=x86-64 -g -O0 -fpre-include=/usr/include/finclude/math-vector-fortran.h
REM seed 1674335323 -758614985 -1888527195 197663385 -1042172950 -643013388 -240702377 -315423708 -1893824569 -1610396406 1766341548 1531467476 -728772291 1969956703 170767808 1116831292 5445025 -1165703446 -1058019510 1828096439 1457507925 2021111509 -1288691699 -73403304 978746307 -2087333971 -1534504807 1062330845 1951734178 -706609652 883383856 -732730526 311449270
REM
CELL 1.54180   50.00000   50.00000   50.00000   90.00000   90.00000   90.00000
LATT -1
SFAC C  
C      1  0.5432860000000  0.5343510000000  0.5188790000000 1.0
C      1  0.5434400000000  0.4693230000000  0.5083630000000 1.0
C      1  0.5418400000000  0.5007690000000  0.4694160000000 1.0
C      1  0.4548170000000  0.5341970000000  0.5187710000000 1.0
C      1  0.4545500000000  0.4690500000000  0.5085020000000 1.0
C      1  0.4535410000000  0.5008400000000  0.4698990000000 1.0
C      1  0.5408230000000  0.5262730000000  0.4840850000000 1.0
C      1  0.5415110000000  0.4680560000000  0.4793750000000 1.0
C      1  0.5437260000000  0.5083870000000  0.5302970000000 1.0
C      1  0.4555650000000  0.5258760000000  0.4843430000000 1.0
C      1  0.4564380000000  0.4680590000000  0.4793580000000 1.0
C      1  0.4545120000000  0.5082410000000  0.5305900000000 1.0
C      1  0.5243390000000  0.5517090000000  0.5576730000000 1.0
C      1  0.5288350000000  0.4278670000000  0.5144420000000 1.0
C      1  0.5284190000000  0.5225640000000  0.4318550000000 1.0
C      1  0.4740200000000  0.5518690000000  0.5569360000000 1.0
C      1  0.4694350000000  0.4279150000000  0.5142220000000 1.0
C      1  0.4695950000000  0.5228140000000  0.4310420000000 1.0
C      1  0.5283170000000  0.5478750000000  0.4464620000000 1.0
C      1  0.5271660000000  0.4258220000000  0.4852130000000 1.0
C      1  0.5201310000000  0.5245980000000  0.5683490000000 1.0
C      1  0.4697360000000  0.5482810000000  0.4457120000000 1.0
C      1  0.4710910000000  0.4260540000000  0.4850040000000 1.0
C      1  0.4780740000000  0.5249070000000  0.5680770000000 1.0
C      1  0.4452930000000  0.4391020000000  0.4828690000000 1.0
C      1  0.4451470000000  0.5404320000000  0.4597700000000 1.0
C      1  0.4499090000000  0.5185090000000  0.5590910000000 1.0
C      1  0.5528990000000  0.4391800000000  0.4829580000000 1.0
C      1  0.5531300000000  0.5400900000000  0.4598900000000 1.0
C      1  0.5482840000000  0.5182550000000  0.5589180000000 1.0
C      1  0.4434390000000  0.4416460000000  0.5118630000000 1.0
C      1  0.4477210000000  0.5448850000000  0.5462300000000 1.0
C      1  0.4448840000000  0.5148760000000  0.4449120000000 1.0
C      1  0.5546890000000  0.4419060000000  0.5119030000000 1.0
C      1  0.5505100000000  0.5447980000000  0.5464510000000 1.0
C      1  0.5535130000000  0.5148870000000  0.4450410000000 1.0
C      1  0.5138620000000  0.4496580000000  0.4412840000000 1.0
C      1  0.5136200000000  0.5744240000000  0.4846830000000 1.0
C      1  0.5135620000000  0.4753650000000  0.5711710000000 1.0
C      1  0.4849950000000  0.4495630000000  0.4415040000000 1.0
C      1  0.4842180000000  0.5747620000000  0.4847350000000 1.0
C      1  0.4844090000000  0.4752880000000  0.5712490000000 1.0
C      1  0.5137800000000  0.4497650000000  0.5571720000000 1.0
C      1  0.5139920000000  0.5779130000000  0.5136010000000 1.0
C      1  0.5138240000000  0.4757480000000  0.4278900000000 1.0
C      1  0.4843060000000  0.4498010000000  0.5571220000000 1.0
C      1  0.4849000000000  0.5776290000000  0.5138560000000 1.0
C      1  0.4840090000000  0.4754860000000  0.4280590000000 1.0
C      1  0.4834500000000  0.5526050000000  0.5290870000000 1.0
C      1  0.4842280000000  0.4501750000000  0.5274120000000 1.0
C      1  0.4856080000000  0.5011880000000  0.4428570000000 1.0
C      1  0.5141680000000  0.5518420000000  0.5290450000000 1.0
C      1  0.5139970000000  0.4502480000000  0.5274190000000 1.0
C      1  0.5136940000000  0.5006040000000  0.4433100000000 1.0
C      1  0.4848350000000  0.5479220000000  0.4713890000000 1.0
C      1  0.4840340000000  0.4492570000000  0.4710820000000 1.0
C      1  0.4851770000000  0.4998590000000  0.5539680000000 1.0
C      1  0.5141980000000  0.5480520000000  0.4720690000000 1.0
C      1  0.5136230000000  0.4495700000000  0.4716740000000 1.0
C      1  0.5128940000000  0.4997860000000  0.5540160000000 1.0
C      1  0.4473450000000  0.4944410000000  0.5099180000000 1.0
C      1  0.5505110000000  0.4949410000000  0.5092610000000 1.0
END
