TITL C-2441169-1362-233 0.0803610567734446 125000 -19446.1885545931 0 0 145 (C1) n - 1
REM
REM in /home/bkarasulu/work/CARBON/AIRSS/Generating-Clusters/ReaxFF-fromJPCA2015/Units_Real/with-SteepDescent/Higher-Symm
REM
REM
REM
REM
REM
REM ./C.cell (1df0a924f5614ab8850e4351716899ee)
REM
REM compiler GCC version 9.2.1 20190827 (Red Hat 9.2.1-1)
REM options -cpp -mtune=generic -march=x86-64 -g -O0 -fpre-include=/usr/include/finclude/math-vector-fortran.h
REM seed 4883980 -2027996676 820389898 643232630 -183219506 -576473640 -1039872301 -979698589 -405001524 641430320 -1803831492 -359883875 1837475655 -1785271023 39846856 -2143225767 -1018051289 1278854365 1420512157 292153831 -739884636 24739769 1786059884 694736380 -1201324721 619625276 -932863346 -1274468262 1509187498 842461923 261558599 -1522679520 -1816466287
REM
CELL 1.54180   50.00000   50.00000   50.00000   90.00000   90.00000   90.00000
LATT -1
SFAC C  
C      1  0.5242130000000  0.5132320000000  0.4925900000000 1.0
C      1  0.5265710000000  0.4897720000000  0.4800640000000 1.0
C      1  0.4647470000000  0.4406150000000  0.4282540000000 1.0
C      1  0.4646220000000  0.5602710000000  0.4301020000000 1.0
C      1  0.5779610000000  0.5686400000000  0.4898570000000 1.0
C      1  0.5742730000000  0.4283140000000  0.4927430000000 1.0
C      1  0.4285850000000  0.5629610000000  0.4716070000000 1.0
C      1  0.4280570000000  0.4397580000000  0.4755530000000 1.0
C      1  0.4580240000000  0.5367130000000  0.4155770000000 1.0
C      1  0.4595830000000  0.4635280000000  0.4119690000000 1.0
C      1  0.4068110000000  0.5145520000000  0.4334770000000 1.0
C      1  0.4113270000000  0.4848510000000  0.4341200000000 1.0
C      1  0.4108930000000  0.4473040000000  0.4992870000000 1.0
C      1  0.4123160000000  0.5542630000000  0.4950460000000 1.0
C      1  0.5008470000000  0.4918070000000  0.5640560000000 1.0
C      1  0.4957080000000  0.5203700000000  0.5579210000000 1.0
C      1  0.5300090000000  0.5890980000000  0.4646830000000 1.0
C      1  0.5289720000000  0.4111350000000  0.4633060000000 1.0
C      1  0.4984420000000  0.4428520000000  0.5832470000000 1.0
C      1  0.4941620000000  0.5511450000000  0.5734020000000 1.0
C      1  0.4838930000000  0.5120110000000  0.6006180000000 1.0
C      1  0.4806460000000  0.4838780000000  0.6021870000000 1.0
C      1  0.4722230000000  0.5119830000000  0.5017710000000 1.0
C      1  0.4655940000000  0.4862000000000  0.5024420000000 1.0
C      1  0.5234280000000  0.5605440000000  0.4230610000000 1.0
C      1  0.5259600000000  0.4398800000000  0.4215620000000 1.0
C      1  0.4913640000000  0.5989400000000  0.4911130000000 1.0
C      1  0.4902510000000  0.4015380000000  0.4911690000000 1.0
C      1  0.5250670000000  0.5090430000000  0.5194400000000 1.0
C      1  0.5291260000000  0.4819150000000  0.5215660000000 1.0
C      1  0.4443230000000  0.4154980000000  0.4727620000000 1.0
C      1  0.4491540000000  0.5834290000000  0.4679660000000 1.0
C      1  0.5505370000000  0.4449250000000  0.5728110000000 1.0
C      1  0.5473980000000  0.5563070000000  0.5672500000000 1.0
C      1  0.5958700000000  0.4651410000000  0.5161600000000 1.0
C      1  0.5996140000000  0.5402320000000  0.5254190000000 1.0
C      1  0.5435900000000  0.4838330000000  0.5640410000000 1.0
C      1  0.5420480000000  0.5162920000000  0.5622110000000 1.0
C      1  0.4326970000000  0.5123500000000  0.5030960000000 1.0
C      1  0.4361730000000  0.4838920000000  0.4995570000000 1.0
C      1  0.5910370000000  0.5449520000000  0.4768440000000 1.0
C      1  0.5832530000000  0.4475330000000  0.4740960000000 1.0
C      1  0.5587620000000  0.4477440000000  0.4545220000000 1.0
C      1  0.5572410000000  0.5538980000000  0.4542380000000 1.0
C      1  0.4545840000000  0.4825920000000  0.5868440000000 1.0
C      1  0.4532820000000  0.5103260000000  0.5849400000000 1.0
C      1  0.5469770000000  0.5806210000000  0.4915940000000 1.0
C      1  0.5451630000000  0.4173240000000  0.4913440000000 1.0
C      1  0.5965540000000  0.4701460000000  0.4867760000000 1.0
C      1  0.5954970000000  0.5270450000000  0.5000460000000 1.0
C      1  0.4719630000000  0.4349300000000  0.5816050000000 1.0
C      1  0.4701140000000  0.5629620000000  0.5816140000000 1.0
C      1  0.4099590000000  0.5255840000000  0.4902380000000 1.0
C      1  0.4084580000000  0.4742540000000  0.4893390000000 1.0
C      1  0.5066410000000  0.4865190000000  0.4237510000000 1.0
C      1  0.5075810000000  0.5159970000000  0.4199000000000 1.0
C      1  0.4679050000000  0.4229280000000  0.4519110000000 1.0
C      1  0.4719250000000  0.5803400000000  0.4482710000000 1.0
C      1  0.5028760000000  0.5586360000000  0.4434200000000 1.0
C      1  0.5031800000000  0.4390500000000  0.4394380000000 1.0
C      1  0.5919860000000  0.5201050000000  0.4600670000000 1.0
C      1  0.5975940000000  0.4916670000000  0.4664610000000 1.0
C      1  0.5493320000000  0.4858350000000  0.4177100000000 1.0
C      1  0.5494890000000  0.5153080000000  0.4190780000000 1.0
C      1  0.5008080000000  0.4091360000000  0.4653350000000 1.0
C      1  0.5016610000000  0.5922740000000  0.4651790000000 1.0
C      1  0.4840480000000  0.4933750000000  0.4573520000000 1.0
C      1  0.4821410000000  0.5173810000000  0.4745250000000 1.0
C      1  0.5374400000000  0.4294640000000  0.5499680000000 1.0
C      1  0.5337670000000  0.5738680000000  0.5479140000000 1.0
C      1  0.4637250000000  0.5890200000000  0.4926650000000 1.0
C      1  0.4632690000000  0.4112850000000  0.4939860000000 1.0
C      1  0.4384920000000  0.4760490000000  0.4283760000000 1.0
C      1  0.4330520000000  0.5218790000000  0.4220560000000 1.0
C      1  0.5320030000000  0.4153250000000  0.5175690000000 1.0
C      1  0.5338980000000  0.5841700000000  0.5196190000000 1.0
C      1  0.5872010000000  0.4812720000000  0.5386070000000 1.0
C      1  0.5879790000000  0.5221600000000  0.5452710000000 1.0
C      1  0.4445660000000  0.4644350000000  0.4708270000000 1.0
C      1  0.4435640000000  0.5384820000000  0.4636800000000 1.0
C      1  0.4340350000000  0.5291640000000  0.5723400000000 1.0
C      1  0.4362660000000  0.4600210000000  0.5742870000000 1.0
C      1  0.5182440000000  0.4762170000000  0.5476090000000 1.0
C      1  0.5205860000000  0.5240230000000  0.5432290000000 1.0
C      1  0.5542880000000  0.4468820000000  0.5317180000000 1.0
C      1  0.5566000000000  0.5442670000000  0.5167900000000 1.0
C      1  0.5046740000000  0.4093490000000  0.5167900000000 1.0
C      1  0.5074880000000  0.5932940000000  0.5156160000000 1.0
C      1  0.5015110000000  0.4758800000000  0.4739710000000 1.0
C      1  0.5064220000000  0.5306010000000  0.4832400000000 1.0
C      1  0.4444140000000  0.5150190000000  0.4478270000000 1.0
C      1  0.4562200000000  0.4887710000000  0.4508700000000 1.0
C      1  0.5285980000000  0.5336910000000  0.4119510000000 1.0
C      1  0.5273040000000  0.4682800000000  0.4136340000000 1.0
C      1  0.4433110000000  0.4876090000000  0.5445710000000 1.0
C      1  0.4390070000000  0.5143580000000  0.5326800000000 1.0
C      1  0.4795890000000  0.5156490000000  0.4115070000000 1.0
C      1  0.4801510000000  0.4864520000000  0.4104340000000 1.0
C      1  0.5417080000000  0.5530760000000  0.4804590000000 1.0
C      1  0.5366000000000  0.4480930000000  0.4789990000000 1.0
C      1  0.4885080000000  0.4197090000000  0.5401980000000 1.0
C      1  0.4892480000000  0.5856280000000  0.5375430000000 1.0
C      1  0.5610990000000  0.5375580000000  0.5480170000000 1.0
C      1  0.5648620000000  0.4657860000000  0.5517310000000 1.0
C      1  0.4600130000000  0.5857950000000  0.5332760000000 1.0
C      1  0.4596400000000  0.4228000000000  0.5439750000000 1.0
C      1  0.4222410000000  0.4676710000000  0.5496270000000 1.0
C      1  0.4199150000000  0.5316770000000  0.5463320000000 1.0
C      1  0.5162370000000  0.5496380000000  0.4672820000000 1.0
C      1  0.5123120000000  0.4508940000000  0.4638350000000 1.0
C      1  0.5424000000000  0.4251920000000  0.4415520000000 1.0
C      1  0.5416400000000  0.5757650000000  0.4411940000000 1.0
C      1  0.5572760000000  0.4733840000000  0.4413580000000 1.0
C      1  0.5535370000000  0.5269460000000  0.4444170000000 1.0
C      1  0.4947510000000  0.4589610000000  0.5016110000000 1.0
C      1  0.4982750000000  0.5498560000000  0.5096730000000 1.0
C      1  0.5802920000000  0.5617100000000  0.5177500000000 1.0
C      1  0.5797610000000  0.4409580000000  0.5181040000000 1.0
C      1  0.5400230000000  0.4712710000000  0.4968310000000 1.0
C      1  0.5665980000000  0.5189970000000  0.5038160000000 1.0
C      1  0.4509650000000  0.4458640000000  0.5263890000000 1.0
C      1  0.4496730000000  0.5571190000000  0.5222050000000 1.0
C      1  0.4837240000000  0.5256640000000  0.5256480000000 1.0
C      1  0.4858740000000  0.4767300000000  0.5225700000000 1.0
C      1  0.4676110000000  0.4483200000000  0.4692240000000 1.0
C      1  0.4672830000000  0.5406990000000  0.4743640000000 1.0
C      1  0.5692200000000  0.4866990000000  0.4619640000000 1.0
C      1  0.5638840000000  0.5130920000000  0.4677340000000 1.0
C      1  0.4197590000000  0.5506710000000  0.5234150000000 1.0
C      1  0.4209180000000  0.4490440000000  0.5267370000000 1.0
C      1  0.4595040000000  0.5358540000000  0.5382830000000 1.0
C      1  0.4637620000000  0.4696200000000  0.5392170000000 1.0
C      1  0.4469730000000  0.4323910000000  0.5694890000000 1.0
C      1  0.4501260000000  0.5523370000000  0.5656520000000 1.0
C      1  0.4006990000000  0.4850720000000  0.4629870000000 1.0
C      1  0.4013270000000  0.5138210000000  0.4633000000000 1.0
C      1  0.5063450000000  0.5726530000000  0.5573180000000 1.0
C      1  0.5075150000000  0.4321550000000  0.5574620000000 1.0
C      1  0.5106610000000  0.5249990000000  0.5992860000000 1.0
C      1  0.5064480000000  0.4732060000000  0.5887370000000 1.0
C      1  0.4715520000000  0.4411430000000  0.4975170000000 1.0
C      1  0.4694240000000  0.5590440000000  0.4968340000000 1.0
C      1  0.5352640000000  0.5347950000000  0.5850240000000 1.0
C      1  0.5370620000000  0.4658810000000  0.5868600000000 1.0
C      1  0.5736020000000  0.5038950000000  0.5283630000000 1.0
END
