TITL C-2441158-471-752 0.0131345321745619 125000 -6930.56599758531 0 0 52 (C1) n - 1
REM
REM in /home/bkarasulu/work/CARBON/AIRSS/Generating-Clusters/ReaxFF-fromJPCA2015/Units_Real/with-SteepDescent/Higher-Symm
REM
REM
REM
REM
REM
REM ./C.cell (1df0a924f5614ab8850e4351716899ee)
REM
REM compiler GCC version 9.2.1 20190827 (Red Hat 9.2.1-1)
REM options -cpp -mtune=generic -march=x86-64 -g -O0 -fpre-include=/usr/include/finclude/math-vector-fortran.h
REM seed 1404129847 -1161460243 635438002 -1789810258 715864020 -2045287726 1951283085 -2138263838 1603854265 -365980481 -54525918 -1903265321 -1486335148 -726989410 1311442017 -343590980 -651714520 -246021861 -1618718727 1922280969 -720881397 658822612 2062162979 -1702161467 1846103749 1945261330 -1648453683 829004153 -784579378 -324892367 -669528671 1716964609 1321881589
REM
CELL 1.54180   50.00000   50.00000   50.00000   90.00000   90.00000   90.00000
LATT -1
SFAC C  
C      1  0.4402980000000  0.5021100000000  0.4930030000000 1.0
C      1  0.4901220000000  0.4716590000000  0.5621890000000 1.0
C      1  0.4421150000000  0.5277760000000  0.5068210000000 1.0
C      1  0.5107260000000  0.5027540000000  0.4718940000000 1.0
C      1  0.4376470000000  0.4695830000000  0.5340510000000 1.0
C      1  0.4751390000000  0.5260300000000  0.4535830000000 1.0
C      1  0.5499840000000  0.5371590000000  0.5096250000000 1.0
C      1  0.5246180000000  0.4849820000000  0.4361300000000 1.0
C      1  0.4830410000000  0.5170870000000  0.5189850000000 1.0
C      1  0.5198510000000  0.4596410000000  0.4495970000000 1.0
C      1  0.4885520000000  0.4842680000000  0.4782510000000 1.0
C      1  0.4914080000000  0.4901920000000  0.5185680000000 1.0
C      1  0.5039400000000  0.5730790000000  0.5059420000000 1.0
C      1  0.4727730000000  0.4951550000000  0.5605390000000 1.0
C      1  0.5701540000000  0.4771500000000  0.4912740000000 1.0
C      1  0.5525230000000  0.4434520000000  0.5046840000000 1.0
C      1  0.5331870000000  0.4316540000000  0.4929530000000 1.0
C      1  0.4840650000000  0.5224180000000  0.5602420000000 1.0
C      1  0.5048520000000  0.5120660000000  0.4425180000000 1.0
C      1  0.5372970000000  0.5148100000000  0.5226110000000 1.0
C      1  0.5387070000000  0.5144910000000  0.4785210000000 1.0
C      1  0.5005180000000  0.4499770000000  0.5442020000000 1.0
C      1  0.5100400000000  0.5263140000000  0.5195640000000 1.0
C      1  0.4499010000000  0.5177870000000  0.4452640000000 1.0
C      1  0.5727200000000  0.4852410000000  0.4620500000000 1.0
C      1  0.4657300000000  0.5316450000000  0.5398130000000 1.0
C      1  0.4869750000000  0.4288860000000  0.5267480000000 1.0
C      1  0.5507390000000  0.4856270000000  0.4442980000000 1.0
C      1  0.4446660000000  0.4968980000000  0.4641170000000 1.0
C      1  0.5024310000000  0.5619570000000  0.4790240000000 1.0
C      1  0.4942300000000  0.4682140000000  0.5018230000000 1.0
C      1  0.5263280000000  0.5565460000000  0.4624050000000 1.0
C      1  0.5371680000000  0.4924840000000  0.5426620000000 1.0
C      1  0.5167640000000  0.4434280000000  0.4737910000000 1.0
C      1  0.4559820000000  0.4543310000000  0.4880620000000 1.0
C      1  0.5454440000000  0.4694210000000  0.4977000000000 1.0
C      1  0.4997340000000  0.5638830000000  0.5338630000000 1.0
C      1  0.4635410000000  0.4731930000000  0.4673510000000 1.0
C      1  0.4417040000000  0.4745680000000  0.5044020000000 1.0
C      1  0.5169630000000  0.4845490000000  0.5622240000000 1.0
C      1  0.4613500000000  0.5494130000000  0.4983740000000 1.0
C      1  0.4395310000000  0.5207060000000  0.5353860000000 1.0
C      1  0.4792150000000  0.4416450000000  0.5013010000000 1.0
C      1  0.5651110000000  0.5032000000000  0.4833140000000 1.0
C      1  0.5055270000000  0.5378520000000  0.5463050000000 1.0
C      1  0.5461220000000  0.5429970000000  0.4824070000000 1.0
C      1  0.5183940000000  0.5370700000000  0.4440920000000 1.0
C      1  0.4768420000000  0.5678120000000  0.5156840000000 1.0
C      1  0.4454220000000  0.4944010000000  0.5484840000000 1.0
C      1  0.5255290000000  0.4706830000000  0.4760380000000 1.0
C      1  0.4775500000000  0.5468580000000  0.4745460000000 1.0
C      1  0.5268290000000  0.4648970000000  0.5427280000000 1.0
END
