TITL C-2441168-9922-878 0.0498132614543019 125000 -22991.7227937389 0 0 160 (C1) n - 1
REM
REM in /home/bkarasulu/work/CARBON/AIRSS/Generating-Clusters/ReaxFF-fromJPCA2015/Units_Real/with-SteepDescent/Higher-Symm
REM
REM
REM
REM
REM
REM ./C.cell (1df0a924f5614ab8850e4351716899ee)
REM
REM compiler GCC version 9.2.1 20190827 (Red Hat 9.2.1-1)
REM options -cpp -mtune=generic -march=x86-64 -g -O0 -fpre-include=/usr/include/finclude/math-vector-fortran.h
REM seed -1498310512 820951657 264583548 1572869047 792210066 427384477 -942058159 -2124946952 -1887753301 -720056820 -580458098 1022923724 1285225090 1022142165 -1104284767 -579486303 1230685272 1575958108 -1372444457 -469093682 1115702334 1632997563 -307298393 2098446624 462794989 -1320356406 -1310265454 -915189878 1455300165 -1628755546 482488724 -1125015664 -1412896299
REM
CELL 1.54180   50.00000   50.00000   50.00000   90.00000   90.00000   90.00000
LATT -1
SFAC C  
C      1  0.5134800000000  0.4019720000000  0.4614910000000 1.0
C      1  0.4985900000000  0.5072980000000  0.5539730000000 1.0
C      1  0.5130230000000  0.4619520000000  0.6029090000000 1.0
C      1  0.4348840000000  0.4266120000000  0.5603160000000 1.0
C      1  0.5327310000000  0.4629560000000  0.5462550000000 1.0
C      1  0.4836750000000  0.5610940000000  0.5693440000000 1.0
C      1  0.5027160000000  0.5377030000000  0.4576710000000 1.0
C      1  0.4741610000000  0.5125080000000  0.5427220000000 1.0
C      1  0.5748300000000  0.4631770000000  0.4749380000000 1.0
C      1  0.4141980000000  0.5131030000000  0.5349100000000 1.0
C      1  0.4094870000000  0.4567240000000  0.5332530000000 1.0
C      1  0.5492310000000  0.4808100000000  0.5357560000000 1.0
C      1  0.5480800000000  0.5582040000000  0.4592240000000 1.0
C      1  0.5278950000000  0.5706680000000  0.5737950000000 1.0
C      1  0.4178880000000  0.4701780000000  0.5577180000000 1.0
C      1  0.5036940000000  0.4880620000000  0.6089500000000 1.0
C      1  0.5490400000000  0.4916580000000  0.6003480000000 1.0
C      1  0.4813080000000  0.5887350000000  0.5287060000000 1.0
C      1  0.4118670000000  0.4878270000000  0.4349030000000 1.0
C      1  0.5691780000000  0.5490870000000  0.4408890000000 1.0
C      1  0.4774610000000  0.4916640000000  0.5983200000000 1.0
C      1  0.4982650000000  0.4459390000000  0.5847050000000 1.0
C      1  0.5473460000000  0.4132680000000  0.5291110000000 1.0
C      1  0.4762370000000  0.4673470000000  0.5799000000000 1.0
C      1  0.5243100000000  0.5761280000000  0.4160650000000 1.0
C      1  0.5505480000000  0.4904930000000  0.5090080000000 1.0
C      1  0.5642190000000  0.4998110000000  0.5763230000000 1.0
C      1  0.4666750000000  0.5339150000000  0.5277750000000 1.0
C      1  0.4426010000000  0.4559860000000  0.5674150000000 1.0
C      1  0.4583930000000  0.4462300000000  0.5192150000000 1.0
C      1  0.5563970000000  0.4272280000000  0.4549280000000 1.0
C      1  0.4931490000000  0.5433730000000  0.5060960000000 1.0
C      1  0.5208410000000  0.5928490000000  0.5578060000000 1.0
C      1  0.5648050000000  0.5722290000000  0.4791310000000 1.0
C      1  0.5632390000000  0.4215420000000  0.4826050000000 1.0
C      1  0.4892820000000  0.3985920000000  0.4958060000000 1.0
C      1  0.5428410000000  0.4495480000000  0.5710480000000 1.0
C      1  0.4104820000000  0.5591800000000  0.4786930000000 1.0
C      1  0.5452690000000  0.4074460000000  0.5008990000000 1.0
C      1  0.4887700000000  0.5759140000000  0.4691920000000 1.0
C      1  0.4114340000000  0.4644050000000  0.4857880000000 1.0
C      1  0.4622730000000  0.4190420000000  0.4560870000000 1.0
C      1  0.5876840000000  0.5265390000000  0.4476320000000 1.0
C      1  0.5169230000000  0.4523050000000  0.4693230000000 1.0
C      1  0.4618480000000  0.4298800000000  0.4291740000000 1.0
C      1  0.5465660000000  0.4694930000000  0.4898510000000 1.0
C      1  0.5826550000000  0.4422320000000  0.4919000000000 1.0
C      1  0.5388580000000  0.5068540000000  0.4485280000000 1.0
C      1  0.5235490000000  0.5176770000000  0.5424710000000 1.0
C      1  0.5122050000000  0.5278570000000  0.3983980000000 1.0
C      1  0.5047940000000  0.4616050000000  0.5365310000000 1.0
C      1  0.5126490000000  0.5924600000000  0.4377580000000 1.0
C      1  0.5214340000000  0.4202090000000  0.5419640000000 1.0
C      1  0.4244910000000  0.5244570000000  0.4940640000000 1.0
C      1  0.4769810000000  0.4811080000000  0.4078150000000 1.0
C      1  0.4664080000000  0.5080660000000  0.4005090000000 1.0
C      1  0.5431540000000  0.5419210000000  0.5176680000000 1.0
C      1  0.3951070000000  0.5271260000000  0.4988530000000 1.0
C      1  0.5177220000000  0.4316520000000  0.5688060000000 1.0
C      1  0.4354390000000  0.5612170000000  0.5544060000000 1.0
C      1  0.4922110000000  0.4472300000000  0.4561510000000 1.0
C      1  0.5170150000000  0.5833420000000  0.4656220000000 1.0
C      1  0.5000210000000  0.5663040000000  0.5232820000000 1.0
C      1  0.4681700000000  0.4039340000000  0.5168570000000 1.0
C      1  0.5994990000000  0.5052180000000  0.4890610000000 1.0
C      1  0.4293950000000  0.5035980000000  0.4777400000000 1.0
C      1  0.5188890000000  0.3981000000000  0.4898270000000 1.0
C      1  0.4157760000000  0.4671880000000  0.4565030000000 1.0
C      1  0.5218210000000  0.5984880000000  0.4916830000000 1.0
C      1  0.4553210000000  0.4078080000000  0.5655410000000 1.0
C      1  0.4498690000000  0.5798400000000  0.5187660000000 1.0
C      1  0.5294700000000  0.4793940000000  0.4686950000000 1.0
C      1  0.5306330000000  0.4179390000000  0.4430390000000 1.0
C      1  0.4216210000000  0.5175080000000  0.5820590000000 1.0
C      1  0.4757630000000  0.5582950000000  0.4126180000000 1.0
C      1  0.4915520000000  0.4932550000000  0.4356390000000 1.0
C      1  0.5890620000000  0.5566350000000  0.4871480000000 1.0
C      1  0.5198750000000  0.4964810000000  0.4296620000000 1.0
C      1  0.4924250000000  0.5866630000000  0.5590590000000 1.0
C      1  0.5574780000000  0.5107950000000  0.4242490000000 1.0
C      1  0.4630380000000  0.5534680000000  0.5499250000000 1.0
C      1  0.4433650000000  0.4211910000000  0.5145480000000 1.0
C      1  0.4519490000000  0.4597460000000  0.4220070000000 1.0
C      1  0.4228220000000  0.4301270000000  0.5334090000000 1.0
C      1  0.5397540000000  0.4646210000000  0.5974020000000 1.0
C      1  0.5710760000000  0.4513690000000  0.4484090000000 1.0
C      1  0.3990120000000  0.4732590000000  0.5104800000000 1.0
C      1  0.5304770000000  0.5335010000000  0.4663610000000 1.0
C      1  0.4401360000000  0.5157840000000  0.4552570000000 1.0
C      1  0.4736880000000  0.4555030000000  0.4981840000000 1.0
C      1  0.5693050000000  0.5323660000000  0.5140590000000 1.0
C      1  0.5446650000000  0.5498440000000  0.5787860000000 1.0
C      1  0.5832710000000  0.5013780000000  0.4320200000000 1.0
C      1  0.4433930000000  0.4604180000000  0.4502040000000 1.0
C      1  0.4656410000000  0.4474730000000  0.4693400000000 1.0
C      1  0.5970070000000  0.5309880000000  0.4746160000000 1.0
C      1  0.5889720000000  0.4971930000000  0.5419710000000 1.0
C      1  0.4582910000000  0.4620830000000  0.5431500000000 1.0
C      1  0.4339570000000  0.5693980000000  0.4693160000000 1.0
C      1  0.4856940000000  0.5225630000000  0.4407170000000 1.0
C      1  0.4268140000000  0.5448610000000  0.5773600000000 1.0
C      1  0.5253250000000  0.5077270000000  0.6048980000000 1.0
C      1  0.5236240000000  0.5773980000000  0.5329130000000 1.0
C      1  0.5754200000000  0.5633970000000  0.5398360000000 1.0
C      1  0.4546130000000  0.5551590000000  0.4294080000000 1.0
C      1  0.4934810000000  0.5394400000000  0.5874560000000 1.0
C      1  0.5217380000000  0.5333720000000  0.5916230000000 1.0
C      1  0.4904270000000  0.4365910000000  0.4298750000000 1.0
C      1  0.4676450000000  0.5155720000000  0.4615220000000 1.0
C      1  0.4833800000000  0.5481460000000  0.4775910000000 1.0
C      1  0.4769080000000  0.5971490000000  0.4852390000000 1.0
C      1  0.5217860000000  0.4986260000000  0.4001560000000 1.0
C      1  0.4239670000000  0.5150330000000  0.4319880000000 1.0
C      1  0.5570840000000  0.5392940000000  0.4165380000000 1.0
C      1  0.5480710000000  0.5874560000000  0.4973490000000 1.0
C      1  0.5898610000000  0.5534830000000  0.5163540000000 1.0
C      1  0.5829310000000  0.5176860000000  0.5623740000000 1.0
C      1  0.5732800000000  0.4476140000000  0.5593650000000 1.0
C      1  0.4662360000000  0.4024600000000  0.5441430000000 1.0
C      1  0.5869340000000  0.4465710000000  0.5205790000000 1.0
C      1  0.4290410000000  0.4783990000000  0.4134920000000 1.0
C      1  0.4379880000000  0.5058120000000  0.4071910000000 1.0
C      1  0.5049910000000  0.4923450000000  0.4771570000000 1.0
C      1  0.5304860000000  0.5481400000000  0.4085200000000 1.0
C      1  0.5174430000000  0.4307890000000  0.4207720000000 1.0
C      1  0.5718210000000  0.4281320000000  0.5379520000000 1.0
C      1  0.4159690000000  0.4992010000000  0.5602290000000 1.0
C      1  0.5701660000000  0.5446900000000  0.5611590000000 1.0
C      1  0.5482810000000  0.5702200000000  0.5232660000000 1.0
C      1  0.5226720000000  0.5329930000000  0.4992080000000 1.0
C      1  0.5794250000000  0.5048320000000  0.5132660000000 1.0
C      1  0.4442560000000  0.5287940000000  0.5931990000000 1.0
C      1  0.5240760000000  0.5075150000000  0.5142460000000 1.0
C      1  0.5244230000000  0.4564400000000  0.4054560000000 1.0
C      1  0.3952110000000  0.5025270000000  0.5161350000000 1.0
C      1  0.4513130000000  0.5832930000000  0.4916040000000 1.0
C      1  0.4961900000000  0.6037680000000  0.5057860000000 1.0
C      1  0.4722790000000  0.5199830000000  0.5934760000000 1.0
C      1  0.4378070000000  0.4785680000000  0.4887450000000 1.0
C      1  0.4804410000000  0.4892400000000  0.4634120000000 1.0
C      1  0.5479870000000  0.4690120000000  0.4135380000000 1.0
C      1  0.4013260000000  0.5553890000000  0.5046200000000 1.0
C      1  0.5872770000000  0.4674870000000  0.5428850000000 1.0
C      1  0.4263130000000  0.5629550000000  0.5255280000000 1.0
C      1  0.4487490000000  0.4866660000000  0.5123100000000 1.0
C      1  0.5923710000000  0.4805840000000  0.4808590000000 1.0
C      1  0.4916360000000  0.4724070000000  0.5114820000000 1.0
C      1  0.4945550000000  0.4795760000000  0.5609710000000 1.0
C      1  0.5452340000000  0.5025360000000  0.5537610000000 1.0
C      1  0.5011010000000  0.4958830000000  0.5036600000000 1.0
C      1  0.4342650000000  0.5520330000000  0.4455560000000 1.0
C      1  0.4353470000000  0.5306160000000  0.5208550000000 1.0
C      1  0.4584120000000  0.4903510000000  0.5362200000000 1.0
C      1  0.4833360000000  0.4016100000000  0.4672450000000 1.0
C      1  0.5129750000000  0.4369860000000  0.5199130000000 1.0
C      1  0.5714900000000  0.4724130000000  0.4278570000000 1.0
C      1  0.5035000000000  0.4760980000000  0.3960650000000 1.0
C      1  0.4838370000000  0.5318670000000  0.3998760000000 1.0
C      1  0.4959440000000  0.5807040000000  0.4169500000000 1.0
C      1  0.5259050000000  0.4467050000000  0.4960100000000 1.0
END
