TITL C-2441159-1093-671 0.0341694404055368 125000 -22557.0113950112 0 0 158 (C1) n - 1
REM
REM in /home/bkarasulu/work/CARBON/AIRSS/Generating-Clusters/ReaxFF-fromJPCA2015/Units_Real/with-SteepDescent/Higher-Symm
REM
REM
REM
REM
REM
REM ./C.cell (1df0a924f5614ab8850e4351716899ee)
REM
REM compiler GCC version 9.2.1 20190827 (Red Hat 9.2.1-1)
REM options -cpp -mtune=generic -march=x86-64 -g -O0 -fpre-include=/usr/include/finclude/math-vector-fortran.h
REM seed 1071803808 934584479 -1376613054 845739302 1438493649 1840077891 434889781 142309664 -1805559575 -754162179 1015340025 1803657842 1849513381 921088170 -1564730125 1378247616 -642334404 -678187615 -1286732616 -623785355 -1830117361 1012985286 874536220 -450504822 -324096511 508264507 -1398326954 263379492 -2059494032 9715261 1812087785 2087907468 -170248029
REM
CELL 1.54180   50.00000   50.00000   50.00000   90.00000   90.00000   90.00000
LATT -1
SFAC C  
C      1  0.5134260000000  0.5886610000000  0.5625780000000 1.0
C      1  0.4772050000000  0.5739950000000  0.4226730000000 1.0
C      1  0.4398920000000  0.5584500000000  0.5661940000000 1.0
C      1  0.4112710000000  0.5222610000000  0.4230640000000 1.0
C      1  0.4164810000000  0.4646620000000  0.5630750000000 1.0
C      1  0.4448490000000  0.4278890000000  0.4359100000000 1.0
C      1  0.4851950000000  0.4162000000000  0.5639520000000 1.0
C      1  0.5271710000000  0.4201570000000  0.4378730000000 1.0
C      1  0.5689780000000  0.4412260000000  0.5620400000000 1.0
C      1  0.5827650000000  0.4793890000000  0.4383180000000 1.0
C      1  0.5790490000000  0.5216760000000  0.5624490000000 1.0
C      1  0.5560370000000  0.5689100000000  0.4397750000000 1.0
C      1  0.4807380000000  0.4838950000000  0.5320300000000 1.0
C      1  0.4949040000000  0.4746560000000  0.4848820000000 1.0
C      1  0.5028390000000  0.4738680000000  0.5156570000000 1.0
C      1  0.5214500000000  0.4928010000000  0.4811920000000 1.0
C      1  0.5238190000000  0.4924370000000  0.5139130000000 1.0
C      1  0.5230890000000  0.5191910000000  0.4693120000000 1.0
C      1  0.5151050000000  0.5161600000000  0.5273020000000 1.0
C      1  0.5017700000000  0.5344710000000  0.4827260000000 1.0
C      1  0.4929710000000  0.5284060000000  0.5126290000000 1.0
C      1  0.4779320000000  0.5211190000000  0.4705860000000 1.0
C      1  0.4735400000000  0.5055690000000  0.5130360000000 1.0
C      1  0.4724560000000  0.4942170000000  0.4851650000000 1.0
C      1  0.5921740000000  0.4686300000000  0.4875070000000 1.0
C      1  0.5986670000000  0.5180820000000  0.5096950000000 1.0
C      1  0.5725770000000  0.5635800000000  0.4887250000000 1.0
C      1  0.5270870000000  0.5845560000000  0.5153500000000 1.0
C      1  0.4796790000000  0.5956660000000  0.4932630000000 1.0
C      1  0.4402830000000  0.5671370000000  0.5116190000000 1.0
C      1  0.4115290000000  0.5261130000000  0.4918100000000 1.0
C      1  0.4125230000000  0.4779520000000  0.5143080000000 1.0
C      1  0.4327120000000  0.4352080000000  0.4866260000000 1.0
C      1  0.4728540000000  0.4154840000000  0.5149790000000 1.0
C      1  0.5224760000000  0.4065930000000  0.4871190000000 1.0
C      1  0.5627390000000  0.4271900000000  0.5131240000000 1.0
C      1  0.5373670000000  0.4109970000000  0.5117550000000 1.0
C      1  0.5742830000000  0.4393010000000  0.4881490000000 1.0
C      1  0.5980840000000  0.4856960000000  0.5089280000000 1.0
C      1  0.5931100000000  0.5365370000000  0.4879980000000 1.0
C      1  0.5598320000000  0.5743460000000  0.5110320000000 1.0
C      1  0.5102320000000  0.5872120000000  0.4895620000000 1.0
C      1  0.4696660000000  0.5781360000000  0.5156110000000 1.0
C      1  0.4332410000000  0.5520350000000  0.4886760000000 1.0
C      1  0.4049470000000  0.5108690000000  0.5144270000000 1.0
C      1  0.4225060000000  0.4657130000000  0.4870190000000 1.0
C      1  0.4414870000000  0.4230500000000  0.5106290000000 1.0
C      1  0.4913820000000  0.4154200000000  0.4874690000000 1.0
C      1  0.4863960000000  0.4659930000000  0.4377320000000 1.0
C      1  0.5019850000000  0.4689650000000  0.5740940000000 1.0
C      1  0.5334270000000  0.4683880000000  0.4256900000000 1.0
C      1  0.5424840000000  0.4774470000000  0.5501140000000 1.0
C      1  0.5287410000000  0.4951000000000  0.4372050000000 1.0
C      1  0.5210000000000  0.5188790000000  0.5669800000000 1.0
C      1  0.5101790000000  0.5398800000000  0.4304220000000 1.0
C      1  0.4978640000000  0.5377580000000  0.5668020000000 1.0
C      1  0.4897680000000  0.5186660000000  0.4409040000000 1.0
C      1  0.4725260000000  0.5276530000000  0.5585650000000 1.0
C      1  0.4465930000000  0.5024430000000  0.4285160000000 1.0
C      1  0.4736810000000  0.4709750000000  0.5650030000000 1.0
C      1  0.5495510000000  0.4307000000000  0.4249340000000 1.0
C      1  0.5788950000000  0.4648900000000  0.5758540000000 1.0
C      1  0.5849610000000  0.5044600000000  0.4291360000000 1.0
C      1  0.5649820000000  0.5444920000000  0.5688860000000 1.0
C      1  0.5331170000000  0.5807830000000  0.4245490000000 1.0
C      1  0.4878500000000  0.5863460000000  0.5768440000000 1.0
C      1  0.4516280000000  0.5729420000000  0.4252310000000 1.0
C      1  0.4362080000000  0.5329850000000  0.5778420000000 1.0
C      1  0.4062030000000  0.4955950000000  0.4264300000000 1.0
C      1  0.4337140000000  0.4447740000000  0.5764360000000 1.0
C      1  0.4713140000000  0.4215160000000  0.4241260000000 1.0
C      1  0.5098320000000  0.4159730000000  0.5746150000000 1.0
C      1  0.5839550000000  0.5312430000000  0.5316960000000 1.0
C      1  0.5577250000000  0.5788370000000  0.4682540000000 1.0
C      1  0.5100380000000  0.5985870000000  0.5355590000000 1.0
C      1  0.4599450000000  0.5890800000000  0.4732970000000 1.0
C      1  0.4309540000000  0.5536670000000  0.5358850000000 1.0
C      1  0.4119600000000  0.5086620000000  0.4690630000000 1.0
C      1  0.4112990000000  0.4570600000000  0.5353220000000 1.0
C      1  0.4460130000000  0.4204910000000  0.4649230000000 1.0
C      1  0.4907500000000  0.4059200000000  0.5377130000000 1.0
C      1  0.5384070000000  0.4106130000000  0.4629160000000 1.0
C      1  0.5764010000000  0.4418650000000  0.5340310000000 1.0
C      1  0.5937880000000  0.4856780000000  0.4648460000000 1.0
C      1  0.5169210000000  0.4931270000000  0.6130490000000 1.0
C      1  0.5250920000000  0.5037940000000  0.4074260000000 1.0
C      1  0.5175400000000  0.5189140000000  0.5979220000000 1.0
C      1  0.5073800000000  0.5266040000000  0.4044030000000 1.0
C      1  0.4914590000000  0.5321860000000  0.5944950000000 1.0
C      1  0.4790010000000  0.5215950000000  0.4106300000000 1.0
C      1  0.4640400000000  0.5183900000000  0.5858030000000 1.0
C      1  0.4666570000000  0.4952730000000  0.4081670000000 1.0
C      1  0.4685910000000  0.4877500000000  0.5888520000000 1.0
C      1  0.4870170000000  0.4732440000000  0.4089670000000 1.0
C      1  0.4936150000000  0.4775860000000  0.6015610000000 1.0
C      1  0.5155510000000  0.4759060000000  0.4026450000000 1.0
C      1  0.4098460000000  0.5295220000000  0.5352950000000 1.0
C      1  0.4057350000000  0.4794410000000  0.4662200000000 1.0
C      1  0.4263300000000  0.4318810000000  0.5333290000000 1.0
C      1  0.4711730000000  0.4055230000000  0.4682000000000 1.0
C      1  0.5200170000000  0.4029890000000  0.5346260000000 1.0
C      1  0.5655310000000  0.4213530000000  0.4652380000000 1.0
C      1  0.5934760000000  0.4672510000000  0.5305580000000 1.0
C      1  0.5986760000000  0.5181240000000  0.4661270000000 1.0
C      1  0.5745740000000  0.5617600000000  0.5319700000000 1.0
C      1  0.5342340000000  0.5971630000000  0.4719010000000 1.0
C      1  0.4811080000000  0.6000670000000  0.5337370000000 1.0
C      1  0.4335660000000  0.5759890000000  0.4721370000000 1.0
C      1  0.4395140000000  0.4264910000000  0.5581010000000 1.0
C      1  0.4847680000000  0.4044040000000  0.4424310000000 1.0
C      1  0.5295580000000  0.4089400000000  0.5599750000000 1.0
C      1  0.5716070000000  0.4315350000000  0.4395360000000 1.0
C      1  0.5965350000000  0.4787570000000  0.5576980000000 1.0
C      1  0.5904380000000  0.5298730000000  0.4403730000000 1.0
C      1  0.5611040000000  0.5697560000000  0.5577080000000 1.0
C      1  0.5277100000000  0.5988110000000  0.4449360000000 1.0
C      1  0.4702510000000  0.5991720000000  0.5597490000000 1.0
C      1  0.4298150000000  0.5699960000000  0.4426510000000 1.0
C      1  0.4163690000000  0.5182100000000  0.5618660000000 1.0
C      1  0.4099940000000  0.4700850000000  0.4387920000000 1.0
C      1  0.4361770000000  0.4559030000000  0.4346220000000 1.0
C      1  0.4625030000000  0.4392250000000  0.5698190000000 1.0
C      1  0.4991530000000  0.4293980000000  0.4332940000000 1.0
C      1  0.5395120000000  0.4349270000000  0.5634690000000 1.0
C      1  0.5613850000000  0.4573930000000  0.4242960000000 1.0
C      1  0.5784880000000  0.4949920000000  0.5741600000000 1.0
C      1  0.5627980000000  0.5406700000000  0.4429650000000 1.0
C      1  0.5319390000000  0.5665890000000  0.5588910000000 1.0
C      1  0.5052940000000  0.5685020000000  0.4259570000000 1.0
C      1  0.4596660000000  0.5779050000000  0.5748410000000 1.0
C      1  0.4212480000000  0.5468500000000  0.4289410000000 1.0
C      1  0.4271640000000  0.4911990000000  0.5593210000000 1.0
C      1  0.4883610000000  0.5544330000000  0.5254650000000 1.0
C      1  0.4562500000000  0.5407900000000  0.4706020000000 1.0
C      1  0.4491960000000  0.5129210000000  0.5213660000000 1.0
C      1  0.4489480000000  0.4821660000000  0.4723100000000 1.0
C      1  0.4608060000000  0.4646330000000  0.5241480000000 1.0
C      1  0.4988430000000  0.4451620000000  0.4783240000000 1.0
C      1  0.5076660000000  0.4485430000000  0.5255540000000 1.0
C      1  0.5500180000000  0.4572580000000  0.4806250000000 1.0
C      1  0.5494680000000  0.4865730000000  0.5242700000000 1.0
C      1  0.5622090000000  0.5093370000000  0.4862950000000 1.0
C      1  0.5358990000000  0.5344570000000  0.5211690000000 1.0
C      1  0.5006060000000  0.5623740000000  0.4758120000000 1.0
C      1  0.4387770000000  0.4869700000000  0.5312040000000 1.0
C      1  0.4585610000000  0.4654490000000  0.4499680000000 1.0
C      1  0.4790200000000  0.4429750000000  0.5259700000000 1.0
C      1  0.5249190000000  0.4477690000000  0.4795520000000 1.0
C      1  0.5321890000000  0.4524060000000  0.5397530000000 1.0
C      1  0.5489890000000  0.4853590000000  0.4774970000000 1.0
C      1  0.5581930000000  0.5150860000000  0.5167830000000 1.0
C      1  0.5507240000000  0.5284800000000  0.4672360000000 1.0
C      1  0.5211540000000  0.5590120000000  0.5303240000000 1.0
C      1  0.4736970000000  0.5640540000000  0.4674850000000 1.0
C      1  0.4585280000000  0.5360920000000  0.5352070000000 1.0
C      1  0.4397290000000  0.5088910000000  0.4562450000000 1.0
C      1  0.5198060000000  0.4897520000000  0.5632960000000 1.0
C      1  0.5010040000000  0.4914880000000  0.4437640000000 1.0
END
