TITL C-2441154-10-169 0.105092371979374 125000 -18600.4201500598 0 0 139 (C1) n - 1
REM
REM in /home/bkarasulu/work/CARBON/AIRSS/Generating-Clusters/ReaxFF-fromJPCA2015/Units_Real/with-SteepDescent/Higher-Symm
REM
REM
REM
REM
REM
REM ./C.cell (1df0a924f5614ab8850e4351716899ee)
REM
REM compiler GCC version 9.2.1 20190827 (Red Hat 9.2.1-1)
REM options -cpp -mtune=generic -march=x86-64 -g -O0 -fpre-include=/usr/include/finclude/math-vector-fortran.h
REM seed -2140051828 154784356 525171016 1426931566 1162527599 -1169277175 456963778 -1521840049 2025778122 -545942724 317873691 1936982934 1065034778 -1760530455 1961865710 1163765314 1077084539 811451719 -809228418 519622399 1223400527 267073772 -238777283 229740672 348754200 107156477 473085016 -199426373 204903002 1366770809 -442620264 988371061 1545199644
REM
CELL 1.54180   50.00000   50.00000   50.00000   90.00000   90.00000   90.00000
LATT -1
SFAC C  
C      1  0.4994670000000  0.5982920000000  0.5133600000000 1.0
C      1  0.4025870000000  0.5342590000000  0.5332110000000 1.0
C      1  0.4390610000000  0.4207900000000  0.5310100000000 1.0
C      1  0.5600810000000  0.4183690000000  0.5155180000000 1.0
C      1  0.5978450000000  0.5271520000000  0.5274750000000 1.0
C      1  0.4791140000000  0.5318480000000  0.5396110000000 1.0
C      1  0.4749020000000  0.5042940000000  0.5431910000000 1.0
C      1  0.5034350000000  0.4699240000000  0.5367340000000 1.0
C      1  0.5282290000000  0.4732420000000  0.5493150000000 1.0
C      1  0.5231970000000  0.5148180000000  0.5291320000000 1.0
C      1  0.5265670000000  0.4298810000000  0.5728120000000 1.0
C      1  0.5748920000000  0.5038610000000  0.5704230000000 1.0
C      1  0.5211770000000  0.5714910000000  0.5726460000000 1.0
C      1  0.4368180000000  0.5425630000000  0.5755190000000 1.0
C      1  0.4416010000000  0.4532630000000  0.5735100000000 1.0
C      1  0.5012600000000  0.5512500000000  0.5818830000000 1.0
C      1  0.4521000000000  0.5173720000000  0.5834410000000 1.0
C      1  0.4703300000000  0.4606080000000  0.5802010000000 1.0
C      1  0.5305660000000  0.4563780000000  0.5864230000000 1.0
C      1  0.5476610000000  0.5128760000000  0.5784380000000 1.0
C      1  0.4646750000000  0.5155200000000  0.3976720000000 1.0
C      1  0.4968160000000  0.4790530000000  0.4132650000000 1.0
C      1  0.5236750000000  0.4829760000000  0.4034840000000 1.0
C      1  0.5194920000000  0.5129900000000  0.4060470000000 1.0
C      1  0.4906700000000  0.5280470000000  0.4030630000000 1.0
C      1  0.5699410000000  0.4240310000000  0.4895330000000 1.0
C      1  0.5963260000000  0.5266560000000  0.4806840000000 1.0
C      1  0.4919730000000  0.5984560000000  0.4845900000000 1.0
C      1  0.4078630000000  0.5296190000000  0.4807780000000 1.0
C      1  0.4391150000000  0.4237410000000  0.4766090000000 1.0
C      1  0.5277860000000  0.5638790000000  0.4567380000000 1.0
C      1  0.4507170000000  0.5343530000000  0.4636370000000 1.0
C      1  0.4405270000000  0.4672690000000  0.4557810000000 1.0
C      1  0.5117550000000  0.4396700000000  0.4601750000000 1.0
C      1  0.5722050000000  0.4957720000000  0.4594490000000 1.0
C      1  0.4722520000000  0.5499790000000  0.4973270000000 1.0
C      1  0.4448690000000  0.4862230000000  0.5043610000000 1.0
C      1  0.4944310000000  0.4431840000000  0.4948020000000 1.0
C      1  0.5544910000000  0.4788670000000  0.5041610000000 1.0
C      1  0.5449440000000  0.5417640000000  0.4946140000000 1.0
C      1  0.4214110000000  0.4410420000000  0.5169110000000 1.0
C      1  0.5337460000000  0.4063790000000  0.5106510000000 1.0
C      1  0.5979390000000  0.4990780000000  0.5190710000000 1.0
C      1  0.5281810000000  0.5921310000000  0.5126790000000 1.0
C      1  0.4151400000000  0.5575860000000  0.5176740000000 1.0
C      1  0.5333200000000  0.5276370000000  0.4286360000000 1.0
C      1  0.4872620000000  0.5408560000000  0.4432950000000 1.0
C      1  0.4512470000000  0.4964200000000  0.4171210000000 1.0
C      1  0.4845210000000  0.4662820000000  0.4356700000000 1.0
C      1  0.5422840000000  0.4735370000000  0.4233180000000 1.0
C      1  0.5253550000000  0.5147390000000  0.4608750000000 1.0
C      1  0.5067710000000  0.5406550000000  0.4653310000000 1.0
C      1  0.4712110000000  0.5072110000000  0.4681370000000 1.0
C      1  0.4691230000000  0.4817150000000  0.4551890000000 1.0
C      1  0.5226210000000  0.4644590000000  0.4710530000000 1.0
C      1  0.4601070000000  0.5350940000000  0.5176710000000 1.0
C      1  0.4713300000000  0.4778530000000  0.5027100000000 1.0
C      1  0.5139920000000  0.4498910000000  0.5123840000000 1.0
C      1  0.5402040000000  0.5030190000000  0.5074220000000 1.0
C      1  0.5213170000000  0.5451400000000  0.5127000000000 1.0
C      1  0.4843560000000  0.4816510000000  0.5951110000000 1.0
C      1  0.5131920000000  0.4783230000000  0.5954690000000 1.0
C      1  0.5244120000000  0.5052230000000  0.5951590000000 1.0
C      1  0.5028530000000  0.5249850000000  0.5951750000000 1.0
C      1  0.4774670000000  0.5103670000000  0.5958630000000 1.0
C      1  0.4603900000000  0.5410060000000  0.4389830000000 1.0
C      1  0.4322820000000  0.4859960000000  0.4350010000000 1.0
C      1  0.5133180000000  0.4322010000000  0.4322540000000 1.0
C      1  0.5610710000000  0.4932480000000  0.4339030000000 1.0
C      1  0.5268340000000  0.5557660000000  0.4290540000000 1.0
C      1  0.4841200000000  0.5848290000000  0.5347500000000 1.0
C      1  0.4167250000000  0.5097010000000  0.5241850000000 1.0
C      1  0.4669410000000  0.4285110000000  0.5243340000000 1.0
C      1  0.5634930000000  0.4373070000000  0.5361560000000 1.0
C      1  0.5722920000000  0.5402130000000  0.5322580000000 1.0
C      1  0.5445290000000  0.4279400000000  0.5518760000000 1.0
C      1  0.5862150000000  0.5253210000000  0.5538560000000 1.0
C      1  0.5050740000000  0.5816970000000  0.5520450000000 1.0
C      1  0.4173590000000  0.5385150000000  0.5559450000000 1.0
C      1  0.4421310000000  0.4311390000000  0.5565010000000 1.0
C      1  0.4307670000000  0.4678150000000  0.5237630000000 1.0
C      1  0.5148450000000  0.4228380000000  0.5239990000000 1.0
C      1  0.5757290000000  0.4810450000000  0.5236820000000 1.0
C      1  0.5332690000000  0.5681590000000  0.5240880000000 1.0
C      1  0.4430780000000  0.5575990000000  0.5259500000000 1.0
C      1  0.5252640000000  0.4057700000000  0.4835150000000 1.0
C      1  0.5979110000000  0.4984410000000  0.4910940000000 1.0
C      1  0.5383780000000  0.5913250000000  0.4856740000000 1.0
C      1  0.4216950000000  0.5535300000000  0.4899240000000 1.0
C      1  0.4219390000000  0.4443670000000  0.4888640000000 1.0
C      1  0.4216460000000  0.5311180000000  0.4553820000000 1.0
C      1  0.4410270000000  0.4374900000000  0.4513030000000 1.0
C      1  0.5499010000000  0.4137220000000  0.4707710000000 1.0
C      1  0.5937590000000  0.5150600000000  0.4540070000000 1.0
C      1  0.5160300000000  0.5936470000000  0.4662920000000 1.0
C      1  0.5803520000000  0.5497750000000  0.4709280000000 1.0
C      1  0.4725590000000  0.5835370000000  0.4682360000000 1.0
C      1  0.4073330000000  0.4990580000000  0.4769180000000 1.0
C      1  0.4665840000000  0.4130990000000  0.4714260000000 1.0
C      1  0.5751330000000  0.4471040000000  0.4724900000000 1.0
C      1  0.4137610000000  0.4847660000000  0.5393890000000 1.0
C      1  0.4906330000000  0.4149610000000  0.5374260000000 1.0
C      1  0.5799170000000  0.4610230000000  0.5419010000000 1.0
C      1  0.5565760000000  0.5640860000000  0.5378970000000 1.0
C      1  0.4547740000000  0.5782930000000  0.5413340000000 1.0
C      1  0.5598560000000  0.5213990000000  0.4289900000000 1.0
C      1  0.4980540000000  0.5608690000000  0.4259160000000 1.0
C      1  0.4469820000000  0.5256040000000  0.4181870000000 1.0
C      1  0.4849480000000  0.4383250000000  0.4294680000000 1.0
C      1  0.5395450000000  0.4455610000000  0.4308760000000 1.0
C      1  0.4980830000000  0.4251840000000  0.5640510000000 1.0
C      1  0.5746880000000  0.4756420000000  0.5653240000000 1.0
C      1  0.5434360000000  0.5542280000000  0.5619710000000 1.0
C      1  0.4552830000000  0.5644430000000  0.5665150000000 1.0
C      1  0.4300680000000  0.4793730000000  0.5633110000000 1.0
C      1  0.4708150000000  0.4501370000000  0.5048410000000 1.0
C      1  0.5351220000000  0.4599670000000  0.4962080000000 1.0
C      1  0.5474470000000  0.5156810000000  0.4821720000000 1.0
C      1  0.4990660000000  0.5464130000000  0.4927480000000 1.0
C      1  0.4411630000000  0.5130840000000  0.5110910000000 1.0
C      1  0.4974910000000  0.4203900000000  0.4790740000000 1.0
C      1  0.5794080000000  0.4768240000000  0.4786490000000 1.0
C      1  0.5536060000000  0.5648910000000  0.4791100000000 1.0
C      1  0.4528560000000  0.5596540000000  0.4794770000000 1.0
C      1  0.4234130000000  0.4738240000000  0.4809270000000 1.0
C      1  0.5461860000000  0.4705070000000  0.5674280000000 1.0
C      1  0.5358480000000  0.5268790000000  0.5558530000000 1.0
C      1  0.4800140000000  0.5497130000000  0.5613870000000 1.0
C      1  0.4534370000000  0.4973010000000  0.5624830000000 1.0
C      1  0.4871530000000  0.4512880000000  0.5586190000000 1.0
C      1  0.4908080000000  0.5820460000000  0.4466140000000 1.0
C      1  0.4143910000000  0.5033850000000  0.4494240000000 1.0
C      1  0.4656690000000  0.4240910000000  0.4450510000000 1.0
C      1  0.5570090000000  0.4363110000000  0.4520600000000 1.0
C      1  0.5784650000000  0.5384620000000  0.4440610000000 1.0
C      1  0.4890120000000  0.4981130000000  0.4900440000000 1.0
C      1  0.4982380000000  0.4970920000000  0.5288310000000 1.0
C      1  0.5100680000000  0.4909550000000  0.4692940000000 1.0
C      1  0.4956800000000  0.5063740000000  0.4210160000000 1.0
END
