TITL C-2441162-9305-481 0.0100990012335279 125000 -1841.2067874211 0 0 17 (C1) n - 1
REM
REM in /home/bkarasulu/work/CARBON/AIRSS/Generating-Clusters/ReaxFF-fromJPCA2015/Units_Real/with-SteepDescent/Higher-Symm
REM
REM
REM
REM
REM
REM ./C.cell (1df0a924f5614ab8850e4351716899ee)
REM
REM compiler GCC version 9.2.1 20190827 (Red Hat 9.2.1-1)
REM options -cpp -mtune=generic -march=x86-64 -g -O0 -fpre-include=/usr/include/finclude/math-vector-fortran.h
REM seed 2020975249 1440386396 144841808 -1239898656 282848916 -1967003501 2037592162 -1530929250 710637216 333045313 626442829 1803021539 2000847384 -697308672 -287468334 -1348750303 -518373553 407645726 1997980728 -1738273069 1539266619 1334023922 -876648716 1384877731 181642909 1199985806 2039897645 -1072659043 -15656920 -1496729298 807820283 509985518 2017626528
REM
CELL 1.54180   50.00000   50.00000   50.00000   90.00000   90.00000   90.00000
LATT -1
SFAC C  
C      1  0.4618320000000  0.4844390000000  0.5075230000000 1.0
C      1  0.5379030000000  0.5130600000000  0.4901000000000 1.0
C      1  0.4865470000000  0.5441790000000  0.5169580000000 1.0
C      1  0.5125690000000  0.4530200000000  0.4787780000000 1.0
C      1  0.5415570000000  0.5034360000000  0.5187920000000 1.0
C      1  0.4577410000000  0.4947340000000  0.4786680000000 1.0
C      1  0.5054360000000  0.5277790000000  0.5194660000000 1.0
C      1  0.4947230000000  0.4721370000000  0.4777780000000 1.0
C      1  0.5147290000000  0.5038440000000  0.5338390000000 1.0
C      1  0.4831150000000  0.4977030000000  0.4619910000000 1.0
C      1  0.5234440000000  0.5096200000000  0.4644510000000 1.0
C      1  0.4725770000000  0.4895060000000  0.5344110000000 1.0
C      1  0.5002800000000  0.4807550000000  0.5235570000000 1.0
C      1  0.4967390000000  0.5166640000000  0.4796600000000 1.0
C      1  0.5454740000000  0.5294610000000  0.5284150000000 1.0
C      1  0.4533470000000  0.4701420000000  0.4680830000000 1.0
C      1  0.5011080000000  0.4932490000000  0.4972570000000 1.0
END
