TITL C-2441163-1170-1456 0.0059989459592064 125000 -9338.33046016814 0 0 66 (C1) n - 1
REM
REM in /home/bkarasulu/work/CARBON/AIRSS/Generating-Clusters/ReaxFF-fromJPCA2015/Units_Real/with-SteepDescent/Higher-Symm
REM
REM
REM
REM
REM
REM ./C.cell (1df0a924f5614ab8850e4351716899ee)
REM
REM compiler GCC version 9.2.1 20190827 (Red Hat 9.2.1-1)
REM options -cpp -mtune=generic -march=x86-64 -g -O0 -fpre-include=/usr/include/finclude/math-vector-fortran.h
REM seed 939898802 787140377 1694925755 -1616637801 1931453147 -618057259 -671239565 1274172939 -879205127 -708390122 142434155 623173527 660599225 -943922460 1585338360 -1178979071 462431445 1524922985 -731442044 1404705936 -886331178 556642009 -1304656020 232225814 1727419790 936153009 1539069784 -548747834 950106238 417408123 -200100593 -1362891652 -389916293
REM
CELL 1.54180   50.00000   50.00000   50.00000   90.00000   90.00000   90.00000
LATT -1
SFAC C  
C      1  0.5042870000000  0.5250560000000  0.5392960000000 1.0
C      1  0.5240050000000  0.5032170000000  0.5362540000000 1.0
C      1  0.5119790000000  0.4763800000000  0.5386780000000 1.0
C      1  0.4832150000000  0.4825110000000  0.5370890000000 1.0
C      1  0.4783850000000  0.5111910000000  0.5370420000000 1.0
C      1  0.5259330000000  0.4529720000000  0.5556280000000 1.0
C      1  0.4659310000000  0.4624810000000  0.5530700000000 1.0
C      1  0.4535860000000  0.5223090000000  0.5540380000000 1.0
C      1  0.5075480000000  0.5516350000000  0.5561940000000 1.0
C      1  0.5500080000000  0.5100410000000  0.5522190000000 1.0
C      1  0.4558940000000  0.4864290000000  0.4669240000000 1.0
C      1  0.4742310000000  0.5390390000000  0.4652680000000 1.0
C      1  0.5295990000000  0.5394980000000  0.4668520000000 1.0
C      1  0.5421850000000  0.4847540000000  0.4665080000000 1.0
C      1  0.4983250000000  0.4505060000000  0.4660090000000 1.0
C      1  0.4551300000000  0.5392450000000  0.5085900000000 1.0
C      1  0.5257670000000  0.5625940000000  0.5107950000000 1.0
C      1  0.5601000000000  0.4973090000000  0.5087330000000 1.0
C      1  0.5169120000000  0.4337260000000  0.5104640000000 1.0
C      1  0.4409010000000  0.4647310000000  0.5100490000000 1.0
C      1  0.5717010000000  0.5219450000000  0.4698600000000 1.0
C      1  0.5454670000000  0.4394170000000  0.4700950000000 1.0
C      1  0.4558830000000  0.4382580000000  0.4703300000000 1.0
C      1  0.4298820000000  0.5247960000000  0.4679730000000 1.0
C      1  0.5000100000000  0.5760970000000  0.4697340000000 1.0
C      1  0.5230090000000  0.5095210000000  0.5055300000000 1.0
C      1  0.5115920000000  0.4629300000000  0.5120980000000 1.0
C      1  0.4876950000000  0.4768240000000  0.5058680000000 1.0
C      1  0.4726130000000  0.5151300000000  0.5090520000000 1.0
C      1  0.5128570000000  0.5355180000000  0.5126630000000 1.0
C      1  0.5585430000000  0.4772220000000  0.4881260000000 1.0
C      1  0.4966160000000  0.4302650000000  0.4851750000000 1.0
C      1  0.4375730000000  0.4842880000000  0.4883490000000 1.0
C      1  0.4636030000000  0.5558960000000  0.4854830000000 1.0
C      1  0.5434200000000  0.5541680000000  0.4859030000000 1.0
C      1  0.4555220000000  0.5482440000000  0.5399490000000 1.0
C      1  0.5322790000000  0.5601530000000  0.5424430000000 1.0
C      1  0.5645200000000  0.4883300000000  0.5375650000000 1.0
C      1  0.5098970000000  0.4321790000000  0.5419530000000 1.0
C      1  0.4399060000000  0.4706800000000  0.5394610000000 1.0
C      1  0.4802170000000  0.5784070000000  0.4887010000000 1.0
C      1  0.5702930000000  0.5433520000000  0.4886810000000 1.0
C      1  0.5619490000000  0.4495120000000  0.4898770000000 1.0
C      1  0.4692680000000  0.4213310000000  0.4890380000000 1.0
C      1  0.4209270000000  0.5087740000000  0.4897190000000 1.0
C      1  0.5235670000000  0.5072510000000  0.4342100000000 1.0
C      1  0.5148610000000  0.4798090000000  0.4339040000000 1.0
C      1  0.4860020000000  0.4801810000000  0.4334120000000 1.0
C      1  0.4769740000000  0.5075610000000  0.4328620000000 1.0
C      1  0.5002450000000  0.5243010000000  0.4339580000000 1.0
C      1  0.5459640000000  0.5376320000000  0.5498900000000 1.0
C      1  0.5492900000000  0.4674100000000  0.5483870000000 1.0
C      1  0.4859890000000  0.4429740000000  0.5498760000000 1.0
C      1  0.4426140000000  0.4968800000000  0.5487290000000 1.0
C      1  0.4800250000000  0.5543100000000  0.5502440000000 1.0
C      1  0.4715340000000  0.4629910000000  0.4563060000000 1.0
C      1  0.4561570000000  0.5155250000000  0.4559070000000 1.0
C      1  0.5018400000000  0.5482290000000  0.4564040000000 1.0
C      1  0.5451170000000  0.5144040000000  0.4571480000000 1.0
C      1  0.5266280000000  0.4600170000000  0.4569000000000 1.0
C      1  0.5434640000000  0.4303580000000  0.4969410000000 1.0
C      1  0.4458830000000  0.4390530000000  0.4975940000000 1.0
C      1  0.4300160000000  0.5346810000000  0.4938700000000 1.0
C      1  0.5064590000000  0.5811860000000  0.4968650000000 1.0
C      1  0.5759030000000  0.5173530000000  0.4968190000000 1.0
C      1  0.4952280000000  0.5028700000000  0.4950160000000 1.0
END
