TITL C-2441154-10-1233 0.256074632070423 125000 -18546.8542526649 0 0 165 (C1) n - 1
REM
REM in /home/bkarasulu/work/CARBON/AIRSS/Generating-Clusters/ReaxFF-fromJPCA2015/Units_Real/with-SteepDescent/Higher-Symm
REM
REM
REM
REM
REM
REM ./C.cell (1df0a924f5614ab8850e4351716899ee)
REM
REM compiler GCC version 9.2.1 20190827 (Red Hat 9.2.1-1)
REM options -cpp -mtune=generic -march=x86-64 -g -O0 -fpre-include=/usr/include/finclude/math-vector-fortran.h
REM seed 834911653 990140139 1340515057 -1738043616 1391422131 121342350 1475868219 -433407313 1246305199 -1136982626 1205333767 1571293918 -1175584577 1658929906 1091442181 901082951 -207107250 -1127142688 -1540108873 -498094689 1434283201 -1164093888 1506660643 765656761 -420996227 -936570825 -1551057483 -1424353849 -2001689352 897021090 1087056387 -1123876483 -1197030706
REM
CELL 1.54180   50.00000   50.00000   50.00000   90.00000   90.00000   90.00000
LATT -1
SFAC C  
C      1  0.5303590000000  0.5847090000000  0.5266070000000 1.0
C      1  0.5566970000000  0.4306770000000  0.5278410000000 1.0
C      1  0.4107430000000  0.4823090000000  0.5237920000000 1.0
C      1  0.5856480000000  0.4793600000000  0.4384140000000 1.0
C      1  0.4377180000000  0.4354340000000  0.4393180000000 1.0
C      1  0.4743870000000  0.5832540000000  0.4382790000000 1.0
C      1  0.4678940000000  0.5129450000000  0.5617280000000 1.0
C      1  0.5171890000000  0.5158160000000  0.5589460000000 1.0
C      1  0.5044830000000  0.4672870000000  0.5599930000000 1.0
C      1  0.4088910000000  0.5349280000000  0.5435760000000 1.0
C      1  0.5824930000000  0.5571530000000  0.5349800000000 1.0
C      1  0.5084680000000  0.4009610000000  0.5361380000000 1.0
C      1  0.5286330000000  0.4150780000000  0.5017240000000 1.0
C      1  0.4105610000000  0.5085580000000  0.5050880000000 1.0
C      1  0.5629770000000  0.5681220000000  0.4993400000000 1.0
C      1  0.4579870000000  0.4187600000000  0.4505520000000 1.0
C      1  0.4514430000000  0.5751710000000  0.4527330000000 1.0
C      1  0.5904780000000  0.5030190000000  0.4536830000000 1.0
C      1  0.5087530000000  0.5029580000000  0.4379860000000 1.0
C      1  0.4969650000000  0.4810050000000  0.4480960000000 1.0
C      1  0.4879080000000  0.5177720000000  0.4437900000000 1.0
C      1  0.4573270000000  0.4178100000000  0.4795690000000 1.0
C      1  0.4541890000000  0.5764990000000  0.4817560000000 1.0
C      1  0.5893240000000  0.4988220000000  0.4825370000000 1.0
C      1  0.4988190000000  0.4370620000000  0.4680120000000 1.0
C      1  0.4453450000000  0.5349660000000  0.4713340000000 1.0
C      1  0.5612800000000  0.5356120000000  0.4679170000000 1.0
C      1  0.4976410000000  0.5489700000000  0.4641950000000 1.0
C      1  0.5382290000000  0.4775760000000  0.4644420000000 1.0
C      1  0.4579600000000  0.4727950000000  0.4698680000000 1.0
C      1  0.4127390000000  0.5474020000000  0.4938390000000 1.0
C      1  0.5795500000000  0.5460420000000  0.4904700000000 1.0
C      1  0.5047160000000  0.4035700000000  0.4886540000000 1.0
C      1  0.5216100000000  0.4288310000000  0.4226880000000 1.0
C      1  0.4316460000000  0.5129780000000  0.4146270000000 1.0
C      1  0.5522300000000  0.5518920000000  0.4227270000000 1.0
C      1  0.4332240000000  0.4975430000000  0.5366380000000 1.0
C      1  0.5342590000000  0.5591230000000  0.5395650000000 1.0
C      1  0.5326460000000  0.4396170000000  0.5415540000000 1.0
C      1  0.5173970000000  0.4639690000000  0.4151450000000 1.0
C      1  0.4582440000000  0.5000330000000  0.4188870000000 1.0
C      1  0.5255910000000  0.5379990000000  0.4190910000000 1.0
C      1  0.5659650000000  0.4789670000000  0.4737150000000 1.0
C      1  0.4463330000000  0.4458590000000  0.4761370000000 1.0
C      1  0.4842050000000  0.5708820000000  0.4743230000000 1.0
C      1  0.4852270000000  0.6005360000000  0.5342740000000 1.0
C      1  0.5941170000000  0.4613020000000  0.5336510000000 1.0
C      1  0.4208840000000  0.4373920000000  0.5359860000000 1.0
C      1  0.4918190000000  0.5096290000000  0.3993130000000 1.0
C      1  0.5203840000000  0.5135330000000  0.3992700000000 1.0
C      1  0.4935340000000  0.4795170000000  0.4018380000000 1.0
C      1  0.4487560000000  0.5453510000000  0.4427480000000 1.0
C      1  0.5659800000000  0.5166810000000  0.4455440000000 1.0
C      1  0.4835530000000  0.4366330000000  0.4435850000000 1.0
C      1  0.5195480000000  0.4712490000000  0.5908750000000 1.0
C      1  0.4604680000000  0.4968270000000  0.5873500000000 1.0
C      1  0.5165550000000  0.5317320000000  0.5863800000000 1.0
C      1  0.5091370000000  0.5782120000000  0.5687130000000 1.0
C      1  0.5628130000000  0.4546230000000  0.5692460000000 1.0
C      1  0.4282670000000  0.4702070000000  0.5685250000000 1.0
C      1  0.4808220000000  0.5436580000000  0.5062970000000 1.0
C      1  0.5531540000000  0.4964090000000  0.5064880000000 1.0
C      1  0.4703050000000  0.4477680000000  0.5101780000000 1.0
C      1  0.4322560000000  0.4963460000000  0.5798980000000 1.0
C      1  0.5271890000000  0.5602020000000  0.5817390000000 1.0
C      1  0.5385920000000  0.4478160000000  0.5835340000000 1.0
C      1  0.5609110000000  0.4720760000000  0.5124700000000 1.0
C      1  0.4470490000000  0.4626710000000  0.5116540000000 1.0
C      1  0.4943790000000  0.5659040000000  0.5118220000000 1.0
C      1  0.5240840000000  0.4294040000000  0.5676440000000 1.0
C      1  0.4186690000000  0.5115860000000  0.5584360000000 1.0
C      1  0.5492840000000  0.5549740000000  0.5646050000000 1.0
C      1  0.4771840000000  0.4539960000000  0.4056300000000 1.0
C      1  0.4731390000000  0.5384710000000  0.4053060000000 1.0
C      1  0.5492520000000  0.5049240000000  0.4036270000000 1.0
C      1  0.4609850000000  0.5334230000000  0.5236960000000 1.0
C      1  0.5487270000000  0.5167690000000  0.5254060000000 1.0
C      1  0.4930190000000  0.4555400000000  0.5210730000000 1.0
C      1  0.4841260000000  0.5664610000000  0.5619220000000 1.0
C      1  0.5655910000000  0.4821960000000  0.5616810000000 1.0
C      1  0.4515100000000  0.4549220000000  0.5599870000000 1.0
C      1  0.4653070000000  0.5192880000000  0.4380030000000 1.0
C      1  0.5317020000000  0.5181800000000  0.4419330000000 1.0
C      1  0.4999120000000  0.4603470000000  0.4370050000000 1.0
C      1  0.5362640000000  0.5252960000000  0.4798360000000 1.0
C      1  0.5086810000000  0.4603170000000  0.4785060000000 1.0
C      1  0.4631290000000  0.5183110000000  0.4794060000000 1.0
C      1  0.4847320000000  0.4759190000000  0.5399950000000 1.0
C      1  0.4832600000000  0.5275760000000  0.5415430000000 1.0
C      1  0.5291240000000  0.4976770000000  0.5400730000000 1.0
C      1  0.5270880000000  0.3951600000000  0.5213420000000 1.0
C      1  0.4026270000000  0.5321700000000  0.5152820000000 1.0
C      1  0.5786320000000  0.5752180000000  0.5201860000000 1.0
C      1  0.5396810000000  0.5739180000000  0.4636820000000 1.0
C      1  0.5430180000000  0.4260700000000  0.4630310000000 1.0
C      1  0.4139970000000  0.5051570000000  0.4610230000000 1.0
C      1  0.4482330000000  0.5385510000000  0.5686910000000 1.0
C      1  0.5630190000000  0.5293630000000  0.5673460000000 1.0
C      1  0.4943100000000  0.4337520000000  0.5666750000000 1.0
C      1  0.5826620000000  0.4443210000000  0.4837970000000 1.0
C      1  0.4094140000000  0.4608070000000  0.4868610000000 1.0
C      1  0.5093590000000  0.5990280000000  0.4857820000000 1.0
C      1  0.4672270000000  0.5805940000000  0.5440730000000 1.0
C      1  0.5873160000000  0.4869680000000  0.5441900000000 1.0
C      1  0.4470580000000  0.4311530000000  0.5466910000000 1.0
C      1  0.5887450000000  0.4640410000000  0.5047820000000 1.0
C      1  0.4232120000000  0.4455500000000  0.5080670000000 1.0
C      1  0.4885940000000  0.5943510000000  0.5057290000000 1.0
C      1  0.5446540000000  0.4513870000000  0.5051110000000 1.0
C      1  0.4477550000000  0.4835030000000  0.4949640000000 1.0
C      1  0.5194720000000  0.5615470000000  0.5025290000000 1.0
C      1  0.4507760000000  0.4526550000000  0.4191630000000 1.0
C      1  0.4813440000000  0.5638930000000  0.4171400000000 1.0
C      1  0.5645830000000  0.4840830000000  0.4180820000000 1.0
C      1  0.5097560000000  0.5384270000000  0.5440350000000 1.0
C      1  0.5293500000000  0.4683300000000  0.5467710000000 1.0
C      1  0.4598360000000  0.4904720000000  0.5446480000000 1.0
C      1  0.5561380000000  0.5034470000000  0.5772700000000 1.0
C      1  0.4694190000000  0.4454670000000  0.5781730000000 1.0
C      1  0.4704430000000  0.5514850000000  0.5811160000000 1.0
C      1  0.4173880000000  0.5327720000000  0.4692300000000 1.0
C      1  0.5580660000000  0.5588320000000  0.4504330000000 1.0
C      1  0.5158640000000  0.4148720000000  0.4615690000000 1.0
C      1  0.4874140000000  0.5226110000000  0.4690000000000 1.0
C      1  0.5258570000000  0.5005000000000  0.4772390000000 1.0
C      1  0.4869700000000  0.4785530000000  0.4738610000000 1.0
C      1  0.4218650000000  0.4944100000000  0.4352290000000 1.0
C      1  0.5237750000000  0.5781720000000  0.4408110000000 1.0
C      1  0.5455160000000  0.4383080000000  0.4367540000000 1.0
C      1  0.5843820000000  0.5334550000000  0.5491050000000 1.0
C      1  0.4876200000000  0.4119050000000  0.5478600000000 1.0
C      1  0.4306070000000  0.5519050000000  0.5505020000000 1.0
C      1  0.4682680000000  0.4203160000000  0.5260380000000 1.0
C      1  0.4462300000000  0.5647140000000  0.5282370000000 1.0
C      1  0.5838200000000  0.5126970000000  0.5294570000000 1.0
C      1  0.5258730000000  0.5335480000000  0.5051920000000 1.0
C      1  0.5164980000000  0.4613760000000  0.5044230000000 1.0
C      1  0.4609570000000  0.5053670000000  0.5028050000000 1.0
C      1  0.4053770000000  0.4908620000000  0.4839950000000 1.0
C      1  0.5379290000000  0.5898510000000  0.4884320000000 1.0
C      1  0.5597470000000  0.4254000000000  0.4873840000000 1.0
C      1  0.5121150000000  0.5965190000000  0.5458630000000 1.0
C      1  0.5763020000000  0.4417870000000  0.5464560000000 1.0
C      1  0.4107940000000  0.4632190000000  0.5465480000000 1.0
C      1  0.4906310000000  0.4981650000000  0.5078980000000 1.0
C      1  0.4987950000000  0.5242280000000  0.5046750000000 1.0
C      1  0.5173780000000  0.4891060000000  0.5052890000000 1.0
C      1  0.4213950000000  0.4489840000000  0.4618220000000 1.0
C      1  0.4993690000000  0.5912350000000  0.4574090000000 1.0
C      1  0.5778460000000  0.4572790000000  0.4576930000000 1.0
C      1  0.5362520000000  0.4948340000000  0.5951880000000 1.0
C      1  0.4716610000000  0.4705750000000  0.5937210000000 1.0
C      1  0.4881520000000  0.5343270000000  0.5947470000000 1.0
C      1  0.4472240000000  0.4770130000000  0.4359460000000 1.0
C      1  0.5054810000000  0.5550870000000  0.4337100000000 1.0
C      1  0.5428080000000  0.4690490000000  0.4328200000000 1.0
C      1  0.4949590000000  0.4808000000000  0.6062580000000 1.0
C      1  0.4908500000000  0.5098510000000  0.6107830000000 1.0
C      1  0.5199350000000  0.5130260000000  0.6090790000000 1.0
C      1  0.4937990000000  0.4302640000000  0.4148140000000 1.0
C      1  0.4450880000000  0.5388540000000  0.4122010000000 1.0
C      1  0.5651880000000  0.5256840000000  0.4165330000000 1.0
C      1  0.4769790000000  0.4086980000000  0.4985290000000 1.0
C      1  0.4343960000000  0.5670290000000  0.5003540000000 1.0
C      1  0.5903330000000  0.5211460000000  0.5008900000000 1.0
END
