TITL C-2441166-8118-1226 0.00198064288726456 125000 -5001.23201033099 0 0 36 (C1) n - 1
REM
REM in /home/bkarasulu/work/CARBON/AIRSS/Generating-Clusters/ReaxFF-fromJPCA2015/Units_Real/with-SteepDescent/Higher-Symm
REM
REM
REM
REM
REM
REM ./C.cell (1df0a924f5614ab8850e4351716899ee)
REM
REM compiler GCC version 9.2.1 20190827 (Red Hat 9.2.1-1)
REM options -cpp -mtune=generic -march=x86-64 -g -O0 -fpre-include=/usr/include/finclude/math-vector-fortran.h
REM seed -1661965603 2023846933 2083961240 818498937 701689759 1310749142 1168922436 -1798617191 2052578218 -2033135350 -905712601 1193861566 -39588562 245339257 689271853 783576506 -1960657438 -1219065430 -2135139320 816822132 1667479798 853292836 -1450333157 1674699917 373360504 -1811815528 -1378549259 -1682213549 -486996313 412264636 753440546 -1021124428 -877189937
REM
CELL 1.54180   50.00000   50.00000   50.00000   90.00000   90.00000   90.00000
LATT -1
SFAC C  
C      1  0.4782170000000  0.5224390000000  0.4692920000000 1.0
C      1  0.4692180000000  0.4772190000000  0.5302180000000 1.0
C      1  0.4785190000000  0.4510270000000  0.5176550000000 1.0
C      1  0.4819070000000  0.5500460000000  0.4794710000000 1.0
C      1  0.4867680000000  0.4532430000000  0.5589030000000 1.0
C      1  0.4861460000000  0.5471110000000  0.4376460000000 1.0
C      1  0.5078190000000  0.4438000000000  0.5149000000000 1.0
C      1  0.5146110000000  0.5588910000000  0.4858760000000 1.0
C      1  0.5343300000000  0.4840760000000  0.5389470000000 1.0
C      1  0.5366430000000  0.5161970000000  0.4570740000000 1.0
C      1  0.4863410000000  0.4812600000000  0.5533120000000 1.0
C      1  0.4897440000000  0.5193700000000  0.4427300000000 1.0
C      1  0.4760190000000  0.5684880000000  0.4512260000000 1.0
C      1  0.4804980000000  0.4301210000000  0.5493800000000 1.0
C      1  0.5105890000000  0.4994200000000  0.5495380000000 1.0
C      1  0.5135100000000  0.5009560000000  0.4446870000000 1.0
C      1  0.5356190000000  0.5424480000000  0.4701010000000 1.0
C      1  0.5322270000000  0.4577170000000  0.5254160000000 1.0
C      1  0.5353760000000  0.5439310000000  0.4978110000000 1.0
C      1  0.5424620000000  0.4584500000000  0.4976340000000 1.0
C      1  0.5504260000000  0.5055380000000  0.4789060000000 1.0
C      1  0.5495040000000  0.4950800000000  0.5177040000000 1.0
C      1  0.5041820000000  0.5243710000000  0.5390630000000 1.0
C      1  0.5049970000000  0.4765540000000  0.4553540000000 1.0
C      1  0.4491790000000  0.4725930000000  0.4862630000000 1.0
C      1  0.4505590000000  0.5253660000000  0.5116820000000 1.0
C      1  0.4929260000000  0.5467530000000  0.5281100000000 1.0
C      1  0.4967360000000  0.4545030000000  0.4697770000000 1.0
C      1  0.4693030000000  0.5464100000000  0.5074440000000 1.0
C      1  0.4708690000000  0.4544070000000  0.4877440000000 1.0
C      1  0.5182670000000  0.4444220000000  0.4877650000000 1.0
C      1  0.5179770000000  0.5558270000000  0.5159740000000 1.0
C      1  0.5082980000000  0.4959800000000  0.4980380000000 1.0
C      1  0.4847520000000  0.5032710000000  0.4924570000000 1.0
C      1  0.5412790000000  0.4890790000000  0.4953070000000 1.0
C      1  0.4567570000000  0.4946130000000  0.5092550000000 1.0
END
