TITL C-2441158-471-791 0.00450712199193548 125000 -7421.39917190221 0 0 52 (C1) n - 1
REM
REM in /home/bkarasulu/work/CARBON/AIRSS/Generating-Clusters/ReaxFF-fromJPCA2015/Units_Real/with-SteepDescent/Higher-Symm
REM
REM
REM
REM
REM
REM ./C.cell (1df0a924f5614ab8850e4351716899ee)
REM
REM compiler GCC version 9.2.1 20190827 (Red Hat 9.2.1-1)
REM options -cpp -mtune=generic -march=x86-64 -g -O0 -fpre-include=/usr/include/finclude/math-vector-fortran.h
REM seed 1941787577 -2068067711 812101543 -904502037 -1671707873 1958771856 -929627296 1815466045 751745806 818439406 -1649790337 2091205717 -1836500924 -84249749 1185846349 1195099447 -524130426 1103077242 1958497010 1906838869 -1014929863 -999191388 2085305283 -530676508 1725241875 1840518727 -1214688497 1309595017 2100703817 -1661736421 1880245003 -191081994 -1956708082
REM
CELL 1.54180   50.00000   50.00000   50.00000   90.00000   90.00000   90.00000
LATT -1
SFAC C  
C      1  0.4400880000000  0.4656710000000  0.4865820000000 1.0
C      1  0.5331660000000  0.4863510000000  0.5557500000000 1.0
C      1  0.5802910000000  0.5214090000000  0.4910060000000 1.0
C      1  0.4579250000000  0.4720630000000  0.5112830000000 1.0
C      1  0.5651690000000  0.4817400000000  0.5154780000000 1.0
C      1  0.4979680000000  0.4984610000000  0.4294230000000 1.0
C      1  0.4648900000000  0.4529150000000  0.4561730000000 1.0
C      1  0.5576250000000  0.4767200000000  0.4766880000000 1.0
C      1  0.4818080000000  0.4994590000000  0.4756240000000 1.0
C      1  0.5263360000000  0.5304590000000  0.5452090000000 1.0
C      1  0.4501470000000  0.4400660000000  0.5428600000000 1.0
C      1  0.4786070000000  0.5189220000000  0.4376670000000 1.0
C      1  0.5159950000000  0.5344160000000  0.4974290000000 1.0
C      1  0.4466760000000  0.5336510000000  0.5076050000000 1.0
C      1  0.4911040000000  0.5426030000000  0.4470910000000 1.0
C      1  0.4851760000000  0.5052320000000  0.5571050000000 1.0
C      1  0.5241640000000  0.4627780000000  0.5144860000000 1.0
C      1  0.5401390000000  0.5009610000000  0.4614920000000 1.0
C      1  0.4479140000000  0.4700730000000  0.5537920000000 1.0
C      1  0.4879470000000  0.5714160000000  0.4842110000000 1.0
C      1  0.5520680000000  0.5244920000000  0.5322910000000 1.0
C      1  0.5638000000000  0.5368700000000  0.5086060000000 1.0
C      1  0.4521130000000  0.5465970000000  0.5354130000000 1.0
C      1  0.4760550000000  0.4759030000000  0.5603190000000 1.0
C      1  0.4731100000000  0.4484990000000  0.5275840000000 1.0
C      1  0.5138990000000  0.5601760000000  0.4804830000000 1.0
C      1  0.4415920000000  0.5072260000000  0.5377020000000 1.0
C      1  0.4493840000000  0.4775060000000  0.4619240000000 1.0
C      1  0.5778850000000  0.4903260000000  0.4919900000000 1.0
C      1  0.4945040000000  0.4829560000000  0.4559980000000 1.0
C      1  0.4936500000000  0.4566630000000  0.5483350000000 1.0
C      1  0.5053570000000  0.5351540000000  0.5247570000000 1.0
C      1  0.5190200000000  0.4502260000000  0.4754080000000 1.0
C      1  0.4408460000000  0.4832740000000  0.5315130000000 1.0
C      1  0.5623940000000  0.5393990000000  0.4775820000000 1.0
C      1  0.5251950000000  0.5011460000000  0.4364730000000 1.0
C      1  0.4856740000000  0.5145030000000  0.5280160000000 1.0
C      1  0.5426330000000  0.4556210000000  0.4909590000000 1.0
C      1  0.4568330000000  0.5236220000000  0.5546380000000 1.0
C      1  0.4811670000000  0.4941350000000  0.5047520000000 1.0
C      1  0.5230020000000  0.5082390000000  0.4887110000000 1.0
C      1  0.4969820000000  0.4534730000000  0.4589090000000 1.0
C      1  0.5158090000000  0.5086980000000  0.5610050000000 1.0
C      1  0.5220140000000  0.4620240000000  0.5439370000000 1.0
C      1  0.4527430000000  0.5341050000000  0.4792470000000 1.0
C      1  0.5562690000000  0.4955290000000  0.5385930000000 1.0
C      1  0.4466950000000  0.4376290000000  0.4750590000000 1.0
C      1  0.5440130000000  0.5319680000000  0.4561740000000 1.0
C      1  0.4721030000000  0.5542240000000  0.4686610000000 1.0
C      1  0.5115150000000  0.4868530000000  0.5038100000000 1.0
C      1  0.4591510000000  0.5096530000000  0.4602610000000 1.0
C      1  0.5193920000000  0.5479420000000  0.4539360000000 1.0
END
