TITL C-2441169-1362-1176 0.00818727927772155 125000 -11024.3047517793 0 0 77 (C1) n - 1
REM
REM in /home/bkarasulu/work/CARBON/AIRSS/Generating-Clusters/ReaxFF-fromJPCA2015/Units_Real/with-SteepDescent/Higher-Symm
REM
REM
REM
REM
REM
REM ./C.cell (1df0a924f5614ab8850e4351716899ee)
REM
REM compiler GCC version 9.2.1 20190827 (Red Hat 9.2.1-1)
REM options -cpp -mtune=generic -march=x86-64 -g -O0 -fpre-include=/usr/include/finclude/math-vector-fortran.h
REM seed -286362867 -2129245022 -758691327 275507128 -2072880065 -1965008996 696022106 146221760 -1497226084 2113434956 121789461 -1862193884 -1175320567 1503996677 1638434387 -614199414 1391446995 -1803081319 1955145029 1353196895 -764666539 556817503 152223432 -1790597325 -421685675 -411802962 624263797 -1814574206 -615126515 116532411 1356705357 -838845952 -1429190511
REM
CELL 1.54180   50.00000   50.00000   50.00000   90.00000   90.00000   90.00000
LATT -1
SFAC C  
C      1  0.4914070000000  0.5000160000000  0.4477980000000 1.0
C      1  0.5192170000000  0.4996630000000  0.4513930000000 1.0
C      1  0.5450580000000  0.5008150000000  0.4675810000000 1.0
C      1  0.5539890000000  0.4956250000000  0.4965810000000 1.0
C      1  0.5508040000000  0.5009840000000  0.5256230000000 1.0
C      1  0.5246230000000  0.5012720000000  0.5490840000000 1.0
C      1  0.4951240000000  0.4936310000000  0.5484330000000 1.0
C      1  0.4681880000000  0.4992590000000  0.5395740000000 1.0
C      1  0.4475130000000  0.5017970000000  0.5178950000000 1.0
C      1  0.4454540000000  0.4986790000000  0.4868910000000 1.0
C      1  0.4629940000000  0.5002320000000  0.4578150000000 1.0
C      1  0.4239820000000  0.5330800000000  0.5574550000000 1.0
C      1  0.4073810000000  0.5308790000000  0.5057680000000 1.0
C      1  0.4195230000000  0.5292560000000  0.4532930000000 1.0
C      1  0.4567890000000  0.5326320000000  0.4144670000000 1.0
C      1  0.5081510000000  0.5333830000000  0.4031390000000 1.0
C      1  0.5567750000000  0.5317310000000  0.4245290000000 1.0
C      1  0.5890610000000  0.5319440000000  0.4680320000000 1.0
C      1  0.5932010000000  0.5334790000000  0.5202370000000 1.0
C      1  0.5639950000000  0.5310480000000  0.5659270000000 1.0
C      1  0.5172210000000  0.5309150000000  0.5933920000000 1.0
C      1  0.4646800000000  0.5312540000000  0.5906990000000 1.0
C      1  0.4507220000000  0.5400050000000  0.5651720000000 1.0
C      1  0.4297660000000  0.5307200000000  0.5258190000000 1.0
C      1  0.4275870000000  0.5270860000000  0.4827420000000 1.0
C      1  0.4486150000000  0.5283040000000  0.4449390000000 1.0
C      1  0.4840520000000  0.5408030000000  0.4198310000000 1.0
C      1  0.5289850000000  0.5401550000000  0.4241530000000 1.0
C      1  0.5606840000000  0.5291730000000  0.4557930000000 1.0
C      1  0.5809350000000  0.5411960000000  0.4949500000000 1.0
C      1  0.5656230000000  0.5300890000000  0.5356280000000 1.0
C      1  0.5335350000000  0.5291630000000  0.5655470000000 1.0
C      1  0.4924560000000  0.5381970000000  0.5809430000000 1.0
C      1  0.5668720000000  0.4570670000000  0.4724990000000 1.0
C      1  0.5743250000000  0.4594520000000  0.5166070000000 1.0
C      1  0.5538770000000  0.4627190000000  0.5559380000000 1.0
C      1  0.5158830000000  0.4597030000000  0.5741220000000 1.0
C      1  0.4641660000000  0.4608920000000  0.5675880000000 1.0
C      1  0.4282860000000  0.4748820000000  0.5534580000000 1.0
C      1  0.4249200000000  0.4595660000000  0.5071790000000 1.0
C      1  0.4414700000000  0.4574530000000  0.4606320000000 1.0
C      1  0.4775840000000  0.4613750000000  0.4313430000000 1.0
C      1  0.5105120000000  0.4730510000000  0.4107570000000 1.0
C      1  0.5385850000000  0.4615630000000  0.4376130000000 1.0
C      1  0.4468200000000  0.4416370000000  0.5165280000000 1.0
C      1  0.4605610000000  0.4401070000000  0.4939250000000 1.0
C      1  0.4671280000000  0.4419000000000  0.4675800000000 1.0
C      1  0.4926430000000  0.4474890000000  0.4530030000000 1.0
C      1  0.5211890000000  0.4486500000000  0.4588400000000 1.0
C      1  0.5411680000000  0.4443450000000  0.4803820000000 1.0
C      1  0.5493320000000  0.4439660000000  0.5088740000000 1.0
C      1  0.5406870000000  0.4434410000000  0.5365680000000 1.0
C      1  0.5154240000000  0.4389130000000  0.5513530000000 1.0
C      1  0.4893460000000  0.4384080000000  0.5430180000000 1.0
C      1  0.4637870000000  0.4426530000000  0.5433090000000 1.0
C      1  0.4880230000000  0.4865040000000  0.4205270000000 1.0
C      1  0.5299690000000  0.4876230000000  0.4251230000000 1.0
C      1  0.5588880000000  0.4764270000000  0.4525520000000 1.0
C      1  0.5758260000000  0.4767680000000  0.4931520000000 1.0
C      1  0.5683600000000  0.4795110000000  0.5370890000000 1.0
C      1  0.5346460000000  0.4810400000000  0.5683610000000 1.0
C      1  0.4907330000000  0.4741420000000  0.5705080000000 1.0
C      1  0.4515200000000  0.4876640000000  0.5623090000000 1.0
C      1  0.4247430000000  0.4817040000000  0.5267840000000 1.0
C      1  0.4302850000000  0.4738720000000  0.4821970000000 1.0
C      1  0.4543590000000  0.4758500000000  0.4427310000000 1.0
C      1  0.4525490000000  0.5474660000000  0.4886670000000 1.0
C      1  0.4656350000000  0.5482440000000  0.4638660000000 1.0
C      1  0.4900160000000  0.5504550000000  0.4494350000000 1.0
C      1  0.5182560000000  0.5499510000000  0.4520120000000 1.0
C      1  0.5403880000000  0.5484150000000  0.4700620000000 1.0
C      1  0.5502930000000  0.5511620000000  0.4965500000000 1.0
C      1  0.5428530000000  0.5493800000000  0.5237210000000 1.0
C      1  0.5225060000000  0.5491130000000  0.5435380000000 1.0
C      1  0.4950840000000  0.5491470000000  0.5508730000000 1.0
C      1  0.4688860000000  0.5499930000000  0.5408810000000 1.0
C      1  0.4535290000000  0.5498710000000  0.5168240000000 1.0
END
