TITL C-2441160-1326-121 0.0919439870529354 125000 -26673.1852871535 0 0 193 (C1) n - 1
REM
REM in /home/bkarasulu/work/CARBON/AIRSS/Generating-Clusters/ReaxFF-fromJPCA2015/Units_Real/with-SteepDescent/Higher-Symm
REM
REM
REM
REM
REM
REM ./C.cell (1df0a924f5614ab8850e4351716899ee)
REM
REM compiler GCC version 9.2.1 20190827 (Red Hat 9.2.1-1)
REM options -cpp -mtune=generic -march=x86-64 -g -O0 -fpre-include=/usr/include/finclude/math-vector-fortran.h
REM seed -504236648 -1454325060 1527146587 -613692178 2053800348 -1982316439 -1356103863 410579345 -562690988 1809739175 -1434411793 -1830895466 -1403245518 605849266 -2069890236 902275695 -1732379508 -718558651 -2099983048 319937840 -414559605 678392857 2050680793 -2014475189 -842333443 158500992 -940877602 -511497286 -1498257589 -1112780397 -47428267 -131949932 -1855256317
REM
CELL 1.54180   50.00000   50.00000   50.00000   90.00000   90.00000   90.00000
LATT -1
SFAC C  
C      1  0.4283080000000  0.5750350000000  0.4478740000000 1.0
C      1  0.3957150000000  0.4779770000000  0.4616430000000 1.0
C      1  0.4731120000000  0.3992860000000  0.4462620000000 1.0
C      1  0.5695980000000  0.4243230000000  0.4536420000000 1.0
C      1  0.6031060000000  0.5214700000000  0.4589760000000 1.0
C      1  0.5302300000000  0.6022680000000  0.4600600000000 1.0
C      1  0.4303370000000  0.5778560000000  0.5476180000000 1.0
C      1  0.3955220000000  0.4766340000000  0.5405620000000 1.0
C      1  0.4720070000000  0.4013820000000  0.5535330000000 1.0
C      1  0.5719230000000  0.4235720000000  0.5509060000000 1.0
C      1  0.6043840000000  0.5216930000000  0.5394520000000 1.0
C      1  0.5273780000000  0.6023490000000  0.5433270000000 1.0
C      1  0.5033440000000  0.5755540000000  0.4023860000000 1.0
C      1  0.4380080000000  0.5431470000000  0.4041800000000 1.0
C      1  0.4331570000000  0.4674440000000  0.4024210000000 1.0
C      1  0.4947310000000  0.4244890000000  0.4041650000000 1.0
C      1  0.5618840000000  0.4622000000000  0.4045510000000 1.0
C      1  0.5643410000000  0.5360880000000  0.4098740000000 1.0
C      1  0.5052800000000  0.5754410000000  0.5948350000000 1.0
C      1  0.4386450000000  0.5380640000000  0.5927490000000 1.0
C      1  0.4342000000000  0.4647000000000  0.5933690000000 1.0
C      1  0.4932010000000  0.4247060000000  0.5960580000000 1.0
C      1  0.5613820000000  0.4566410000000  0.5961090000000 1.0
C      1  0.5647800000000  0.5330000000000  0.5938020000000 1.0
C      1  0.4296130000000  0.4932310000000  0.5941500000000 1.0
C      1  0.4662400000000  0.4351080000000  0.5949190000000 1.0
C      1  0.5390050000000  0.4386740000000  0.5959720000000 1.0
C      1  0.5718430000000  0.5046550000000  0.5921400000000 1.0
C      1  0.5319130000000  0.5649080000000  0.5968600000000 1.0
C      1  0.4584600000000  0.5593350000000  0.5946450000000 1.0
C      1  0.4272590000000  0.4957790000000  0.4061910000000 1.0
C      1  0.4679120000000  0.4352630000000  0.4052330000000 1.0
C      1  0.5407360000000  0.4423000000000  0.4053830000000 1.0
C      1  0.5715810000000  0.5081770000000  0.4071750000000 1.0
C      1  0.5305700000000  0.5659670000000  0.4059550000000 1.0
C      1  0.4604980000000  0.5613310000000  0.4027700000000 1.0
C      1  0.4769450000000  0.5204720000000  0.4640420000000 1.0
C      1  0.4761420000000  0.4929920000000  0.4690300000000 1.0
C      1  0.4951850000000  0.4736040000000  0.4626670000000 1.0
C      1  0.5212860000000  0.4827280000000  0.4638010000000 1.0
C      1  0.5218530000000  0.5091830000000  0.4698290000000 1.0
C      1  0.5041370000000  0.5263470000000  0.4574260000000 1.0
C      1  0.4844540000000  0.5167970000000  0.5332330000000 1.0
C      1  0.4769130000000  0.4985400000000  0.5458510000000 1.0
C      1  0.4806650000000  0.4777240000000  0.5317880000000 1.0
C      1  0.5056510000000  0.4675520000000  0.5271230000000 1.0
C      1  0.5311300000000  0.5021540000000  0.5292350000000 1.0
C      1  0.5112970000000  0.5222190000000  0.5384000000000 1.0
C      1  0.5160210000000  0.5792110000000  0.4480160000000 1.0
C      1  0.4356110000000  0.5491860000000  0.4337810000000 1.0
C      1  0.4252580000000  0.4764930000000  0.4485620000000 1.0
C      1  0.4935240000000  0.4160990000000  0.4326260000000 1.0
C      1  0.5569330000000  0.4493500000000  0.4457410000000 1.0
C      1  0.5726610000000  0.5201480000000  0.4520310000000 1.0
C      1  0.5124200000000  0.5824580000000  0.5631990000000 1.0
C      1  0.4449860000000  0.5509990000000  0.5498740000000 1.0
C      1  0.4256750000000  0.4786780000000  0.5507850000000 1.0
C      1  0.4928030000000  0.4188950000000  0.5668330000000 1.0
C      1  0.5626450000000  0.4510190000000  0.5648850000000 1.0
C      1  0.5742110000000  0.5246670000000  0.5476150000000 1.0
C      1  0.5222620000000  0.5238720000000  0.3836120000000 1.0
C      1  0.4935830000000  0.5301520000000  0.3874930000000 1.0
C      1  0.4696780000000  0.5051830000000  0.3913790000000 1.0
C      1  0.4781960000000  0.4776100000000  0.3836900000000 1.0
C      1  0.5064660000000  0.4703950000000  0.3901510000000 1.0
C      1  0.5301800000000  0.4961480000000  0.3906170000000 1.0
C      1  0.5211220000000  0.5209120000000  0.6161630000000 1.0
C      1  0.4915520000000  0.5282820000000  0.6108280000000 1.0
C      1  0.4703980000000  0.5075260000000  0.6170210000000 1.0
C      1  0.4775890000000  0.4789300000000  0.6131500000000 1.0
C      1  0.5079880000000  0.4706530000000  0.6100820000000 1.0
C      1  0.5297780000000  0.4932790000000  0.6098010000000 1.0
C      1  0.5591590000000  0.4832700000000  0.6068620000000 1.0
C      1  0.5412830000000  0.5402220000000  0.6109170000000 1.0
C      1  0.4846570000000  0.5595440000000  0.6068880000000 1.0
C      1  0.4433850000000  0.5140360000000  0.6092640000000 1.0
C      1  0.4562170000000  0.4576020000000  0.6106540000000 1.0
C      1  0.5132020000000  0.4415220000000  0.6091290000000 1.0
C      1  0.5589460000000  0.4878880000000  0.3911030000000 1.0
C      1  0.5421770000000  0.5436910000000  0.3915150000000 1.0
C      1  0.4852110000000  0.5585740000000  0.3871320000000 1.0
C      1  0.4410360000000  0.5167880000000  0.3924320000000 1.0
C      1  0.4575080000000  0.4577620000000  0.3881870000000 1.0
C      1  0.5153420000000  0.4415870000000  0.3923090000000 1.0
C      1  0.5372620000000  0.4439420000000  0.4889000000000 1.0
C      1  0.5696620000000  0.5076130000000  0.4797660000000 1.0
C      1  0.5260390000000  0.5612870000000  0.4861380000000 1.0
C      1  0.4544870000000  0.5573840000000  0.4921470000000 1.0
C      1  0.4341030000000  0.4719880000000  0.4746040000000 1.0
C      1  0.4693970000000  0.4362390000000  0.4855330000000 1.0
C      1  0.5440600000000  0.4461480000000  0.5167250000000 1.0
C      1  0.5710140000000  0.5238970000000  0.5166230000000 1.0
C      1  0.5307660000000  0.5644280000000  0.5148780000000 1.0
C      1  0.4593470000000  0.5534570000000  0.5212180000000 1.0
C      1  0.4320560000000  0.4851080000000  0.5222870000000 1.0
C      1  0.4717260000000  0.4371360000000  0.5139030000000 1.0
C      1  0.4121310000000  0.5242710000000  0.4701630000000 1.0
C      1  0.4468380000000  0.4290710000000  0.4737640000000 1.0
C      1  0.5259310000000  0.4168730000000  0.4726070000000 1.0
C      1  0.5853980000000  0.4797410000000  0.4751210000000 1.0
C      1  0.5545810000000  0.5624820000000  0.4733040000000 1.0
C      1  0.4703520000000  0.5760390000000  0.4750730000000 1.0
C      1  0.4164390000000  0.5217680000000  0.5277050000000 1.0
C      1  0.4467440000000  0.4366790000000  0.5299120000000 1.0
C      1  0.5273080000000  0.4192510000000  0.5292510000000 1.0
C      1  0.5871890000000  0.4750720000000  0.5305460000000 1.0
C      1  0.5571500000000  0.5680710000000  0.5298460000000 1.0
C      1  0.4744180000000  0.5855170000000  0.5277850000000 1.0
C      1  0.4523330000000  0.4035310000000  0.4662090000000 1.0
C      1  0.5553130000000  0.4087640000000  0.4730920000000 1.0
C      1  0.6067730000000  0.4957050000000  0.4690490000000 1.0
C      1  0.5545820000000  0.5920030000000  0.4727040000000 1.0
C      1  0.4449270000000  0.5889590000000  0.4678230000000 1.0
C      1  0.3922350000000  0.5027650000000  0.4745150000000 1.0
C      1  0.4508840000000  0.4082860000000  0.5344000000000 1.0
C      1  0.5555030000000  0.4080710000000  0.5333820000000 1.0
C      1  0.6070080000000  0.4960730000000  0.5257140000000 1.0
C      1  0.5525140000000  0.5947220000000  0.5356440000000 1.0
C      1  0.4444330000000  0.5922490000000  0.5273480000000 1.0
C      1  0.3967310000000  0.5027570000000  0.5307330000000 1.0
C      1  0.4243190000000  0.4528900000000  0.5131850000000 1.0
C      1  0.5029180000000  0.4026520000000  0.5147280000000 1.0
C      1  0.5783550000000  0.4519330000000  0.5144920000000 1.0
C      1  0.5774210000000  0.5528960000000  0.5145160000000 1.0
C      1  0.4955100000000  0.5961160000000  0.5074090000000 1.0
C      1  0.4140600000000  0.5473900000000  0.5143060000000 1.0
C      1  0.4267930000000  0.4458470000000  0.4843480000000 1.0
C      1  0.5027210000000  0.4006320000000  0.4875180000000 1.0
C      1  0.5855480000000  0.4528850000000  0.4868810000000 1.0
C      1  0.5805570000000  0.5552960000000  0.4861710000000 1.0
C      1  0.4981890000000  0.5815040000000  0.4827850000000 1.0
C      1  0.4108930000000  0.5490100000000  0.4857240000000 1.0
C      1  0.4784860000000  0.3916200000000  0.4734400000000 1.0
C      1  0.5792890000000  0.4248240000000  0.4815350000000 1.0
C      1  0.6025950000000  0.5343360000000  0.4850730000000 1.0
C      1  0.5366780000000  0.6096290000000  0.4879730000000 1.0
C      1  0.4185340000000  0.5753160000000  0.4745900000000 1.0
C      1  0.3868440000000  0.4762360000000  0.4890530000000 1.0
C      1  0.4775020000000  0.3941810000000  0.5264730000000 1.0
C      1  0.5794510000000  0.4218510000000  0.5234000000000 1.0
C      1  0.6121570000000  0.5216010000000  0.5111590000000 1.0
C      1  0.5210460000000  0.6084640000000  0.5141230000000 1.0
C      1  0.4202300000000  0.5762550000000  0.5210110000000 1.0
C      1  0.3957600000000  0.4637080000000  0.5145960000000 1.0
C      1  0.5145380000000  0.5258920000000  0.4314350000000 1.0
C      1  0.4866760000000  0.5280600000000  0.4208000000000 1.0
C      1  0.4702420000000  0.5021010000000  0.4229380000000 1.0
C      1  0.4833820000000  0.4750750000000  0.4314720000000 1.0
C      1  0.5120700000000  0.4740230000000  0.4221050000000 1.0
C      1  0.5288390000000  0.4986380000000  0.4230580000000 1.0
C      1  0.5158630000000  0.5255490000000  0.5694340000000 1.0
C      1  0.4869700000000  0.5264730000000  0.5783980000000 1.0
C      1  0.4705970000000  0.5013820000000  0.5711540000000 1.0
C      1  0.4824840000000  0.4756260000000  0.5777230000000 1.0
C      1  0.5130590000000  0.4744670000000  0.5754620000000 1.0
C      1  0.5294860000000  0.4990440000000  0.5756330000000 1.0
C      1  0.4981660000000  0.4486600000000  0.5098920000000 1.0
C      1  0.5306630000000  0.4761660000000  0.5173700000000 1.0
C      1  0.5444140000000  0.5183350000000  0.5109670000000 1.0
C      1  0.5107240000000  0.5468780000000  0.5232720000000 1.0
C      1  0.4660140000000  0.5264700000000  0.5153240000000 1.0
C      1  0.4593150000000  0.4813890000000  0.5137650000000 1.0
C      1  0.4926580000000  0.4507020000000  0.4816400000000 1.0
C      1  0.5353580000000  0.4714670000000  0.4848890000000 1.0
C      1  0.5442360000000  0.5143470000000  0.4846400000000 1.0
C      1  0.5054400000000  0.5369630000000  0.4974090000000 1.0
C      1  0.4614640000000  0.5300670000000  0.4866580000000 1.0
C      1  0.4563240000000  0.4835920000000  0.4859720000000 1.0
C      1  0.5161050000000  0.4251320000000  0.4466360000000 1.0
C      1  0.5703800000000  0.4697970000000  0.4313530000000 1.0
C      1  0.5614360000000  0.5454290000000  0.4374580000000 1.0
C      1  0.4929760000000  0.5778910000000  0.4300650000000 1.0
C      1  0.4287850000000  0.5250000000000  0.4472070000000 1.0
C      1  0.4356630000000  0.4563970000000  0.4289850000000 1.0
C      1  0.5166670000000  0.4278790000000  0.5538500000000 1.0
C      1  0.5713200000000  0.4751310000000  0.5528850000000 1.0
C      1  0.5622350000000  0.5449430000000  0.5673700000000 1.0
C      1  0.4863440000000  0.5764120000000  0.5537000000000 1.0
C      1  0.4301680000000  0.5306950000000  0.5656250000000 1.0
C      1  0.4381390000000  0.4545160000000  0.5654820000000 1.0
C      1  0.5331990000000  0.5552080000000  0.4340210000000 1.0
C      1  0.4739700000000  0.5553280000000  0.4288410000000 1.0
C      1  0.4377840000000  0.5015940000000  0.4339910000000 1.0
C      1  0.4638570000000  0.4510120000000  0.4296780000000 1.0
C      1  0.5305330000000  0.4462540000000  0.4336910000000 1.0
C      1  0.5614730000000  0.4973120000000  0.4317850000000 1.0
C      1  0.5342480000000  0.5531680000000  0.5691810000000 1.0
C      1  0.4708090000000  0.5542450000000  0.5675550000000 1.0
C      1  0.4374230000000  0.5029030000000  0.5682040000000 1.0
C      1  0.4667140000000  0.4511720000000  0.5693490000000 1.0
C      1  0.5302410000000  0.4480280000000  0.5677620000000 1.0
C      1  0.5617350000000  0.4988230000000  0.5643870000000 1.0
C      1  0.5021880000000  0.5090740000000  0.4973820000000 1.0
END
