TITL C-2441157-2117-1309 0.0403234486525153 125000 -20559.9647422913 0 0 145 (C1) n - 1
REM
REM in /home/bkarasulu/work/CARBON/AIRSS/Generating-Clusters/ReaxFF-fromJPCA2015/Units_Real/with-SteepDescent/Higher-Symm
REM
REM
REM
REM
REM
REM ./C.cell (1df0a924f5614ab8850e4351716899ee)
REM
REM compiler GCC version 9.2.1 20190827 (Red Hat 9.2.1-1)
REM options -cpp -mtune=generic -march=x86-64 -g -O0 -fpre-include=/usr/include/finclude/math-vector-fortran.h
REM seed 1344420374 12236422 1319198215 -455001726 -2142454015 -774004007 563065011 -1788133191 870220 1886749498 911361024 1157719073 -1356657032 282780558 1198561863 1337798787 -870648423 1139373912 -461854500 844599680 1492508396 -31203991 -258107650 515539679 -732673196 -853679049 -1284391911 743566319 -1432675463 2024447913 -1230885729 -1359126245 1376714465
REM
CELL 1.54180   50.00000   50.00000   50.00000   90.00000   90.00000   90.00000
LATT -1
SFAC C  
C      1  0.5729210000000  0.4378370000000  0.5376600000000 1.0
C      1  0.5633480000000  0.4296620000000  0.4545350000000 1.0
C      1  0.4981290000000  0.4343900000000  0.4282690000000 1.0
C      1  0.4353420000000  0.4372380000000  0.4651960000000 1.0
C      1  0.4321010000000  0.4429440000000  0.5365690000000 1.0
C      1  0.5066790000000  0.4338030000000  0.5811040000000 1.0
C      1  0.5718360000000  0.5638080000000  0.5364000000000 1.0
C      1  0.5683410000000  0.5643050000000  0.4570850000000 1.0
C      1  0.4942190000000  0.5641860000000  0.4209040000000 1.0
C      1  0.4263600000000  0.5635770000000  0.4617170000000 1.0
C      1  0.4321530000000  0.5630960000000  0.5448680000000 1.0
C      1  0.5037680000000  0.5635210000000  0.5788770000000 1.0
C      1  0.4514010000000  0.5821160000000  0.5417500000000 1.0
C      1  0.5051180000000  0.5853590000000  0.5603230000000 1.0
C      1  0.5537520000000  0.5841310000000  0.5260590000000 1.0
C      1  0.5503830000000  0.5841570000000  0.4663500000000 1.0
C      1  0.4913870000000  0.5851750000000  0.4391440000000 1.0
C      1  0.4432780000000  0.5853440000000  0.4717870000000 1.0
C      1  0.4460950000000  0.4186830000000  0.5312720000000 1.0
C      1  0.5159330000000  0.4157180000000  0.5622040000000 1.0
C      1  0.5581220000000  0.4157230000000  0.5266650000000 1.0
C      1  0.5479430000000  0.4073620000000  0.4650430000000 1.0
C      1  0.4951790000000  0.4096130000000  0.4419610000000 1.0
C      1  0.4465440000000  0.4128650000000  0.4732130000000 1.0
C      1  0.4269310000000  0.5175780000000  0.5213970000000 1.0
C      1  0.4822330000000  0.5191910000000  0.5727610000000 1.0
C      1  0.5545020000000  0.5207870000000  0.5513600000000 1.0
C      1  0.5713610000000  0.5202890000000  0.4788940000000 1.0
C      1  0.5181250000000  0.5177860000000  0.4240550000000 1.0
C      1  0.4438950000000  0.5193000000000  0.4509740000000 1.0
C      1  0.4262190000000  0.4842170000000  0.5195590000000 1.0
C      1  0.4813700000000  0.4755150000000  0.5749790000000 1.0
C      1  0.5548900000000  0.4796200000000  0.5527380000000 1.0
C      1  0.5757330000000  0.4763740000000  0.4773080000000 1.0
C      1  0.5150510000000  0.4753240000000  0.4231930000000 1.0
C      1  0.4408730000000  0.4766390000000  0.4491970000000 1.0
C      1  0.4390570000000  0.4604160000000  0.5587610000000 1.0
C      1  0.5267430000000  0.4579180000000  0.5855110000000 1.0
C      1  0.5852000000000  0.4600920000000  0.5218180000000 1.0
C      1  0.5598260000000  0.4662010000000  0.4316580000000 1.0
C      1  0.4636620000000  0.4644100000000  0.4136900000000 1.0
C      1  0.4076730000000  0.4619980000000  0.4836880000000 1.0
C      1  0.4390420000000  0.5419030000000  0.5664060000000 1.0
C      1  0.5263330000000  0.5419520000000  0.5841670000000 1.0
C      1  0.5865560000000  0.5421610000000  0.5205840000000 1.0
C      1  0.5601800000000  0.5440550000000  0.4360700000000 1.0
C      1  0.4734080000000  0.5431670000000  0.4151070000000 1.0
C      1  0.4130450000000  0.5431960000000  0.4802000000000 1.0
C      1  0.5110160000000  0.5641490000000  0.4734420000000 1.0
C      1  0.4845260000000  0.5726230000000  0.4796540000000 1.0
C      1  0.4714800000000  0.5662280000000  0.5042060000000 1.0
C      1  0.4871720000000  0.5789470000000  0.5229460000000 1.0
C      1  0.5136480000000  0.5771610000000  0.5210790000000 1.0
C      1  0.5257470000000  0.5727310000000  0.4966090000000 1.0
C      1  0.5110670000000  0.4248350000000  0.4764250000000 1.0
C      1  0.4834230000000  0.4315710000000  0.4784390000000 1.0
C      1  0.4740790000000  0.4209310000000  0.5024790000000 1.0
C      1  0.4880430000000  0.4226440000000  0.5253720000000 1.0
C      1  0.5157510000000  0.4256710000000  0.5223420000000 1.0
C      1  0.5287390000000  0.4343260000000  0.4969110000000 1.0
C      1  0.4293900000000  0.5366150000000  0.5009220000000 1.0
C      1  0.4659390000000  0.5385260000000  0.5623900000000 1.0
C      1  0.5418660000000  0.5405890000000  0.5635530000000 1.0
C      1  0.5706820000000  0.5385270000000  0.4986230000000 1.0
C      1  0.5345400000000  0.5383870000000  0.4286090000000 1.0
C      1  0.4616540000000  0.5359810000000  0.4390700000000 1.0
C      1  0.4301040000000  0.4500170000000  0.4878640000000 1.0
C      1  0.4635200000000  0.4553250000000  0.5720740000000 1.0
C      1  0.5413120000000  0.4591520000000  0.5641850000000 1.0
C      1  0.5835130000000  0.4560450000000  0.4942370000000 1.0
C      1  0.5468170000000  0.4482150000000  0.4390890000000 1.0
C      1  0.4786370000000  0.4547090000000  0.4347550000000 1.0
C      1  0.5013700000000  0.5269500000000  0.5269860000000 1.0
C      1  0.5239570000000  0.5260390000000  0.5107480000000 1.0
C      1  0.5242330000000  0.5264490000000  0.4831290000000 1.0
C      1  0.5002700000000  0.5303800000000  0.4691420000000 1.0
C      1  0.4778050000000  0.5210980000000  0.4883490000000 1.0
C      1  0.4755440000000  0.5335010000000  0.5155600000000 1.0
C      1  0.4991670000000  0.4729290000000  0.5268100000000 1.0
C      1  0.5234190000000  0.4755250000000  0.5142540000000 1.0
C      1  0.5269640000000  0.4671320000000  0.4886380000000 1.0
C      1  0.5010360000000  0.4763770000000  0.4769050000000 1.0
C      1  0.4745180000000  0.4656700000000  0.4864850000000 1.0
C      1  0.4740950000000  0.4709080000000  0.5146890000000 1.0
C      1  0.5197210000000  0.5148940000000  0.5970330000000 1.0
C      1  0.5946510000000  0.5162580000000  0.5327820000000 1.0
C      1  0.5763030000000  0.5192660000000  0.4337670000000 1.0
C      1  0.4782720000000  0.5179950000000  0.4004220000000 1.0
C      1  0.4023080000000  0.5180880000000  0.4685630000000 1.0
C      1  0.4237660000000  0.5161740000000  0.5676480000000 1.0
C      1  0.5202440000000  0.4851780000000  0.5979690000000 1.0
C      1  0.5944890000000  0.4857420000000  0.5324020000000 1.0
C      1  0.5762880000000  0.4888090000000  0.4301240000000 1.0
C      1  0.4742550000000  0.4884310000000  0.4011300000000 1.0
C      1  0.4018220000000  0.4885340000000  0.4711070000000 1.0
C      1  0.4249110000000  0.4856390000000  0.5651500000000 1.0
C      1  0.5491000000000  0.5880350000000  0.4957720000000 1.0
C      1  0.5241850000000  0.5810580000000  0.4513230000000 1.0
C      1  0.4717610000000  0.5881800000000  0.4607460000000 1.0
C      1  0.4453510000000  0.5802790000000  0.5005500000000 1.0
C      1  0.4779580000000  0.5920080000000  0.5457830000000 1.0
C      1  0.5283780000000  0.5896110000000  0.5417590000000 1.0
C      1  0.5551910000000  0.4173790000000  0.4963560000000 1.0
C      1  0.5197630000000  0.4041700000000  0.4591000000000 1.0
C      1  0.4726960000000  0.4103270000000  0.4601670000000 1.0
C      1  0.4489610000000  0.4094910000000  0.5030280000000 1.0
C      1  0.4707000000000  0.4167510000000  0.5471130000000 1.0
C      1  0.5318450000000  0.4085780000000  0.5394120000000 1.0
C      1  0.4908470000000  0.5141710000000  0.5993340000000 1.0
C      1  0.5823050000000  0.5152550000000  0.5588730000000 1.0
C      1  0.5917590000000  0.5160760000000  0.4580210000000 1.0
C      1  0.5070040000000  0.5136670000000  0.3981180000000 1.0
C      1  0.4165550000000  0.5153290000000  0.4432150000000 1.0
C      1  0.4065240000000  0.5170240000000  0.5446080000000 1.0
C      1  0.4912690000000  0.4847470000000  0.6007340000000 1.0
C      1  0.5829110000000  0.4862950000000  0.5589360000000 1.0
C      1  0.5919190000000  0.4867790000000  0.4551750000000 1.0
C      1  0.5033220000000  0.4846300000000  0.3982290000000 1.0
C      1  0.4141150000000  0.4863650000000  0.4448140000000 1.0
C      1  0.4069970000000  0.4880220000000  0.5424870000000 1.0
C      1  0.5453750000000  0.4876250000000  0.5270450000000 1.0
C      1  0.5480830000000  0.4823980000000  0.4760100000000 1.0
C      1  0.4988140000000  0.4841660000000  0.4458780000000 1.0
C      1  0.4543880000000  0.4835610000000  0.4730930000000 1.0
C      1  0.4546080000000  0.4885850000000  0.5254350000000 1.0
C      1  0.4979730000000  0.4842960000000  0.5534900000000 1.0
C      1  0.5482050000000  0.5159510000000  0.5232070000000 1.0
C      1  0.5454010000000  0.5104390000000  0.4725040000000 1.0
C      1  0.5003420000000  0.5131320000000  0.4453800000000 1.0
C      1  0.4509350000000  0.5121070000000  0.4777000000000 1.0
C      1  0.4559070000000  0.5171360000000  0.5308930000000 1.0
C      1  0.5010500000000  0.5128150000000  0.5522950000000 1.0
C      1  0.4768060000000  0.5586980000000  0.5740660000000 1.0
C      1  0.5555480000000  0.5598220000000  0.5593670000000 1.0
C      1  0.5849890000000  0.5597390000000  0.4827140000000 1.0
C      1  0.5247120000000  0.5639270000000  0.4267110000000 1.0
C      1  0.4450030000000  0.5581350000000  0.4414590000000 1.0
C      1  0.4269030000000  0.5622140000000  0.5146290000000 1.0
C      1  0.4784340000000  0.4309980000000  0.5716620000000 1.0
C      1  0.5552890000000  0.4401390000000  0.5598270000000 1.0
C      1  0.5751220000000  0.4326280000000  0.4823950000000 1.0
C      1  0.5240390000000  0.4476640000000  0.4227370000000 1.0
C      1  0.4487400000000  0.4535460000000  0.4373920000000 1.0
C      1  0.4155710000000  0.4537300000000  0.5134440000000 1.0
C      1  0.4969940000000  0.4990720000000  0.4950910000000 1.0
END
