TITL C-2441154-10-214 0.109800423762847 125000 -12118.3036559364 0 0 97 (C1) n - 1
REM
REM in /home/bkarasulu/work/CARBON/AIRSS/Generating-Clusters/ReaxFF-fromJPCA2015/Units_Real/with-SteepDescent/Higher-Symm
REM
REM
REM
REM
REM
REM ./C.cell (1df0a924f5614ab8850e4351716899ee)
REM
REM compiler GCC version 9.2.1 20190827 (Red Hat 9.2.1-1)
REM options -cpp -mtune=generic -march=x86-64 -g -O0 -fpre-include=/usr/include/finclude/math-vector-fortran.h
REM seed -2050966509 451553390 1266054462 1597747259 -823183841 -748468127 14272251 1027818109 1788285604 -1859441154 -475302389 -114466017 -1584667959 -1710593466 300764338 685520155 1450119870 708188484 1605560025 -1395381427 1480985665 589687816 1956026019 1500280256 1667667477 -1904243218 451639276 -1208190459 773299088 -1466384641 -1438622356 1956742685 1818371563
REM
CELL 1.54180   50.00000   50.00000   50.00000   90.00000   90.00000   90.00000
LATT -1
SFAC C  
C      1  0.5638720000000  0.5361450000000  0.5380000000000 1.0
C      1  0.5357740000000  0.5654140000000  0.4616240000000 1.0
C      1  0.4993660000000  0.5756500000000  0.5367080000000 1.0
C      1  0.4610120000000  0.5645820000000  0.4623970000000 1.0
C      1  0.4337760000000  0.5373350000000  0.5382940000000 1.0
C      1  0.4241910000000  0.4983790000000  0.4612610000000 1.0
C      1  0.4358530000000  0.4614970000000  0.5366180000000 1.0
C      1  0.4636020000000  0.4359500000000  0.4615280000000 1.0
C      1  0.5019350000000  0.4263950000000  0.5376890000000 1.0
C      1  0.5385720000000  0.4346750000000  0.4626810000000 1.0
C      1  0.5666630000000  0.4624350000000  0.5381300000000 1.0
C      1  0.5734740000000  0.5018560000000  0.4612250000000 1.0
C      1  0.5500460000000  0.4375030000000  0.5394820000000 1.0
C      1  0.5753730000000  0.4717420000000  0.4616050000000 1.0
C      1  0.5801710000000  0.5109700000000  0.5378520000000 1.0
C      1  0.5615560000000  0.5504410000000  0.4608560000000 1.0
C      1  0.5290080000000  0.5726130000000  0.5391610000000 1.0
C      1  0.4866840000000  0.5798690000000  0.4603730000000 1.0
C      1  0.4492230000000  0.5639790000000  0.5389850000000 1.0
C      1  0.4253370000000  0.5287640000000  0.4599230000000 1.0
C      1  0.4222720000000  0.4881630000000  0.5389270000000 1.0
C      1  0.4371300000000  0.4499950000000  0.4605180000000 1.0
C      1  0.4725730000000  0.4243730000000  0.5370160000000 1.0
C      1  0.5122540000000  0.4212820000000  0.4605930000000 1.0
C      1  0.4865340000000  0.5267880000000  0.5238970000000 1.0
C      1  0.4753790000000  0.5146600000000  0.4691960000000 1.0
C      1  0.4720100000000  0.5032480000000  0.5300650000000 1.0
C      1  0.4748740000000  0.4874650000000  0.4676290000000 1.0
C      1  0.4859950000000  0.4801910000000  0.5206100000000 1.0
C      1  0.4980660000000  0.4750740000000  0.4796030000000 1.0
C      1  0.5116650000000  0.4764130000000  0.5327710000000 1.0
C      1  0.5229130000000  0.4859140000000  0.4690820000000 1.0
C      1  0.5293990000000  0.4969800000000  0.5255010000000 1.0
C      1  0.5218070000000  0.5134890000000  0.4691120000000 1.0
C      1  0.5164180000000  0.5245030000000  0.5218620000000 1.0
C      1  0.4987560000000  0.5229780000000  0.4845460000000 1.0
C      1  0.5611240000000  0.5561800000000  0.4912930000000 1.0
C      1  0.5313110000000  0.5757460000000  0.5092170000000 1.0
C      1  0.4851640000000  0.5824120000000  0.4894800000000 1.0
C      1  0.4446990000000  0.5644060000000  0.5102490000000 1.0
C      1  0.4214160000000  0.5274810000000  0.4890010000000 1.0
C      1  0.4169340000000  0.4851970000000  0.5098800000000 1.0
C      1  0.4351770000000  0.4445830000000  0.4892290000000 1.0
C      1  0.4760930000000  0.4205720000000  0.5079040000000 1.0
C      1  0.5116240000000  0.4184160000000  0.4904210000000 1.0
C      1  0.5538260000000  0.4359590000000  0.5102060000000 1.0
C      1  0.5793420000000  0.4760310000000  0.4913620000000 1.0
C      1  0.5816630000000  0.5123090000000  0.5079330000000 1.0
C      1  0.5316830000000  0.4913660000000  0.4235170000000 1.0
C      1  0.5323570000000  0.5110810000000  0.5790720000000 1.0
C      1  0.5169580000000  0.5287820000000  0.4202120000000 1.0
C      1  0.5002910000000  0.5352340000000  0.5767100000000 1.0
C      1  0.4881400000000  0.5330420000000  0.4196850000000 1.0
C      1  0.4744810000000  0.5230560000000  0.5767210000000 1.0
C      1  0.4620160000000  0.5040640000000  0.4241580000000 1.0
C      1  0.4692670000000  0.4832440000000  0.5781730000000 1.0
C      1  0.4824840000000  0.4713190000000  0.4186490000000 1.0
C      1  0.4928550000000  0.4666250000000  0.5792920000000 1.0
C      1  0.5110170000000  0.4711550000000  0.4157750000000 1.0
C      1  0.5300120000000  0.4826770000000  0.5779720000000 1.0
C      1  0.4602190000000  0.4330940000000  0.4886780000000 1.0
C      1  0.5002320000000  0.4303510000000  0.5100890000000 1.0
C      1  0.5349630000000  0.4337990000000  0.4906840000000 1.0
C      1  0.5660420000000  0.4606530000000  0.5108420000000 1.0
C      1  0.5701240000000  0.5003120000000  0.4888330000000 1.0
C      1  0.5668550000000  0.5366450000000  0.5099550000000 1.0
C      1  0.5355860000000  0.5608030000000  0.4892570000000 1.0
C      1  0.5031940000000  0.5759310000000  0.5090200000000 1.0
C      1  0.4633520000000  0.5663800000000  0.4898600000000 1.0
C      1  0.4333520000000  0.5397680000000  0.5101040000000 1.0
C      1  0.4240980000000  0.5009630000000  0.4891080000000 1.0
C      1  0.4319660000000  0.4626810000000  0.5098760000000 1.0
C      1  0.5553780000000  0.4544460000000  0.4496750000000 1.0
C      1  0.5706560000000  0.4873750000000  0.5513390000000 1.0
C      1  0.5632590000000  0.5256400000000  0.4479180000000 1.0
C      1  0.5420170000000  0.5498580000000  0.5515550000000 1.0
C      1  0.5112030000000  0.5698370000000  0.4478400000000 1.0
C      1  0.4749130000000  0.5687370000000  0.5503380000000 1.0
C      1  0.4452400000000  0.5451640000000  0.4479590000000 1.0
C      1  0.4318290000000  0.5118860000000  0.5517640000000 1.0
C      1  0.4334230000000  0.4748730000000  0.4472040000000 1.0
C      1  0.4553410000000  0.4441650000000  0.5490900000000 1.0
C      1  0.4892630000000  0.4329110000000  0.4478400000000 1.0
C      1  0.5245870000000  0.4355060000000  0.5525890000000 1.0
C      1  0.4620490000000  0.4813540000000  0.4378220000000 1.0
C      1  0.4713840000000  0.4613610000000  0.5633050000000 1.0
C      1  0.4968040000000  0.4563180000000  0.4351030000000 1.0
C      1  0.5158860000000  0.4638700000000  0.5611980000000 1.0
C      1  0.5362110000000  0.4749670000000  0.4460460000000 1.0
C      1  0.5441120000000  0.4962360000000  0.5566380000000 1.0
C      1  0.5343030000000  0.5167660000000  0.4394510000000 1.0
C      1  0.5247770000000  0.5330010000000  0.5668670000000 1.0
C      1  0.5044660000000  0.5460170000000  0.4367790000000 1.0
C      1  0.4816550000000  0.5405960000000  0.5548320000000 1.0
C      1  0.4667200000000  0.5254210000000  0.4390320000000 1.0
C      1  0.4609280000000  0.5040590000000  0.5600870000000 1.0
C      1  0.5002360000000  0.4950940000000  0.4998320000000 1.0
END
