TITL C-2441161-5029-797 0.00233914206269349 125000 -4434.14742507392 0 0 34 (C1) n - 1
REM
REM in /home/bkarasulu/work/CARBON/AIRSS/Generating-Clusters/ReaxFF-fromJPCA2015/Units_Real/with-SteepDescent/Higher-Symm
REM
REM
REM
REM
REM
REM ./C.cell (1df0a924f5614ab8850e4351716899ee)
REM
REM compiler GCC version 9.2.1 20190827 (Red Hat 9.2.1-1)
REM options -cpp -mtune=generic -march=x86-64 -g -O0 -fpre-include=/usr/include/finclude/math-vector-fortran.h
REM seed 456839840 1573387489 -857621519 785772615 2131515637 200194363 1225890615 -1331401940 -2051554219 -629724914 1108211454 -2142983476 2069736143 1525885869 1548778942 -38119917 -812540575 -1754089267 -230107591 -779446704 1115939439 552309961 2130186121 716699833 1432556361 1865651975 1536058886 2031404365 1363540079 -1153795141 1067423771 -795590851 -620205067
REM
CELL 1.54180   50.00000   50.00000   50.00000   90.00000   90.00000   90.00000
LATT -1
SFAC C  
C      1  0.5532710000000  0.4787450000000  0.5472440000000 1.0
C      1  0.5021280000000  0.4656580000000  0.5684790000000 1.0
C      1  0.4552130000000  0.4603470000000  0.5527570000000 1.0
C      1  0.4434970000000  0.4729050000000  0.4951460000000 1.0
C      1  0.4669930000000  0.4754630000000  0.4426800000000 1.0
C      1  0.5269320000000  0.4715690000000  0.4366700000000 1.0
C      1  0.5614870000000  0.4678270000000  0.4903980000000 1.0
C      1  0.5160600000000  0.5145090000000  0.5335520000000 1.0
C      1  0.4902780000000  0.5280410000000  0.5367450000000 1.0
C      1  0.4639140000000  0.5241010000000  0.5191400000000 1.0
C      1  0.4611540000000  0.5320620000000  0.4885730000000 1.0
C      1  0.4730770000000  0.5210210000000  0.4640970000000 1.0
C      1  0.5319210000000  0.5153870000000  0.4580710000000 1.0
C      1  0.5467970000000  0.5124110000000  0.4832130000000 1.0
C      1  0.5368270000000  0.5385980000000  0.4927630000000 1.0
C      1  0.5281250000000  0.5384480000000  0.5220860000000 1.0
C      1  0.5034780000000  0.5535970000000  0.5285600000000 1.0
C      1  0.4487820000000  0.5306150000000  0.5387410000000 1.0
C      1  0.4755890000000  0.5572260000000  0.4842580000000 1.0
C      1  0.4907270000000  0.5444610000000  0.4623100000000 1.0
C      1  0.5205970000000  0.5412530000000  0.4666370000000 1.0
C      1  0.4732900000000  0.4700520000000  0.5373540000000 1.0
C      1  0.4654240000000  0.4774360000000  0.5061950000000 1.0
C      1  0.4824890000000  0.4943960000000  0.4501510000000 1.0
C      1  0.5156530000000  0.4927670000000  0.4454750000000 1.0
C      1  0.5481380000000  0.4869600000000  0.4995110000000 1.0
C      1  0.5333500000000  0.4847390000000  0.5308710000000 1.0
C      1  0.5031380000000  0.4761760000000  0.5461700000000 1.0
C      1  0.5202010000000  0.5745650000000  0.4885910000000 1.0
C      1  0.5005420000000  0.4586750000000  0.4924800000000 1.0
C      1  0.5093280000000  0.4097740000000  0.4975380000000 1.0
C      1  0.4932820000000  0.4861680000000  0.4906430000000 1.0
C      1  0.5054290000000  0.4336330000000  0.4949010000000 1.0
C      1  0.4965440000000  0.5692410000000  0.5034560000000 1.0
END
