TITL C-2441168-9922-652 0.0751336380064416 125000 -19488.0183826235 0 0 141 (C1) n - 1
REM
REM in /home/bkarasulu/work/CARBON/AIRSS/Generating-Clusters/ReaxFF-fromJPCA2015/Units_Real/with-SteepDescent/Higher-Symm
REM
REM
REM
REM
REM
REM ./C.cell (1df0a924f5614ab8850e4351716899ee)
REM
REM compiler GCC version 9.2.1 20190827 (Red Hat 9.2.1-1)
REM options -cpp -mtune=generic -march=x86-64 -g -O0 -fpre-include=/usr/include/finclude/math-vector-fortran.h
REM seed -187083242 -669304675 -1258880540 548031667 1985297506 -548180843 2056287048 1426103032 1987867964 -1823834926 -1234364993 564970052 -532812701 -652435233 -1631142302 -473351406 47504242 1441934871 -184513688 391158069 -1414438301 -796150811 -1564209256 231402429 -1729351029 -130986676 1843001340 -844721454 853634425 -1006701801 570550656 -1244519876 985762505
REM
CELL 1.54180   50.00000   50.00000   50.00000   90.00000   90.00000   90.00000
LATT -1
SFAC C  
C      1  0.4663990000000  0.5416540000000  0.4168160000000 1.0
C      1  0.5318070000000  0.4571770000000  0.4197290000000 1.0
C      1  0.4675480000000  0.5434050000000  0.5806490000000 1.0
C      1  0.5344470000000  0.4555330000000  0.5859400000000 1.0
C      1  0.5336500000000  0.4137720000000  0.4467230000000 1.0
C      1  0.4702390000000  0.5785470000000  0.4485630000000 1.0
C      1  0.5301920000000  0.4218120000000  0.5528940000000 1.0
C      1  0.4691270000000  0.5805410000000  0.5520570000000 1.0
C      1  0.4781970000000  0.5299680000000  0.5317520000000 1.0
C      1  0.5234260000000  0.4662110000000  0.5370740000000 1.0
C      1  0.4788380000000  0.5306720000000  0.4652850000000 1.0
C      1  0.5105210000000  0.4728430000000  0.4692690000000 1.0
C      1  0.5578160000000  0.5543320000000  0.4409380000000 1.0
C      1  0.4409750000000  0.4463340000000  0.4392580000000 1.0
C      1  0.5587900000000  0.5549890000000  0.5609590000000 1.0
C      1  0.4430050000000  0.4478520000000  0.5596380000000 1.0
C      1  0.4301920000000  0.5537800000000  0.5255140000000 1.0
C      1  0.5707460000000  0.4458940000000  0.5284270000000 1.0
C      1  0.4326910000000  0.5503470000000  0.4760970000000 1.0
C      1  0.5635090000000  0.4516490000000  0.4749350000000 1.0
C      1  0.5167090000000  0.4082350000000  0.5305780000000 1.0
C      1  0.4829840000000  0.5935740000000  0.5296000000000 1.0
C      1  0.5180470000000  0.4030310000000  0.4694270000000 1.0
C      1  0.4830190000000  0.5928550000000  0.4713520000000 1.0
C      1  0.4182460000000  0.4921270000000  0.4422030000000 1.0
C      1  0.5815030000000  0.5101120000000  0.4412700000000 1.0
C      1  0.4170060000000  0.4968560000000  0.5588230000000 1.0
C      1  0.5817770000000  0.5073930000000  0.5577380000000 1.0
C      1  0.5090920000000  0.5946080000000  0.4852570000000 1.0
C      1  0.4928480000000  0.4068660000000  0.4846320000000 1.0
C      1  0.5094100000000  0.5952600000000  0.5154430000000 1.0
C      1  0.4921500000000  0.4079050000000  0.5153980000000 1.0
C      1  0.4363840000000  0.4498660000000  0.4673350000000 1.0
C      1  0.5639210000000  0.5504890000000  0.4675610000000 1.0
C      1  0.4381390000000  0.4490120000000  0.5319840000000 1.0
C      1  0.5625850000000  0.5496070000000  0.5326370000000 1.0
C      1  0.4416260000000  0.4997810000000  0.5152560000000 1.0
C      1  0.5545260000000  0.5020250000000  0.5152080000000 1.0
C      1  0.4436850000000  0.4996330000000  0.4859010000000 1.0
C      1  0.5567480000000  0.4992690000000  0.4864610000000 1.0
C      1  0.5124320000000  0.5578220000000  0.5740200000000 1.0
C      1  0.4897000000000  0.4460570000000  0.5743430000000 1.0
C      1  0.5121990000000  0.5575750000000  0.4243860000000 1.0
C      1  0.4856590000000  0.4419200000000  0.4239870000000 1.0
C      1  0.4838760000000  0.5656890000000  0.5720520000000 1.0
C      1  0.5177540000000  0.4338940000000  0.5755020000000 1.0
C      1  0.4838210000000  0.5636440000000  0.4275680000000 1.0
C      1  0.5151790000000  0.4378600000000  0.4354690000000 1.0
C      1  0.4518770000000  0.4338540000000  0.5136820000000 1.0
C      1  0.5496750000000  0.5673380000000  0.5138910000000 1.0
C      1  0.4519170000000  0.4341470000000  0.4854900000000 1.0
C      1  0.5488870000000  0.5657690000000  0.4858680000000 1.0
C      1  0.5621770000000  0.4877020000000  0.4434560000000 1.0
C      1  0.4403710000000  0.5123510000000  0.4422110000000 1.0
C      1  0.5603950000000  0.4871070000000  0.5587990000000 1.0
C      1  0.4403850000000  0.5130900000000  0.5589810000000 1.0
C      1  0.4967280000000  0.5501860000000  0.5260940000000 1.0
C      1  0.5083880000000  0.4501010000000  0.5201220000000 1.0
C      1  0.4953580000000  0.5492070000000  0.4774860000000 1.0
C      1  0.5148690000000  0.4455990000000  0.4641120000000 1.0
C      1  0.5403840000000  0.4748320000000  0.4862700000000 1.0
C      1  0.4568710000000  0.5273930000000  0.4850050000000 1.0
C      1  0.5365610000000  0.4796570000000  0.5158450000000 1.0
C      1  0.4576930000000  0.5235520000000  0.5142270000000 1.0
C      1  0.5214300000000  0.4816460000000  0.5839010000000 1.0
C      1  0.4798730000000  0.5164500000000  0.5817230000000 1.0
C      1  0.5200390000000  0.4834860000000  0.4188090000000 1.0
C      1  0.4729540000000  0.5153470000000  0.4072600000000 1.0
C      1  0.4342100000000  0.4724980000000  0.4273840000000 1.0
C      1  0.5670940000000  0.5306100000000  0.4262190000000 1.0
C      1  0.4204580000000  0.4687300000000  0.5621940000000 1.0
C      1  0.5675660000000  0.5289030000000  0.5724840000000 1.0
C      1  0.5420740000000  0.5180060000000  0.4175180000000 1.0
C      1  0.4599030000000  0.4850920000000  0.4165440000000 1.0
C      1  0.5418670000000  0.5168970000000  0.5829250000000 1.0
C      1  0.4645040000000  0.4887120000000  0.5855260000000 1.0
C      1  0.4115420000000  0.5310870000000  0.4869280000000 1.0
C      1  0.5862420000000  0.4670360000000  0.4872390000000 1.0
C      1  0.4125600000000  0.5327520000000  0.5147450000000 1.0
C      1  0.5851310000000  0.4677730000000  0.5158590000000 1.0
C      1  0.5144430000000  0.5293930000000  0.4896860000000 1.0
C      1  0.4844550000000  0.4674650000000  0.4845490000000 1.0
C      1  0.5202470000000  0.5366920000000  0.5178970000000 1.0
C      1  0.4864950000000  0.4666100000000  0.5135230000000 1.0
C      1  0.4715330000000  0.4204720000000  0.4700360000000 1.0
C      1  0.5287140000000  0.5787810000000  0.4703410000000 1.0
C      1  0.4713760000000  0.4217150000000  0.5302590000000 1.0
C      1  0.5305170000000  0.5813620000000  0.5299770000000 1.0
C      1  0.4346460000000  0.5767050000000  0.4879640000000 1.0
C      1  0.5593020000000  0.4256520000000  0.4864550000000 1.0
C      1  0.4340770000000  0.5773870000000  0.5116090000000 1.0
C      1  0.5573500000000  0.4258970000000  0.5135530000000 1.0
C      1  0.4051170000000  0.4803780000000  0.5150170000000 1.0
C      1  0.5983700000000  0.5209940000000  0.5146880000000 1.0
C      1  0.4033910000000  0.4810800000000  0.4861880000000 1.0
C      1  0.5981940000000  0.5205170000000  0.4856320000000 1.0
C      1  0.5271710000000  0.4283370000000  0.5118730000000 1.0
C      1  0.4790530000000  0.5691410000000  0.5143680000000 1.0
C      1  0.5294820000000  0.4276250000000  0.4830210000000 1.0
C      1  0.4781310000000  0.5690200000000  0.4876020000000 1.0
C      1  0.5227480000000  0.5185650000000  0.4633900000000 1.0
C      1  0.4661290000000  0.4863520000000  0.4728530000000 1.0
C      1  0.5210160000000  0.5137870000000  0.5351200000000 1.0
C      1  0.4829870000000  0.4850660000000  0.5419410000000 1.0
C      1  0.5028120000000  0.4873490000000  0.4430070000000 1.0
C      1  0.4984750000000  0.5151000000000  0.4505660000000 1.0
C      1  0.5060920000000  0.4735000000000  0.5588370000000 1.0
C      1  0.4937690000000  0.5122140000000  0.5474590000000 1.0
C      1  0.4584520000000  0.4899820000000  0.5574720000000 1.0
C      1  0.5388360000000  0.5053930000000  0.5558170000000 1.0
C      1  0.4634630000000  0.4948240000000  0.4454920000000 1.0
C      1  0.5404010000000  0.5069570000000  0.4451850000000 1.0
C      1  0.4440230000000  0.5417050000000  0.5659890000000 1.0
C      1  0.5579890000000  0.4604850000000  0.5703080000000 1.0
C      1  0.4427230000000  0.5407440000000  0.4338110000000 1.0
C      1  0.5571190000000  0.4597500000000  0.4320750000000 1.0
C      1  0.5546510000000  0.4350350000000  0.4473540000000 1.0
C      1  0.4438960000000  0.5645880000000  0.4508700000000 1.0
C      1  0.5556270000000  0.4390630000000  0.5518440000000 1.0
C      1  0.4438330000000  0.5645000000000  0.5488410000000 1.0
C      1  0.5191830000000  0.5333940000000  0.4089490000000 1.0
C      1  0.4807060000000  0.4652460000000  0.4074760000000 1.0
C      1  0.5194120000000  0.5343750000000  0.5910450000000 1.0
C      1  0.4816700000000  0.4678290000000  0.5948830000000 1.0
C      1  0.5826240000000  0.4962860000000  0.5254190000000 1.0
C      1  0.4140160000000  0.5052180000000  0.5274780000000 1.0
C      1  0.5849900000000  0.4946710000000  0.4777080000000 1.0
C      1  0.4154320000000  0.5051410000000  0.4762970000000 1.0
C      1  0.5870800000000  0.5355490000000  0.5364520000000 1.0
C      1  0.4133940000000  0.4609370000000  0.5348250000000 1.0
C      1  0.5856270000000  0.5332280000000  0.4627400000000 1.0
C      1  0.4140960000000  0.4671620000000  0.4630710000000 1.0
C      1  0.4989940000000  0.5146680000000  0.3970990000000 1.0
C      1  0.5003140000000  0.4846400000000  0.3968800000000 1.0
C      1  0.5000080000000  0.5161740000000  0.6027970000000 1.0
C      1  0.5019270000000  0.4863960000000  0.6054140000000 1.0
C      1  0.5320740000000  0.5679870000000  0.4429630000000 1.0
C      1  0.4667380000000  0.4315120000000  0.4421700000000 1.0
C      1  0.5330110000000  0.5690350000000  0.5573140000000 1.0
C      1  0.4684560000000  0.4345550000000  0.5565090000000 1.0
C      1  0.4947870000000  0.5024070000000  0.4970570000000 1.0
END
