TITL C-2441155-8282-35 0.00290754403431153 125000 -7108.70431087267 0 0 51 (C2v) n - 1
REM
REM in /home/bkarasulu/work/CARBON/AIRSS/Generating-Clusters/ReaxFF-fromJPCA2015/Units_Real/with-SteepDescent/Higher-Symm
REM
REM
REM
REM
REM
REM ./C.cell (1df0a924f5614ab8850e4351716899ee)
REM
REM compiler GCC version 9.2.1 20190827 (Red Hat 9.2.1-1)
REM options -cpp -mtune=generic -march=x86-64 -g -O0 -fpre-include=/usr/include/finclude/math-vector-fortran.h
REM seed 1727149540 -1925807777 1680023512 1677164404 2087342126 -447048371 2079843517 -1036227928 1475386921 -1379536834 -1931511747 988300156 1735728854 2037691702 -613229026 -205993168 -846479883 951355372 -2042393729 980930109 -336098855 -824923690 1031296653 -2000742090 -887638322 246632801 554626245 -1233830285 845860700 842955270 -475298143 -2021275349 -1368965897
REM
CELL 1.54180   50.00000   50.00000   50.00000   90.00000   90.00000   90.00000
LATT -1
SFAC C  
C      1  0.5104060000000  0.5461380000000  0.4135530000000 1.0
C      1  0.4549510000000  0.4859020000000  0.4134030000000 1.0
C      1  0.5347400000000  0.4679360000000  0.4134400000000 1.0
C      1  0.5104070000000  0.5461370000000  0.5860140000000 1.0
C      1  0.4549500000000  0.4858880000000  0.5861670000000 1.0
C      1  0.5347390000000  0.4679350000000  0.5861270000000 1.0
C      1  0.5104060000000  0.4538620000000  0.4135530000000 1.0
C      1  0.4549510000000  0.5140980000000  0.4134030000000 1.0
C      1  0.5347400000000  0.5320640000000  0.4134400000000 1.0
C      1  0.5104070000000  0.4538630000000  0.5860140000000 1.0
C      1  0.4549500000000  0.5141120000000  0.5861670000000 1.0
C      1  0.5347390000000  0.5320650000000  0.5861270000000 1.0
C      1  0.4513830000000  0.4661480000000  0.4861780000000 1.0
C      1  0.5544670000000  0.4749600000000  0.4857920000000 1.0
C      1  0.4944090000000  0.5609600000000  0.4852370000000 1.0
C      1  0.4513810000000  0.4661520000000  0.5133910000000 1.0
C      1  0.5544670000000  0.4749600000000  0.5137750000000 1.0
C      1  0.4944070000000  0.5609590000000  0.5143290000000 1.0
C      1  0.4513830000000  0.5338520000000  0.4861780000000 1.0
C      1  0.5544670000000  0.5250400000000  0.4857920000000 1.0
C      1  0.4944090000000  0.4390400000000  0.4852370000000 1.0
C      1  0.4513810000000  0.5338480000000  0.5133910000000 1.0
C      1  0.5544670000000  0.5250400000000  0.5137750000000 1.0
C      1  0.4944070000000  0.4390410000000  0.5143290000000 1.0
C      1  0.4729280000000  0.4846890000000  0.4410600000000 1.0
C      1  0.5268040000000  0.4844490000000  0.4411290000000 1.0
C      1  0.5001190000000  0.5308930000000  0.4412930000000 1.0
C      1  0.4729300000000  0.4846880000000  0.5585060000000 1.0
C      1  0.5268040000000  0.4844490000000  0.5584390000000 1.0
C      1  0.5001200000000  0.5308940000000  0.5582740000000 1.0
C      1  0.4729280000000  0.5153110000000  0.4410600000000 1.0
C      1  0.5268040000000  0.5155510000000  0.4411290000000 1.0
C      1  0.5001190000000  0.4691070000000  0.4412930000000 1.0
C      1  0.4729300000000  0.5153120000000  0.5585060000000 1.0
C      1  0.5268040000000  0.5155510000000  0.5584390000000 1.0
C      1  0.5001200000000  0.4691060000000  0.5582740000000 1.0
C      1  0.4573890000000  0.4858920000000  0.5329500000000 1.0
C      1  0.5327000000000  0.4708740000000  0.5324630000000 1.0
C      1  0.5083980000000  0.5428130000000  0.5323500000000 1.0
C      1  0.4573900000000  0.4858920000000  0.4666190000000 1.0
C      1  0.5327010000000  0.4708740000000  0.4671050000000 1.0
C      1  0.5083980000000  0.5428130000000  0.4672170000000 1.0
C      1  0.4573890000000  0.5141080000000  0.5329500000000 1.0
C      1  0.5327000000000  0.5291260000000  0.5324630000000 1.0
C      1  0.5083980000000  0.4571870000000  0.5323500000000 1.0
C      1  0.4573900000000  0.5141080000000  0.4666190000000 1.0
C      1  0.5327010000000  0.5291260000000  0.4671050000000 1.0
C      1  0.5083980000000  0.4571870000000  0.4672170000000 1.0
C      1  0.5680440000000  0.5000000000000  0.4997840000000 1.0
C      1  0.4685920000000  0.5609830000000  0.4997810000000 1.0
C      1  0.4685920000000  0.4390170000000  0.4997810000000 1.0
END
