TITL C-2441164-471-320 0.00744442903681741 125000 -8320.35289459332 0 0 57 (C1) n - 1
REM
REM in /home/bkarasulu/work/CARBON/AIRSS/Generating-Clusters/ReaxFF-fromJPCA2015/Units_Real/with-SteepDescent/Higher-Symm
REM
REM
REM
REM
REM
REM ./C.cell (1df0a924f5614ab8850e4351716899ee)
REM
REM compiler GCC version 9.2.1 20190827 (Red Hat 9.2.1-1)
REM options -cpp -mtune=generic -march=x86-64 -g -O0 -fpre-include=/usr/include/finclude/math-vector-fortran.h
REM seed 269103989 -362919015 1524677570 509025300 1840834138 1089639863 689350523 1588450968 219423840 -55109211 2092730888 -795901719 1352786233 -1666231263 658106983 1047162285 1319885307 -1725720749 -1442527345 900000114 2104984707 287143068 -1236485102 -507195827 215728443 158789577 1132468272 -684308888 1445542227 1312827526 2007811327 2027284409 -1560880198
REM
CELL 1.54180   50.00000   50.00000   50.00000   90.00000   90.00000   90.00000
LATT -1
SFAC C  
C      1  0.4356070000000  0.4963490000000  0.4788080000000 1.0
C      1  0.4561520000000  0.5467580000000  0.4781970000000 1.0
C      1  0.5085710000000  0.5619330000000  0.4758200000000 1.0
C      1  0.5566970000000  0.5272160000000  0.4746730000000 1.0
C      1  0.5572750000000  0.4723970000000  0.4781650000000 1.0
C      1  0.5152600000000  0.4377640000000  0.4785530000000 1.0
C      1  0.4616750000000  0.4483360000000  0.4787370000000 1.0
C      1  0.4807700000000  0.5586160000000  0.5500200000000 1.0
C      1  0.5322890000000  0.5522410000000  0.5475360000000 1.0
C      1  0.5604090000000  0.5043630000000  0.5491200000000 1.0
C      1  0.5408430000000  0.4556210000000  0.5512680000000 1.0
C      1  0.4911280000000  0.4396100000000  0.5514360000000 1.0
C      1  0.4467660000000  0.4688070000000  0.5516120000000 1.0
C      1  0.4419730000000  0.5218220000000  0.5516070000000 1.0
C      1  0.5334440000000  0.5532150000000  0.5164220000000 1.0
C      1  0.5624040000000  0.5003040000000  0.5181330000000 1.0
C      1  0.5405360000000  0.4530960000000  0.5192520000000 1.0
C      1  0.4890420000000  0.4390040000000  0.5192790000000 1.0
C      1  0.4457070000000  0.4698520000000  0.5192310000000 1.0
C      1  0.4421350000000  0.5228010000000  0.5192110000000 1.0
C      1  0.4807470000000  0.5590130000000  0.5179100000000 1.0
C      1  0.4722130000000  0.5119210000000  0.5149660000000 1.0
C      1  0.4918010000000  0.5299840000000  0.5140200000000 1.0
C      1  0.5190190000000  0.5267710000000  0.5123380000000 1.0
C      1  0.5324910000000  0.5022590000000  0.5127660000000 1.0
C      1  0.5212870000000  0.4776580000000  0.5135870000000 1.0
C      1  0.4954890000000  0.4703510000000  0.5142310000000 1.0
C      1  0.4734460000000  0.4854460000000  0.5147550000000 1.0
C      1  0.4546980000000  0.5483320000000  0.5062160000000 1.0
C      1  0.5093420000000  0.5657240000000  0.5034230000000 1.0
C      1  0.5618170000000  0.5334520000000  0.5021070000000 1.0
C      1  0.5610470000000  0.4726080000000  0.5063340000000 1.0
C      1  0.5169840000000  0.4364740000000  0.5069240000000 1.0
C      1  0.4615050000000  0.4467520000000  0.5068110000000 1.0
C      1  0.4338530000000  0.4960110000000  0.5068800000000 1.0
C      1  0.5361400000000  0.4549470000000  0.4665570000000 1.0
C      1  0.4883390000000  0.4426390000000  0.4666750000000 1.0
C      1  0.4483370000000  0.4722180000000  0.4666820000000 1.0
C      1  0.4457570000000  0.5216010000000  0.4665470000000 1.0
C      1  0.4829010000000  0.5537650000000  0.4655870000000 1.0
C      1  0.5331300000000  0.5459010000000  0.4600260000000 1.0
C      1  0.5557700000000  0.4993440000000  0.4651750000000 1.0
C      1  0.5301130000000  0.4982680000000  0.4527570000000 1.0
C      1  0.5196020000000  0.4722890000000  0.4512340000000 1.0
C      1  0.4918140000000  0.4652900000000  0.4502080000000 1.0
C      1  0.4686380000000  0.4826390000000  0.4501720000000 1.0
C      1  0.4673260000000  0.5113420000000  0.4512170000000 1.0
C      1  0.4892260000000  0.5288300000000  0.4530870000000 1.0
C      1  0.5160200000000  0.5220780000000  0.4560670000000 1.0
C      1  0.4687130000000  0.4818290000000  0.5635450000000 1.0
C      1  0.4658990000000  0.5129080000000  0.5635200000000 1.0
C      1  0.4884830000000  0.5346380000000  0.5627900000000 1.0
C      1  0.5192280000000  0.5308850000000  0.5615920000000 1.0
C      1  0.5351000000000  0.5043850000000  0.5624210000000 1.0
C      1  0.5244520000000  0.4751670000000  0.5633090000000 1.0
C      1  0.4949500000000  0.4649060000000  0.5633420000000 1.0
C      1  0.5347800000000  0.5471290000000  0.4308850000000 1.0
END
