TITL C-2441160-1326-250 0.00198980469383096 125000 -8484.34641055831 0 0 58 (C1) n - 1
REM
REM in /home/bkarasulu/work/CARBON/AIRSS/Generating-Clusters/ReaxFF-fromJPCA2015/Units_Real/with-SteepDescent/Higher-Symm
REM
REM
REM
REM
REM
REM ./C.cell (1df0a924f5614ab8850e4351716899ee)
REM
REM compiler GCC version 9.2.1 20190827 (Red Hat 9.2.1-1)
REM options -cpp -mtune=generic -march=x86-64 -g -O0 -fpre-include=/usr/include/finclude/math-vector-fortran.h
REM seed -699443494 1816061765 -813347255 -1058832153 -663562457 -1786947576 -811938216 -448144441 -506146847 -196755953 1419456633 -523139412 -310266042 749433837 -1662154993 -471226685 1487680695 720146948 -72803665 927202273 1579226502 1288071103 -408427806 368773930 2035670012 1383402834 -1343251083 -639698730 332668338 721288785 4914763 820309149 -926417479
REM
CELL 1.54180   50.00000   50.00000   50.00000   90.00000   90.00000   90.00000
LATT -1
SFAC C  
C      1  0.4833180000000  0.5621850000000  0.4621670000000 1.0
C      1  0.5186960000000  0.4752500000000  0.5590460000000 1.0
C      1  0.5649230000000  0.5292370000000  0.4823490000000 1.0
C      1  0.5353790000000  0.4841700000000  0.4336000000000 1.0
C      1  0.4427980000000  0.4524110000000  0.5010660000000 1.0
C      1  0.4568030000000  0.4952510000000  0.5226570000000 1.0
C      1  0.4977280000000  0.4692240000000  0.4980590000000 1.0
C      1  0.5479480000000  0.4868060000000  0.5014590000000 1.0
C      1  0.4676650000000  0.4433040000000  0.5107610000000 1.0
C      1  0.5465610000000  0.4621620000000  0.4447770000000 1.0
C      1  0.5094540000000  0.5711940000000  0.4652770000000 1.0
C      1  0.5427600000000  0.4643080000000  0.5455170000000 1.0
C      1  0.5078560000000  0.5180060000000  0.4490000000000 1.0
C      1  0.5520890000000  0.4271840000000  0.4787450000000 1.0
C      1  0.4936260000000  0.4637400000000  0.5521610000000 1.0
C      1  0.4840410000000  0.4598660000000  0.4690130000000 1.0
C      1  0.4990300000000  0.5528620000000  0.5586200000000 1.0
C      1  0.5560170000000  0.4878420000000  0.4527340000000 1.0
C      1  0.5205480000000  0.5059440000000  0.5587210000000 1.0
C      1  0.5471940000000  0.5117820000000  0.5438090000000 1.0
C      1  0.4787450000000  0.5625080000000  0.4918210000000 1.0
C      1  0.5432130000000  0.5358520000000  0.5295120000000 1.0
C      1  0.5078320000000  0.4924740000000  0.4352190000000 1.0
C      1  0.4592330000000  0.4897060000000  0.4391080000000 1.0
C      1  0.5012640000000  0.5164970000000  0.5382220000000 1.0
C      1  0.4402420000000  0.4842800000000  0.4610250000000 1.0
C      1  0.4516600000000  0.5533850000000  0.5315810000000 1.0
C      1  0.5131400000000  0.5429210000000  0.5291740000000 1.0
C      1  0.4915830000000  0.4538880000000  0.5217110000000 1.0
C      1  0.4555380000000  0.5188890000000  0.4428320000000 1.0
C      1  0.5337760000000  0.4390470000000  0.4586040000000 1.0
C      1  0.4829420000000  0.5183740000000  0.4821280000000 1.0
C      1  0.5193040000000  0.4878810000000  0.4942450000000 1.0
C      1  0.4851180000000  0.4767120000000  0.4440570000000 1.0
C      1  0.5541020000000  0.5551920000000  0.4858360000000 1.0
C      1  0.5407590000000  0.4434320000000  0.5270460000000 1.0
C      1  0.5593210000000  0.5010290000000  0.4785670000000 1.0
C      1  0.5376060000000  0.4242800000000  0.5069810000000 1.0
C      1  0.4532470000000  0.5518630000000  0.5023260000000 1.0
C      1  0.4723480000000  0.5094080000000  0.5463570000000 1.0
C      1  0.4522700000000  0.4654500000000  0.5506100000000 1.0
C      1  0.4529680000000  0.4626090000000  0.4758730000000 1.0
C      1  0.4565460000000  0.5338540000000  0.5506460000000 1.0
C      1  0.5131290000000  0.4243280000000  0.4913040000000 1.0
C      1  0.5049980000000  0.5596510000000  0.5045940000000 1.0
C      1  0.4397180000000  0.4713410000000  0.5256280000000 1.0
C      1  0.4358970000000  0.5148360000000  0.4638200000000 1.0
C      1  0.5547530000000  0.4875750000000  0.5300560000000 1.0
C      1  0.4604550000000  0.5101460000000  0.4980070000000 1.0
C      1  0.5044360000000  0.4361190000000  0.4676790000000 1.0
C      1  0.5080150000000  0.5328500000000  0.5762640000000 1.0
C      1  0.4698880000000  0.5572140000000  0.5539530000000 1.0
C      1  0.4813530000000  0.5328200000000  0.4513460000000 1.0
C      1  0.4393960000000  0.5293170000000  0.4894260000000 1.0
C      1  0.4721850000000  0.4810360000000  0.5620760000000 1.0
C      1  0.5270900000000  0.5677640000000  0.4867110000000 1.0
C      1  0.5096340000000  0.5112310000000  0.4780810000000 1.0
C      1  0.5618590000000  0.5415120000000  0.5080360000000 1.0
END
