TITL C-2441164-471-681 0.24404423282223 125000 -23207.2505140358 0 0 199 (C1) n - 1
REM
REM in /home/bkarasulu/work/CARBON/AIRSS/Generating-Clusters/ReaxFF-fromJPCA2015/Units_Real/with-SteepDescent/Higher-Symm
REM
REM
REM
REM
REM
REM ./C.cell (1df0a924f5614ab8850e4351716899ee)
REM
REM compiler GCC version 9.2.1 20190827 (Red Hat 9.2.1-1)
REM options -cpp -mtune=generic -march=x86-64 -g -O0 -fpre-include=/usr/include/finclude/math-vector-fortran.h
REM seed -1484021560 -1870008001 -589257739 -2120755781 -565370675 -1272612369 1550994738 1959271078 1621259893 -680597981 383740293 1459982356 -379977029 -432136544 1793726474 1287888562 645107619 1116108632 1144911132 1172109673 1540520951 951104246 -1947188244 -1966356804 1595006169 -717954166 1526849913 1601772529 -1748712537 -1483694465 -112505606 917379515 -1536962989
REM
CELL 1.54180   50.00000   50.00000   50.00000   90.00000   90.00000   90.00000
LATT -1
SFAC C  
C      1  0.4654960000000  0.5331800000000  0.6051450000000 1.0
C      1  0.5130430000000  0.5447220000000  0.3954500000000 1.0
C      1  0.5469280000000  0.5177250000000  0.6051250000000 1.0
C      1  0.5377000000000  0.4661150000000  0.3941290000000 1.0
C      1  0.4888070000000  0.4503180000000  0.6029080000000 1.0
C      1  0.4505360000000  0.4853810000000  0.3969330000000 1.0
C      1  0.5179500000000  0.4573040000000  0.5977230000000 1.0
C      1  0.4719870000000  0.4647390000000  0.4013880000000 1.0
C      1  0.4531510000000  0.5062370000000  0.5969820000000 1.0
C      1  0.4824900000000  0.5393390000000  0.4039010000000 1.0
C      1  0.5265160000000  0.5374280000000  0.6012510000000 1.0
C      1  0.5449240000000  0.4950820000000  0.3979190000000 1.0
C      1  0.4551190000000  0.4034920000000  0.5009700000000 1.0
C      1  0.3919990000000  0.4933290000000  0.4968400000000 1.0
C      1  0.4470990000000  0.5950910000000  0.5116610000000 1.0
C      1  0.5450030000000  0.5972810000000  0.4994540000000 1.0
C      1  0.6078390000000  0.5062700000000  0.5035260000000 1.0
C      1  0.5621450000000  0.4124850000000  0.4986550000000 1.0
C      1  0.5100670000000  0.5492020000000  0.4382510000000 1.0
C      1  0.5480600000000  0.5150120000000  0.5626500000000 1.0
C      1  0.5362950000000  0.4647700000000  0.4361350000000 1.0
C      1  0.4876140000000  0.4524140000000  0.5602140000000 1.0
C      1  0.4535760000000  0.4823060000000  0.4419440000000 1.0
C      1  0.4620160000000  0.5349850000000  0.5638940000000 1.0
C      1  0.4742160000000  0.5666980000000  0.5314170000000 1.0
C      1  0.5483450000000  0.5552020000000  0.4682440000000 1.0
C      1  0.5683280000000  0.4903590000000  0.5334550000000 1.0
C      1  0.5263780000000  0.4349180000000  0.4679250000000 1.0
C      1  0.4534830000000  0.4441160000000  0.5311550000000 1.0
C      1  0.4299760000000  0.5113830000000  0.4673230000000 1.0
C      1  0.5845010000000  0.5679720000000  0.5023390000000 1.0
C      1  0.6015720000000  0.4615810000000  0.4963930000000 1.0
C      1  0.5172760000000  0.3912190000000  0.5024700000000 1.0
C      1  0.4150890000000  0.4311700000000  0.4968390000000 1.0
C      1  0.3954430000000  0.5391840000000  0.5014510000000 1.0
C      1  0.4835830000000  0.6083630000000  0.4919640000000 1.0
C      1  0.4327490000000  0.5632300000000  0.4769520000000 1.0
C      1  0.5294140000000  0.6013930000000  0.5240010000000 1.0
C      1  0.6061840000000  0.5244680000000  0.4804310000000 1.0
C      1  0.5714810000000  0.4224580000000  0.5233570000000 1.0
C      1  0.4695860000000  0.3976670000000  0.4763890000000 1.0
C      1  0.3943400000000  0.4748010000000  0.5197680000000 1.0
C      1  0.4430300000000  0.4907800000000  0.5231880000000 1.0
C      1  0.4706530000000  0.5421720000000  0.4785650000000 1.0
C      1  0.5196850000000  0.5508020000000  0.5234280000000 1.0
C      1  0.5570640000000  0.5086010000000  0.4781140000000 1.0
C      1  0.5352720000000  0.4548220000000  0.5238760000000 1.0
C      1  0.4767030000000  0.4464360000000  0.4745690000000 1.0
C      1  0.4855210000000  0.4785150000000  0.5743920000000 1.0
C      1  0.4722620000000  0.5003160000000  0.4261660000000 1.0
C      1  0.4873320000000  0.5227400000000  0.5742770000000 1.0
C      1  0.5131640000000  0.5217480000000  0.4271200000000 1.0
C      1  0.5290760000000  0.4988150000000  0.5764850000000 1.0
C      1  0.5123840000000  0.4758970000000  0.4228470000000 1.0
C      1  0.3882620000000  0.4710340000000  0.4788360000000 1.0
C      1  0.4206300000000  0.5838890000000  0.5209050000000 1.0
C      1  0.5338750000000  0.6108500000000  0.4748300000000 1.0
C      1  0.6116730000000  0.5290240000000  0.5209370000000 1.0
C      1  0.5795510000000  0.4163390000000  0.4751890000000 1.0
C      1  0.4673290000000  0.3886280000000  0.5239080000000 1.0
C      1  0.5047380000000  0.4573340000000  0.4713510000000 1.0
C      1  0.4660170000000  0.4718980000000  0.5302990000000 1.0
C      1  0.4656230000000  0.5151730000000  0.4712980000000 1.0
C      1  0.4928490000000  0.5472130000000  0.5305180000000 1.0
C      1  0.5390080000000  0.5281600000000  0.4682860000000 1.0
C      1  0.5381160000000  0.4830940000000  0.5298070000000 1.0
C      1  0.5231540000000  0.3916450000000  0.4721090000000 1.0
C      1  0.4168290000000  0.4238000000000  0.5255010000000 1.0
C      1  0.3927980000000  0.5362970000000  0.4708260000000 1.0
C      1  0.4725820000000  0.6086090000000  0.5193640000000 1.0
C      1  0.5819470000000  0.5760480000000  0.4744770000000 1.0
C      1  0.6041740000000  0.4657140000000  0.5268580000000 1.0
C      1  0.4562770000000  0.4692530000000  0.4750330000000 1.0
C      1  0.4536810000000  0.5182100000000  0.5145180000000 1.0
C      1  0.4971180000000  0.5535450000000  0.4766870000000 1.0
C      1  0.5400620000000  0.5288180000000  0.5268670000000 1.0
C      1  0.5466440000000  0.4809050000000  0.4827980000000 1.0
C      1  0.5072790000000  0.4475170000000  0.5178990000000 1.0
C      1  0.5281480000000  0.5597470000000  0.4168020000000 1.0
C      1  0.5711070000000  0.5030710000000  0.5777510000000 1.0
C      1  0.5394700000000  0.4434040000000  0.4168010000000 1.0
C      1  0.4707720000000  0.4386540000000  0.5808780000000 1.0
C      1  0.4291040000000  0.4965450000000  0.4232300000000 1.0
C      1  0.4616140000000  0.5556710000000  0.5847540000000 1.0
C      1  0.5128890000000  0.4878930000000  0.5427840000000 1.0
C      1  0.4950680000000  0.4818530000000  0.4573480000000 1.0
C      1  0.4895940000000  0.5018350000000  0.5386940000000 1.0
C      1  0.4901320000000  0.5093970000000  0.4589420000000 1.0
C      1  0.5146320000000  0.5160350000000  0.5449080000000 1.0
C      1  0.5136540000000  0.4989830000000  0.4588050000000 1.0
C      1  0.5305350000000  0.4952640000000  0.6040050000000 1.0
C      1  0.5103290000000  0.4730090000000  0.3947990000000 1.0
C      1  0.4824630000000  0.4779290000000  0.6028280000000 1.0
C      1  0.4698630000000  0.5060550000000  0.3976980000000 1.0
C      1  0.4943670000000  0.5285700000000  0.6014720000000 1.0
C      1  0.5235450000000  0.5176710000000  0.4000190000000 1.0
C      1  0.4736740000000  0.5269660000000  0.4308730000000 1.0
C      1  0.5088080000000  0.5348960000000  0.5656350000000 1.0
C      1  0.5338380000000  0.5105740000000  0.4423290000000 1.0
C      1  0.5270000000000  0.4720690000000  0.5722800000000 1.0
C      1  0.4891720000000  0.4628740000000  0.4275880000000 1.0
C      1  0.4612120000000  0.4914720000000  0.5723360000000 1.0
C      1  0.5590810000000  0.5286970000000  0.4333050000000 1.0
C      1  0.5538780000000  0.4604580000000  0.5675590000000 1.0
C      1  0.4945170000000  0.4341400000000  0.4312640000000 1.0
C      1  0.4393160000000  0.4717830000000  0.5683190000000 1.0
C      1  0.4467260000000  0.5379270000000  0.4341810000000 1.0
C      1  0.5055030000000  0.5641610000000  0.5657430000000 1.0
C      1  0.5850520000000  0.5054970000000  0.5517140000000 1.0
C      1  0.5472480000000  0.4245970000000  0.4513710000000 1.0
C      1  0.4590150000000  0.4204120000000  0.5484170000000 1.0
C      1  0.4148200000000  0.4939960000000  0.4488130000000 1.0
C      1  0.4544300000000  0.5745490000000  0.5513520000000 1.0
C      1  0.5396600000000  0.5780380000000  0.4508370000000 1.0
C      1  0.4195000000000  0.5405230000000  0.4651060000000 1.0
C      1  0.4986080000000  0.6019060000000  0.5324710000000 1.0
C      1  0.5796680000000  0.5487050000000  0.4660790000000 1.0
C      1  0.5822070000000  0.4481690000000  0.5321970000000 1.0
C      1  0.4972430000000  0.4022330000000  0.4661810000000 1.0
C      1  0.4212570000000  0.4512180000000  0.5338580000000 1.0
C      1  0.4682740000000  0.4222730000000  0.4323630000000 1.0
C      1  0.4160730000000  0.4884520000000  0.5646000000000 1.0
C      1  0.4488590000000  0.5668320000000  0.4338810000000 1.0
C      1  0.5319400000000  0.5772760000000  0.5656960000000 1.0
C      1  0.5819720000000  0.5115280000000  0.4344310000000 1.0
C      1  0.5503700000000  0.4320450000000  0.5660280000000 1.0
C      1  0.5410950000000  0.4303480000000  0.4920680000000 1.0
C      1  0.4596110000000  0.4305100000000  0.5075170000000 1.0
C      1  0.4198240000000  0.4992460000000  0.4909080000000 1.0
C      1  0.4616370000000  0.5710840000000  0.5074580000000 1.0
C      1  0.5408710000000  0.5689150000000  0.4939970000000 1.0
C      1  0.5798230000000  0.5001730000000  0.5101750000000 1.0
C      1  0.4825020000000  0.5784240000000  0.5784410000000 1.0
C      1  0.5579330000000  0.5563960000000  0.4247340000000 1.0
C      1  0.5781100000000  0.4737020000000  0.5755920000000 1.0
C      1  0.5199990000000  0.4216300000000  0.4237210000000 1.0
C      1  0.4411570000000  0.4434260000000  0.5751420000000 1.0
C      1  0.4222760000000  0.5256820000000  0.4245140000000 1.0
C      1  0.4028590000000  0.5644440000000  0.5102270000000 1.0
C      1  0.5105400000000  0.6170340000000  0.4898140000000 1.0
C      1  0.6045750000000  0.5472020000000  0.5000470000000 1.0
C      1  0.5974220000000  0.4362640000000  0.4859840000000 1.0
C      1  0.4918740000000  0.3846690000000  0.5093320000000 1.0
C      1  0.3945640000000  0.4522270000000  0.4996710000000 1.0
C      1  0.4226380000000  0.4453580000000  0.4513630000000 1.0
C      1  0.4161610000000  0.5394320000000  0.5465770000000 1.0
C      1  0.4924850000000  0.5929420000000  0.4502080000000 1.0
C      1  0.5763030000000  0.5531690000000  0.5477770000000 1.0
C      1  0.5826300000000  0.4602620000000  0.4519530000000 1.0
C      1  0.5055380000000  0.4076640000000  0.5484400000000 1.0
C      1  0.4477540000000  0.5807100000000  0.4597870000000 1.0
C      1  0.5454610000000  0.5839640000000  0.5393970000000 1.0
C      1  0.5886790000000  0.5048920000000  0.4636860000000 1.0
C      1  0.5476010000000  0.4199740000000  0.5389720000000 1.0
C      1  0.4572920000000  0.4204080000000  0.4610360000000 1.0
C      1  0.4114610000000  0.4955740000000  0.5353430000000 1.0
C      1  0.5970620000000  0.4761870000000  0.4704470000000 1.0
C      1  0.5262710000000  0.4011260000000  0.5297030000000 1.0
C      1  0.4287520000000  0.4262830000000  0.4711880000000 1.0
C      1  0.4027820000000  0.5249150000000  0.5266320000000 1.0
C      1  0.4704940000000  0.5974500000000  0.4677160000000 1.0
C      1  0.5707040000000  0.5729470000000  0.5281820000000 1.0
C      1  0.4701910000000  0.5647200000000  0.4140610000000 1.0
C      1  0.5414590000000  0.5581170000000  0.5855770000000 1.0
C      1  0.5696320000000  0.4929340000000  0.4149290000000 1.0
C      1  0.5280070000000  0.4328910000000  0.5838610000000 1.0
C      1  0.4574900000000  0.4416180000000  0.4139380000000 1.0
C      1  0.4264050000000  0.5077140000000  0.5840970000000 1.0
C      1  0.5925420000000  0.5311830000000  0.5417460000000 1.0
C      1  0.5708740000000  0.4352210000000  0.4562080000000 1.0
C      1  0.4792450000000  0.4069220000000  0.5412630000000 1.0
C      1  0.4071740000000  0.4683970000000  0.4579230000000 1.0
C      1  0.4306250000000  0.5637310000000  0.5406290000000 1.0
C      1  0.5193400000000  0.5924800000000  0.4593610000000 1.0
C      1  0.4664220000000  0.5020270000000  0.4947340000000 1.0
C      1  0.4854890000000  0.5236100000000  0.5202960000000 1.0
C      1  0.5155070000000  0.5303460000000  0.4811970000000 1.0
C      1  0.5261950000000  0.4910560000000  0.5019440000000 1.0
C      1  0.5054730000000  0.4704760000000  0.4990200000000 1.0
C      1  0.4779540000000  0.4789830000000  0.5034990000000 1.0
C      1  0.5785970000000  0.5686320000000  0.4450450000000 1.0
C      1  0.5956550000000  0.4616940000000  0.5545100000000 1.0
C      1  0.5166580000000  0.3983810000000  0.4442940000000 1.0
C      1  0.4206850000000  0.4315830000000  0.5552710000000 1.0
C      1  0.4029800000000  0.5375690000000  0.4434390000000 1.0
C      1  0.4855410000000  0.5990850000000  0.5574240000000 1.0
C      1  0.5552500000000  0.5431890000000  0.5653990000000 1.0
C      1  0.5630240000000  0.4745360000000  0.4367280000000 1.0
C      1  0.5088960000000  0.4320750000000  0.5631630000000 1.0
C      1  0.4436770000000  0.4561090000000  0.4341470000000 1.0
C      1  0.4346900000000  0.5253470000000  0.5633780000000 1.0
C      1  0.4898200000000  0.5697120000000  0.4339810000000 1.0
C      1  0.5581150000000  0.5195910000000  0.5061890000000 1.0
C      1  0.5499380000000  0.4573040000000  0.4987700000000 1.0
C      1  0.4864300000000  0.4354920000000  0.5011780000000 1.0
C      1  0.4367950000000  0.4761970000000  0.4956570000000 1.0
C      1  0.4499600000000  0.5501660000000  0.4956040000000 1.0
C      1  0.5135500000000  0.5651030000000  0.4991040000000 1.0
C      1  0.5083480000000  0.5146580000000  0.5004380000000 1.0
END
