TITL C-2441154-10-919 0.0668603278112382 125000 -21978.5027931279 0 0 162 (C1) n - 1
REM
REM in /home/bkarasulu/work/CARBON/AIRSS/Generating-Clusters/ReaxFF-fromJPCA2015/Units_Real/with-SteepDescent/Higher-Symm
REM
REM
REM
REM
REM
REM ./C.cell (1df0a924f5614ab8850e4351716899ee)
REM
REM compiler GCC version 9.2.1 20190827 (Red Hat 9.2.1-1)
REM options -cpp -mtune=generic -march=x86-64 -g -O0 -fpre-include=/usr/include/finclude/math-vector-fortran.h
REM seed 338164859 1553225339 511162109 2126134074 -1945113299 -345092582 -337779376 1453607744 -1207960977 -518854601 956487448 509285320 2070402496 1222565983 -2012502125 339253724 -1978262977 1157427087 -1474684327 312506063 -604366748 1743534777 731295099 803974716 307785217 -936509351 -380132372 -648666350 -1867544058 1293401445 1560244301 1588983579 613951804
REM
CELL 1.54180   50.00000   50.00000   50.00000   90.00000   90.00000   90.00000
LATT -1
SFAC C  
C      1  0.5388470000000  0.4616660000000  0.4099950000000 1.0
C      1  0.4619240000000  0.4515030000000  0.5901370000000 1.0
C      1  0.4612640000000  0.4456490000000  0.4121690000000 1.0
C      1  0.5349710000000  0.4522250000000  0.5881510000000 1.0
C      1  0.6009820000000  0.5179550000000  0.5204590000000 1.0
C      1  0.3950420000000  0.5119310000000  0.4725050000000 1.0
C      1  0.3951830000000  0.5156090000000  0.5216890000000 1.0
C      1  0.6018510000000  0.5140870000000  0.4768810000000 1.0
C      1  0.4623680000000  0.5156490000000  0.4164530000000 1.0
C      1  0.5404670000000  0.5132460000000  0.5862980000000 1.0
C      1  0.5397980000000  0.5117320000000  0.4163200000000 1.0
C      1  0.4624320000000  0.5129600000000  0.5845040000000 1.0
C      1  0.4532500000000  0.5419330000000  0.4302000000000 1.0
C      1  0.5458740000000  0.5377490000000  0.5715990000000 1.0
C      1  0.5521840000000  0.5418600000000  0.4315850000000 1.0
C      1  0.4465950000000  0.5481940000000  0.5666370000000 1.0
C      1  0.4796640000000  0.5489590000000  0.5316340000000 1.0
C      1  0.5283850000000  0.5487360000000  0.4697600000000 1.0
C      1  0.5309990000000  0.5470920000000  0.5279330000000 1.0
C      1  0.4638530000000  0.5582550000000  0.4712920000000 1.0
C      1  0.5420580000000  0.4850510000000  0.5542320000000 1.0
C      1  0.4587740000000  0.4865050000000  0.4506020000000 1.0
C      1  0.4591080000000  0.4830940000000  0.5544970000000 1.0
C      1  0.5389920000000  0.4886660000000  0.4508080000000 1.0
C      1  0.4590130000000  0.6002810000000  0.4818790000000 1.0
C      1  0.5397690000000  0.5976880000000  0.5152340000000 1.0
C      1  0.5405830000000  0.5944500000000  0.4668250000000 1.0
C      1  0.4568940000000  0.5971500000000  0.5203580000000 1.0
C      1  0.4139420000000  0.4738890000000  0.5438580000000 1.0
C      1  0.5849560000000  0.4719070000000  0.4547320000000 1.0
C      1  0.5881140000000  0.4759880000000  0.5442280000000 1.0
C      1  0.4204170000000  0.4727740000000  0.4544750000000 1.0
C      1  0.4427280000000  0.5621260000000  0.4521530000000 1.0
C      1  0.5480580000000  0.5666360000000  0.5418990000000 1.0
C      1  0.5542550000000  0.5597570000000  0.4563470000000 1.0
C      1  0.4442570000000  0.5678410000000  0.5459750000000 1.0
C      1  0.5474360000000  0.5244050000000  0.5261100000000 1.0
C      1  0.4574150000000  0.5304780000000  0.4736950000000 1.0
C      1  0.4578530000000  0.5289970000000  0.5277240000000 1.0
C      1  0.5440030000000  0.5246730000000  0.4748760000000 1.0
C      1  0.4327070000000  0.4944680000000  0.4394340000000 1.0
C      1  0.5800810000000  0.4975030000000  0.5613010000000 1.0
C      1  0.5671310000000  0.4908280000000  0.4394880000000 1.0
C      1  0.4206960000000  0.4968020000000  0.5597470000000 1.0
C      1  0.5174410000000  0.5909100000000  0.4520000000000 1.0
C      1  0.4733060000000  0.5824540000000  0.5385680000000 1.0
C      1  0.4743640000000  0.5853130000000  0.4638340000000 1.0
C      1  0.5274350000000  0.5897160000000  0.5383730000000 1.0
C      1  0.4302570000000  0.4471750000000  0.5455800000000 1.0
C      1  0.5712870000000  0.4464740000000  0.4544890000000 1.0
C      1  0.5734360000000  0.4490200000000  0.5463590000000 1.0
C      1  0.4299160000000  0.4459280000000  0.4545950000000 1.0
C      1  0.5510830000000  0.4399290000000  0.4339530000000 1.0
C      1  0.4515270000000  0.4367790000000  0.5634640000000 1.0
C      1  0.4468900000000  0.4340200000000  0.4348350000000 1.0
C      1  0.5522490000000  0.4397180000000  0.5652340000000 1.0
C      1  0.5157380000000  0.4082210000000  0.4563910000000 1.0
C      1  0.4920800000000  0.4017530000000  0.5366380000000 1.0
C      1  0.4906630000000  0.4039420000000  0.4670810000000 1.0
C      1  0.5169460000000  0.4117430000000  0.5414200000000 1.0
C      1  0.4374190000000  0.5222040000000  0.4519640000000 1.0
C      1  0.5654190000000  0.5241390000000  0.5499180000000 1.0
C      1  0.5628790000000  0.5211590000000  0.4516210000000 1.0
C      1  0.4354810000000  0.5236610000000  0.5477340000000 1.0
C      1  0.5244580000000  0.4539560000000  0.4756620000000 1.0
C      1  0.4708460000000  0.4571990000000  0.5142140000000 1.0
C      1  0.4702780000000  0.4561680000000  0.4861330000000 1.0
C      1  0.5234070000000  0.4544430000000  0.5269150000000 1.0
C      1  0.5221710000000  0.5017980000000  0.5650630000000 1.0
C      1  0.4800750000000  0.5003320000000  0.4357700000000 1.0
C      1  0.4795530000000  0.5010670000000  0.5637470000000 1.0
C      1  0.5196420000000  0.5001080000000  0.4336470000000 1.0
C      1  0.4249370000000  0.5595820000000  0.5257390000000 1.0
C      1  0.5776610000000  0.5552210000000  0.4744320000000 1.0
C      1  0.5734430000000  0.5617350000000  0.5268910000000 1.0
C      1  0.4214010000000  0.5585410000000  0.4720990000000 1.0
C      1  0.4027480000000  0.4858420000000  0.5197250000000 1.0
C      1  0.5962810000000  0.4855180000000  0.4780210000000 1.0
C      1  0.5972110000000  0.4888830000000  0.5198900000000 1.0
C      1  0.4053690000000  0.4840290000000  0.4772820000000 1.0
C      1  0.4812180000000  0.4447770000000  0.4629970000000 1.0
C      1  0.5051930000000  0.4555750000000  0.5509890000000 1.0
C      1  0.5065620000000  0.4501610000000  0.4527440000000 1.0
C      1  0.4825850000000  0.4419230000000  0.5351860000000 1.0
C      1  0.5190270000000  0.5493850000000  0.5672550000000 1.0
C      1  0.4835360000000  0.5518690000000  0.4348210000000 1.0
C      1  0.4699860000000  0.5441460000000  0.5821870000000 1.0
C      1  0.5233050000000  0.5480770000000  0.4293500000000 1.0
C      1  0.4745480000000  0.4764390000000  0.5988210000000 1.0
C      1  0.5143680000000  0.4753750000000  0.4004970000000 1.0
C      1  0.5255190000000  0.4770950000000  0.5984330000000 1.0
C      1  0.4653650000000  0.4740770000000  0.4059120000000 1.0
C      1  0.4858800000000  0.4381310000000  0.5875300000000 1.0
C      1  0.5113440000000  0.4422230000000  0.4256180000000 1.0
C      1  0.5119690000000  0.4376790000000  0.5779090000000 1.0
C      1  0.4854900000000  0.4308250000000  0.4193490000000 1.0
C      1  0.4449400000000  0.4938040000000  0.4099040000000 1.0
C      1  0.5582470000000  0.4897770000000  0.5787940000000 1.0
C      1  0.5537760000000  0.4866180000000  0.4119390000000 1.0
C      1  0.4424460000000  0.4914780000000  0.5779960000000 1.0
C      1  0.5350310000000  0.4808110000000  0.4766460000000 1.0
C      1  0.4675700000000  0.4839600000000  0.5252770000000 1.0
C      1  0.4671260000000  0.4847750000000  0.4785010000000 1.0
C      1  0.5338790000000  0.4806730000000  0.5261740000000 1.0
C      1  0.4682760000000  0.4195140000000  0.5465390000000 1.0
C      1  0.5366770000000  0.4179490000000  0.4443770000000 1.0
C      1  0.5416360000000  0.4217490000000  0.5462060000000 1.0
C      1  0.4720420000000  0.4225530000000  0.4457490000000 1.0
C      1  0.5690240000000  0.4330810000000  0.4812000000000 1.0
C      1  0.4318080000000  0.4353860000000  0.5208380000000 1.0
C      1  0.4310060000000  0.4342640000000  0.4795400000000 1.0
C      1  0.5679230000000  0.4356120000000  0.5227590000000 1.0
C      1  0.5883780000000  0.5312860000000  0.4604090000000 1.0
C      1  0.4137370000000  0.5345610000000  0.5339130000000 1.0
C      1  0.4127330000000  0.5325950000000  0.4627530000000 1.0
C      1  0.5877250000000  0.5375150000000  0.5354630000000 1.0
C      1  0.5006690000000  0.5192820000000  0.6102720000000 1.0
C      1  0.5049450000000  0.5283430000000  0.3917740000000 1.0
C      1  0.5004940000000  0.4952980000000  0.5213220000000 1.0
C      1  0.4987220000000  0.4960900000000  0.4789060000000 1.0
C      1  0.4508430000000  0.4929980000000  0.5021660000000 1.0
C      1  0.5493860000000  0.4865050000000  0.5008160000000 1.0
C      1  0.5101070000000  0.5022570000000  0.3910330000000 1.0
C      1  0.5001330000000  0.4892940000000  0.6061680000000 1.0
C      1  0.4434140000000  0.3877620000000  0.4989790000000 1.0
C      1  0.5454540000000  0.3955470000000  0.5015040000000 1.0
C      1  0.5045730000000  0.5379370000000  0.4489210000000 1.0
C      1  0.5067840000000  0.5434480000000  0.5428010000000 1.0
C      1  0.5557420000000  0.5934830000000  0.4923520000000 1.0
C      1  0.4417190000000  0.5940590000000  0.4996480000000 1.0
C      1  0.4996400000000  0.5942150000000  0.5278870000000 1.0
C      1  0.4992500000000  0.5988970000000  0.4714900000000 1.0
C      1  0.5012160000000  0.4845820000000  0.5615310000000 1.0
C      1  0.4930660000000  0.4787460000000  0.4202740000000 1.0
C      1  0.4220290000000  0.4777240000000  0.4999250000000 1.0
C      1  0.5797410000000  0.4753130000000  0.5001150000000 1.0
C      1  0.5049020000000  0.5716640000000  0.4247980000000 1.0
C      1  0.4966580000000  0.5579410000000  0.5855520000000 1.0
C      1  0.5431790000000  0.4196350000000  0.4935220000000 1.0
C      1  0.4507590000000  0.4122680000000  0.4991300000000 1.0
C      1  0.3918090000000  0.5243880000000  0.4958710000000 1.0
C      1  0.6011940000000  0.5300720000000  0.4978740000000 1.0
C      1  0.5785610000000  0.4460510000000  0.5015230000000 1.0
C      1  0.4235650000000  0.4480880000000  0.5000590000000 1.0
C      1  0.5001220000000  0.5439960000000  0.6095350000000 1.0
C      1  0.5011830000000  0.5552470000000  0.3961910000000 1.0
C      1  0.5495780000000  0.5141000000000  0.5003260000000 1.0
C      1  0.4532880000000  0.5207050000000  0.5008940000000 1.0
C      1  0.4258050000000  0.5704040000000  0.4984570000000 1.0
C      1  0.5742000000000  0.5704740000000  0.4992730000000 1.0
C      1  0.4995230000000  0.3594880000000  0.5024140000000 1.0
C      1  0.4930050000000  0.5447950000000  0.5031630000000 1.0
C      1  0.5002490000000  0.6364030000000  0.5014870000000 1.0
C      1  0.5185030000000  0.4415940000000  0.5015860000000 1.0
C      1  0.5009430000000  0.5161740000000  0.5000480000000 1.0
C      1  0.5028980000000  0.4766300000000  0.4997830000000 1.0
C      1  0.5007750000000  0.6605240000000  0.5003540000000 1.0
C      1  0.5116380000000  0.5634070000000  0.4928970000000 1.0
C      1  0.5015410000000  0.3355580000000  0.4983070000000 1.0
C      1  0.4970610000000  0.3866640000000  0.5087410000000 1.0
C      1  0.4830960000000  0.4072310000000  0.4943340000000 1.0
C      1  0.4996550000000  0.6096170000000  0.5022420000000 1.0
END
