TITL C-2441167-4473-1263 0.0476042186748673 125000 -21363.3121273854 0 0 148 (C1) n - 1
REM
REM in /home/bkarasulu/work/CARBON/AIRSS/Generating-Clusters/ReaxFF-fromJPCA2015/Units_Real/with-SteepDescent/Higher-Symm
REM
REM
REM
REM
REM
REM ./C.cell (1df0a924f5614ab8850e4351716899ee)
REM
REM compiler GCC version 9.2.1 20190827 (Red Hat 9.2.1-1)
REM options -cpp -mtune=generic -march=x86-64 -g -O0 -fpre-include=/usr/include/finclude/math-vector-fortran.h
REM seed -846914571 -195024962 -121924427 -533716705 92944796 953966949 335141741 -1625801157 1396103681 -2141816007 1793992953 -1688292034 -937774078 -1144704722 161133403 -1864826792 1321134064 -807629395 2086281812 450362217 955415175 377524795 746822895 1457058114 -1843435065 -281289826 1319863905 948715999 495509095 -1871743711 881242793 1634091709 2001509258
REM
CELL 1.54180   50.00000   50.00000   50.00000   90.00000   90.00000   90.00000
LATT -1
SFAC C  
C      1  0.5641250000000  0.4805850000000  0.4228220000000 1.0
C      1  0.4181280000000  0.5620570000000  0.4830090000000 1.0
C      1  0.4787480000000  0.4201770000000  0.5657400000000 1.0
C      1  0.4378660000000  0.5210470000000  0.4197560000000 1.0
C      1  0.4332950000000  0.4856680000000  0.5782070000000 1.0
C      1  0.5646000000000  0.5162490000000  0.5802560000000 1.0
C      1  0.5784180000000  0.4301410000000  0.4781630000000 1.0
C      1  0.5741500000000  0.5594110000000  0.5167510000000 1.0
C      1  0.4245040000000  0.4334090000000  0.5183090000000 1.0
C      1  0.5193100000000  0.5776550000000  0.5648580000000 1.0
C      1  0.5142170000000  0.4199620000000  0.4370180000000 1.0
C      1  0.4832780000000  0.5793850000000  0.4391940000000 1.0
C      1  0.5114100000000  0.4559060000000  0.5124560000000 1.0
C      1  0.5162400000000  0.5264340000000  0.4517680000000 1.0
C      1  0.4583290000000  0.5098740000000  0.5128610000000 1.0
C      1  0.4816170000000  0.5511110000000  0.5110050000000 1.0
C      1  0.4723780000000  0.4498030000000  0.4816570000000 1.0
C      1  0.5110110000000  0.5344560000000  0.4775900000000 1.0
C      1  0.4816080000000  0.4848720000000  0.4583410000000 1.0
C      1  0.4859830000000  0.5209620000000  0.5489670000000 1.0
C      1  0.5111190000000  0.4791560000000  0.5526750000000 1.0
C      1  0.5474700000000  0.4902510000000  0.5189250000000 1.0
C      1  0.5593810000000  0.5210670000000  0.4853170000000 1.0
C      1  0.4582890000000  0.4750950000000  0.4754640000000 1.0
C      1  0.4577400000000  0.4192440000000  0.5441690000000 1.0
C      1  0.5422190000000  0.4604540000000  0.4249950000000 1.0
C      1  0.4205460000000  0.5425250000000  0.4600570000000 1.0
C      1  0.5404550000000  0.5797560000000  0.5428160000000 1.0
C      1  0.5360020000000  0.4260780000000  0.4550310000000 1.0
C      1  0.4590690000000  0.5750400000000  0.4562770000000 1.0
C      1  0.4597480000000  0.5435410000000  0.4195850000000 1.0
C      1  0.4530020000000  0.4639410000000  0.5740090000000 1.0
C      1  0.5428810000000  0.5378020000000  0.5799850000000 1.0
C      1  0.5808970000000  0.4534710000000  0.4625410000000 1.0
C      1  0.5712670000000  0.5415160000000  0.5392100000000 1.0
C      1  0.4203850000000  0.4657750000000  0.5299000000000 1.0
C      1  0.4224250000000  0.4419050000000  0.4662060000000 1.0
C      1  0.4627730000000  0.4237070000000  0.4409900000000 1.0
C      1  0.4396250000000  0.4664450000000  0.4245400000000 1.0
C      1  0.5780590000000  0.5595620000000  0.4656000000000 1.0
C      1  0.5778990000000  0.4420530000000  0.5325630000000 1.0
C      1  0.4254290000000  0.5619570000000  0.5346370000000 1.0
C      1  0.5370180000000  0.5761560000000  0.4399610000000 1.0
C      1  0.5373790000000  0.4306420000000  0.5627610000000 1.0
C      1  0.4663150000000  0.5784300000000  0.5580750000000 1.0
C      1  0.5624800000000  0.5340480000000  0.4261690000000 1.0
C      1  0.5682740000000  0.4653960000000  0.5747410000000 1.0
C      1  0.4410730000000  0.5383460000000  0.5764900000000 1.0
C      1  0.4484910000000  0.5797910000000  0.5343440000000 1.0
C      1  0.5450530000000  0.4512760000000  0.5823230000000 1.0
C      1  0.5834050000000  0.5385210000000  0.4466040000000 1.0
C      1  0.5522800000000  0.4304290000000  0.5375340000000 1.0
C      1  0.5546920000000  0.5775960000000  0.4644030000000 1.0
C      1  0.4440600000000  0.4230730000000  0.4637210000000 1.0
C      1  0.4647420000000  0.5548820000000  0.5739660000000 1.0
C      1  0.4637320000000  0.4485970000000  0.4262830000000 1.0
C      1  0.5406050000000  0.5530890000000  0.4234140000000 1.0
C      1  0.4219320000000  0.4650500000000  0.4484770000000 1.0
C      1  0.4242710000000  0.5390580000000  0.5527330000000 1.0
C      1  0.5793290000000  0.4659090000000  0.5490780000000 1.0
C      1  0.5539110000000  0.4122230000000  0.4731420000000 1.0
C      1  0.4839900000000  0.5587710000000  0.4189750000000 1.0
C      1  0.4195180000000  0.4864790000000  0.5517790000000 1.0
C      1  0.4424390000000  0.5778940000000  0.4797790000000 1.0
C      1  0.4460850000000  0.4152000000000  0.5170670000000 1.0
C      1  0.5538250000000  0.5813050000000  0.5162250000000 1.0
C      1  0.5163760000000  0.4456060000000  0.4231850000000 1.0
C      1  0.5173950000000  0.5521170000000  0.5783310000000 1.0
C      1  0.4758740000000  0.4460010000000  0.5804880000000 1.0
C      1  0.5782160000000  0.5181120000000  0.5545560000000 1.0
C      1  0.5761550000000  0.4793550000000  0.4507720000000 1.0
C      1  0.4233350000000  0.5171070000000  0.4453290000000 1.0
C      1  0.4063550000000  0.4871080000000  0.4795710000000 1.0
C      1  0.4854900000000  0.4032660000000  0.4763920000000 1.0
C      1  0.4866620000000  0.4764350000000  0.4008280000000 1.0
C      1  0.6002970000000  0.5200240000000  0.4642000000000 1.0
C      1  0.5992030000000  0.4935580000000  0.5141770000000 1.0
C      1  0.4038810000000  0.5262550000000  0.5187240000000 1.0
C      1  0.5171130000000  0.5949600000000  0.4754940000000 1.0
C      1  0.5364400000000  0.4071090000000  0.4954200000000 1.0
C      1  0.4764030000000  0.5969520000000  0.5090090000000 1.0
C      1  0.5057510000000  0.5209540000000  0.4039520000000 1.0
C      1  0.5368960000000  0.4745140000000  0.5992120000000 1.0
C      1  0.4725790000000  0.5175900000000  0.5941860000000 1.0
C      1  0.4931730000000  0.5902840000000  0.5582090000000 1.0
C      1  0.5610040000000  0.4888900000000  0.5900520000000 1.0
C      1  0.5774990000000  0.5443420000000  0.4910640000000 1.0
C      1  0.5076630000000  0.4270600000000  0.5609720000000 1.0
C      1  0.5110450000000  0.5868510000000  0.4477410000000 1.0
C      1  0.4882160000000  0.4107430000000  0.4488110000000 1.0
C      1  0.4448680000000  0.5119590000000  0.5881070000000 1.0
C      1  0.4414220000000  0.4935670000000  0.4162020000000 1.0
C      1  0.5566090000000  0.5076270000000  0.4141190000000 1.0
C      1  0.4119690000000  0.4436000000000  0.4944280000000 1.0
C      1  0.4117760000000  0.5535950000000  0.5108490000000 1.0
C      1  0.5880690000000  0.4427080000000  0.5038190000000 1.0
C      1  0.4617390000000  0.4792120000000  0.5509790000000 1.0
C      1  0.5451010000000  0.4538640000000  0.4904290000000 1.0
C      1  0.4676020000000  0.5466120000000  0.4652470000000 1.0
C      1  0.5330780000000  0.5229070000000  0.5566800000000 1.0
C      1  0.5325730000000  0.4746910000000  0.4486090000000 1.0
C      1  0.4705450000000  0.5305480000000  0.4432030000000 1.0
C      1  0.4449390000000  0.5346500000000  0.4740650000000 1.0
C      1  0.4546100000000  0.4674160000000  0.5267920000000 1.0
C      1  0.5414410000000  0.5330480000000  0.5317160000000 1.0
C      1  0.5286530000000  0.4532160000000  0.4689480000000 1.0
C      1  0.5268450000000  0.5566380000000  0.5318980000000 1.0
C      1  0.4691900000000  0.4436260000000  0.5328820000000 1.0
C      1  0.4968910000000  0.5931340000000  0.5298150000000 1.0
C      1  0.5167280000000  0.4952620000000  0.5941540000000 1.0
C      1  0.6025750000000  0.5108900000000  0.4917130000000 1.0
C      1  0.4995740000000  0.4107860000000  0.5144550000000 1.0
C      1  0.4919260000000  0.5868490000000  0.4864800000000 1.0
C      1  0.5089960000000  0.3949350000000  0.4935450000000 1.0
C      1  0.4882340000000  0.4945230000000  0.5902670000000 1.0
C      1  0.4818370000000  0.5044000000000  0.4097980000000 1.0
C      1  0.5276850000000  0.5044280000000  0.4117320000000 1.0
C      1  0.4058360000000  0.4706280000000  0.5041280000000 1.0
C      1  0.4103500000000  0.5109410000000  0.4949650000000 1.0
C      1  0.5927410000000  0.4705380000000  0.4983260000000 1.0
C      1  0.5112500000000  0.5430720000000  0.4234790000000 1.0
C      1  0.4182680000000  0.5134030000000  0.5410410000000 1.0
C      1  0.5391070000000  0.4344050000000  0.5097750000000 1.0
C      1  0.4904620000000  0.4619270000000  0.4276540000000 1.0
C      1  0.4878740000000  0.5377980000000  0.5729750000000 1.0
C      1  0.5026510000000  0.4536090000000  0.5711370000000 1.0
C      1  0.5776760000000  0.4927970000000  0.5365000000000 1.0
C      1  0.5631810000000  0.4962590000000  0.4716620000000 1.0
C      1  0.4262650000000  0.4900690000000  0.4599840000000 1.0
C      1  0.4573440000000  0.5756060000000  0.5078380000000 1.0
C      1  0.4627120000000  0.4214370000000  0.4880170000000 1.0
C      1  0.5424720000000  0.5852350000000  0.4891680000000 1.0
C      1  0.5588040000000  0.4763880000000  0.4947970000000 1.0
C      1  0.4911520000000  0.5554620000000  0.4838820000000 1.0
C      1  0.4840480000000  0.4944400000000  0.5581410000000 1.0
C      1  0.4391140000000  0.5196490000000  0.4947180000000 1.0
C      1  0.4597790000000  0.4834580000000  0.5040500000000 1.0
C      1  0.5385940000000  0.5153390000000  0.5067860000000 1.0
C      1  0.4998180000000  0.4611760000000  0.4865520000000 1.0
C      1  0.5027170000000  0.5647880000000  0.5246760000000 1.0
C      1  0.4941670000000  0.4368410000000  0.5237370000000 1.0
C      1  0.5249260000000  0.4996690000000  0.5661570000000 1.0
C      1  0.5239840000000  0.5016930000000  0.4416130000000 1.0
C      1  0.4769540000000  0.5046600000000  0.4399830000000 1.0
C      1  0.5229850000000  0.4768340000000  0.5271930000000 1.0
C      1  0.5072250000000  0.5123360000000  0.4965300000000 1.0
C      1  0.4827770000000  0.5232740000000  0.5201790000000 1.0
C      1  0.4998780000000  0.4893900000000  0.4795640000000 1.0
END
