TITL C-2441169-1362-174 0.113623190787288 125000 -11017.5004425013 0 0 93 (C1) n - 1
REM
REM in /home/bkarasulu/work/CARBON/AIRSS/Generating-Clusters/ReaxFF-fromJPCA2015/Units_Real/with-SteepDescent/Higher-Symm
REM
REM
REM
REM
REM
REM ./C.cell (1df0a924f5614ab8850e4351716899ee)
REM
REM compiler GCC version 9.2.1 20190827 (Red Hat 9.2.1-1)
REM options -cpp -mtune=generic -march=x86-64 -g -O0 -fpre-include=/usr/include/finclude/math-vector-fortran.h
REM seed 2112845180 726285651 163904173 -985969036 577993830 -2091618996 -928922961 1472258144 -377979025 1825274325 1390666326 1578360817 -368864609 -1437918913 -785593091 -1346840515 1471943814 1867191468 -310528664 1342314184 -534330790 209539746 345135427 257452172 -1969476275 -659364126 -836756927 -594706196 956637580 633712130 1418654726 -2140316890 153215508
REM
CELL 1.54180   50.00000   50.00000   50.00000   90.00000   90.00000   90.00000
LATT -1
SFAC C  
C      1  0.4775110000000  0.5652630000000  0.4607330000000 1.0
C      1  0.4622270000000  0.5661310000000  0.5235490000000 1.0
C      1  0.5215080000000  0.5661880000000  0.5410550000000 1.0
C      1  0.5380540000000  0.5680430000000  0.4792350000000 1.0
C      1  0.4749380000000  0.4352290000000  0.4639360000000 1.0
C      1  0.4578140000000  0.4346470000000  0.5242790000000 1.0
C      1  0.5243520000000  0.4327150000000  0.5368980000000 1.0
C      1  0.5363580000000  0.4311720000000  0.4743290000000 1.0
C      1  0.4189920000000  0.4773790000000  0.4918550000000 1.0
C      1  0.4928760000000  0.4841330000000  0.5940060000000 1.0
C      1  0.5910900000000  0.4901150000000  0.5055840000000 1.0
C      1  0.5157130000000  0.4858350000000  0.4190610000000 1.0
C      1  0.4163380000000  0.5062960000000  0.4913720000000 1.0
C      1  0.4915670000000  0.5090760000000  0.5904420000000 1.0
C      1  0.5919580000000  0.5133090000000  0.5088520000000 1.0
C      1  0.5084040000000  0.5143200000000  0.4155900000000 1.0
C      1  0.4446860000000  0.5483350000000  0.4828660000000 1.0
C      1  0.4871080000000  0.5527520000000  0.5560250000000 1.0
C      1  0.5515830000000  0.5473840000000  0.5137060000000 1.0
C      1  0.5139910000000  0.5520650000000  0.4464020000000 1.0
C      1  0.4384470000000  0.4561740000000  0.4836210000000 1.0
C      1  0.4850050000000  0.4556000000000  0.5507530000000 1.0
C      1  0.5566320000000  0.4519560000000  0.5168520000000 1.0
C      1  0.5104510000000  0.4485970000000  0.4479620000000 1.0
C      1  0.4466900000000  0.4771410000000  0.5578140000000 1.0
C      1  0.5533250000000  0.4796020000000  0.5514870000000 1.0
C      1  0.5469070000000  0.4780010000000  0.4451360000000 1.0
C      1  0.4449840000000  0.4793460000000  0.4453960000000 1.0
C      1  0.4508930000000  0.5208750000000  0.5521110000000 1.0
C      1  0.5526040000000  0.5230460000000  0.5525290000000 1.0
C      1  0.5560960000000  0.5288540000000  0.4470220000000 1.0
C      1  0.4455130000000  0.5213900000000  0.4468990000000 1.0
C      1  0.4579990000000  0.4850650000000  0.4199480000000 1.0
C      1  0.4221740000000  0.4857590000000  0.5440180000000 1.0
C      1  0.5408890000000  0.4854930000000  0.5769690000000 1.0
C      1  0.5726040000000  0.4851960000000  0.4566370000000 1.0
C      1  0.4537080000000  0.5143180000000  0.4193130000000 1.0
C      1  0.4239610000000  0.5148900000000  0.5425400000000 1.0
C      1  0.5411160000000  0.5146640000000  0.5778190000000 1.0
C      1  0.5770780000000  0.5140430000000  0.4595230000000 1.0
C      1  0.4973630000000  0.4386480000000  0.5330550000000 1.0
C      1  0.5349670000000  0.4424260000000  0.5009380000000 1.0
C      1  0.4957100000000  0.4525780000000  0.4730700000000 1.0
C      1  0.4608870000000  0.4534260000000  0.5027430000000 1.0
C      1  0.4991800000000  0.5561030000000  0.5323530000000 1.0
C      1  0.5326450000000  0.5587300000000  0.5034450000000 1.0
C      1  0.4974490000000  0.5468450000000  0.4691440000000 1.0
C      1  0.4661000000000  0.5486860000000  0.5013530000000 1.0
C      1  0.5747010000000  0.5227060000000  0.4877130000000 1.0
C      1  0.4812730000000  0.5191740000000  0.4228260000000 1.0
C      1  0.4219760000000  0.5225850000000  0.5145000000000 1.0
C      1  0.5128780000000  0.5224510000000  0.5766180000000 1.0
C      1  0.5776350000000  0.4760780000000  0.4842220000000 1.0
C      1  0.4860870000000  0.4821170000000  0.4258730000000 1.0
C      1  0.4314840000000  0.4768970000000  0.5177560000000 1.0
C      1  0.5125500000000  0.4766160000000  0.5752540000000 1.0
C      1  0.5172790000000  0.5238840000000  0.4405950000000 1.0
C      1  0.4372390000000  0.5234930000000  0.4920710000000 1.0
C      1  0.4955040000000  0.5256390000000  0.5553560000000 1.0
C      1  0.5484890000000  0.5206030000000  0.5034690000000 1.0
C      1  0.5056600000000  0.4766860000000  0.4435690000000 1.0
C      1  0.4670230000000  0.4898060000000  0.4869600000000 1.0
C      1  0.4966070000000  0.4818370000000  0.5494210000000 1.0
C      1  0.5546120000000  0.4756770000000  0.5017310000000 1.0
C      1  0.4533040000000  0.5492590000000  0.4559370000000 1.0
C      1  0.4592840000000  0.5488320000000  0.5474190000000 1.0
C      1  0.5459470000000  0.5499440000000  0.5417330000000 1.0
C      1  0.5423310000000  0.5537390000000  0.4546190000000 1.0
C      1  0.4509750000000  0.4523170000000  0.4581050000000 1.0
C      1  0.4572000000000  0.4506270000000  0.5497130000000 1.0
C      1  0.5468360000000  0.4517480000000  0.5433350000000 1.0
C      1  0.5393680000000  0.4504910000000  0.4523090000000 1.0
C      1  0.4815870000000  0.5251860000000  0.5056670000000 1.0
C      1  0.5020220000000  0.5244790000000  0.5272480000000 1.0
C      1  0.5250970000000  0.5145220000000  0.4844530000000 1.0
C      1  0.4974800000000  0.5236560000000  0.4828830000000 1.0
C      1  0.4606960000000  0.4803580000000  0.5135790000000 1.0
C      1  0.5132090000000  0.4951040000000  0.5280310000000 1.0
C      1  0.5299920000000  0.4709990000000  0.4921980000000 1.0
C      1  0.4910060000000  0.4797080000000  0.4787410000000 1.0
C      1  0.5151370000000  0.4131670000000  0.4855080000000 1.0
C      1  0.4859090000000  0.4160740000000  0.4861880000000 1.0
C      1  0.4813450000000  0.4202490000000  0.5151500000000 1.0
C      1  0.5240440000000  0.4156180000000  0.5133850000000 1.0
C      1  0.5161880000000  0.5883690000000  0.4841820000000 1.0
C      1  0.4874650000000  0.5834590000000  0.4829740000000 1.0
C      1  0.4849520000000  0.5821480000000  0.5131850000000 1.0
C      1  0.5201810000000  0.5846670000000  0.5155860000000 1.0
C      1  0.5363030000000  0.5072840000000  0.4543380000000 1.0
C      1  0.4527310000000  0.4995020000000  0.4639320000000 1.0
C      1  0.4663140000000  0.4956140000000  0.5460660000000 1.0
C      1  0.5438130000000  0.5018360000000  0.5329100000000 1.0
C      1  0.5104650000000  0.4890300000000  0.4971930000000 1.0
END
