TITL C-2441164-471-1470 0.0302407899445255 125000 -14082.1981130963 0 0 102 (C1) n - 1
REM
REM in /home/bkarasulu/work/CARBON/AIRSS/Generating-Clusters/ReaxFF-fromJPCA2015/Units_Real/with-SteepDescent/Higher-Symm
REM
REM
REM
REM
REM
REM ./C.cell (1df0a924f5614ab8850e4351716899ee)
REM
REM compiler GCC version 9.2.1 20190827 (Red Hat 9.2.1-1)
REM options -cpp -mtune=generic -march=x86-64 -g -O0 -fpre-include=/usr/include/finclude/math-vector-fortran.h
REM seed -2528620 1231841528 -1418135747 763684393 1780265402 1558285357 1379950538 1528862403 -1318066208 -1718713842 451266487 -689009753 359126920 -1792439104 -1654403127 1981315255 -1436547604 1549687485 -1102884369 -1281385720 -1044604018 -231447533 -2052644134 111566749 -690203339 -815529553 -416907131 -1416429967 -491830116 -1619959046 -451609367 -272187633 -575121807
REM
CELL 1.54180   50.00000   50.00000   50.00000   90.00000   90.00000   90.00000
LATT -1
SFAC C  
C      1  0.4496160000000  0.4944810000000  0.5629570000000 1.0
C      1  0.4196100000000  0.5036040000000  0.4896640000000 1.0
C      1  0.4714530000000  0.4969900000000  0.4224270000000 1.0
C      1  0.5514950000000  0.5063070000000  0.4431410000000 1.0
C      1  0.5788590000000  0.4960120000000  0.5095890000000 1.0
C      1  0.5255770000000  0.5071630000000  0.5745910000000 1.0
C      1  0.4504350000000  0.4460710000000  0.4255610000000 1.0
C      1  0.5377920000000  0.5554910000000  0.4184040000000 1.0
C      1  0.5884730000000  0.4447780000000  0.4957400000000 1.0
C      1  0.5521400000000  0.5570100000000  0.5737220000000 1.0
C      1  0.4626840000000  0.4412530000000  0.5807700000000 1.0
C      1  0.4125730000000  0.5553240000000  0.5061160000000 1.0
C      1  0.5279300000000  0.4735940000000  0.5023420000000 1.0
C      1  0.5119070000000  0.5147100000000  0.5256530000000 1.0
C      1  0.4828820000000  0.4721670000000  0.5239220000000 1.0
C      1  0.4701770000000  0.5108000000000  0.4993620000000 1.0
C      1  0.4894390000000  0.4837360000000  0.4706400000000 1.0
C      1  0.5166820000000  0.5237570000000  0.4788120000000 1.0
C      1  0.5227760000000  0.5520130000000  0.5560970000000 1.0
C      1  0.4610190000000  0.4465410000000  0.5477590000000 1.0
C      1  0.4393360000000  0.5506360000000  0.4886060000000 1.0
C      1  0.4798080000000  0.4494840000000  0.4407500000000 1.0
C      1  0.5356440000000  0.5553940000000  0.4527210000000 1.0
C      1  0.5622000000000  0.4499220000000  0.5132970000000 1.0
C      1  0.4625130000000  0.5670800000000  0.5040180000000 1.0
C      1  0.4732870000000  0.4354090000000  0.4665440000000 1.0
C      1  0.5120270000000  0.5683200000000  0.4662540000000 1.0
C      1  0.5332060000000  0.4401820000000  0.4968320000000 1.0
C      1  0.5283320000000  0.5678380000000  0.5315500000000 1.0
C      1  0.4876540000000  0.4389840000000  0.5326090000000 1.0
C      1  0.5929090000000  0.4960490000000  0.4866150000000 1.0
C      1  0.5552200000000  0.5059110000000  0.5771180000000 1.0
C      1  0.4607800000000  0.4928420000000  0.5877850000000 1.0
C      1  0.4067070000000  0.5042790000000  0.5126470000000 1.0
C      1  0.4431330000000  0.4979010000000  0.4261050000000 1.0
C      1  0.5390450000000  0.5034050000000  0.4149950000000 1.0
C      1  0.4335630000000  0.4781740000000  0.4609590000000 1.0
C      1  0.5055300000000  0.5214860000000  0.4303200000000 1.0
C      1  0.5657500000000  0.4734030000000  0.4658000000000 1.0
C      1  0.5665350000000  0.5196160000000  0.5396930000000 1.0
C      1  0.4971140000000  0.4775390000000  0.5755500000000 1.0
C      1  0.4350890000000  0.5214970000000  0.5379590000000 1.0
C      1  0.4881440000000  0.5793420000000  0.5406800000000 1.0
C      1  0.4580420000000  0.4221860000000  0.5074850000000 1.0
C      1  0.4664030000000  0.5809090000000  0.4638910000000 1.0
C      1  0.5130600000000  0.4201510000000  0.4585880000000 1.0
C      1  0.5435340000000  0.5782730000000  0.4911560000000 1.0
C      1  0.5313480000000  0.4200290000000  0.5362890000000 1.0
C      1  0.4764260000000  0.5240860000000  0.4298370000000 1.0
C      1  0.5494480000000  0.4758080000000  0.4426200000000 1.0
C      1  0.5774390000000  0.5225930000000  0.5132850000000 1.0
C      1  0.5260840000000  0.4774510000000  0.5715750000000 1.0
C      1  0.4538880000000  0.5220750000000  0.5601010000000 1.0
C      1  0.4214860000000  0.4761600000000  0.4873210000000 1.0
C      1  0.4296200000000  0.4970290000000  0.5293010000000 1.0
C      1  0.4395500000000  0.5042400000000  0.4538240000000 1.0
C      1  0.5124010000000  0.4941830000000  0.4214160000000 1.0
C      1  0.5715360000000  0.5011590000000  0.4668820000000 1.0
C      1  0.5565510000000  0.4955770000000  0.5497260000000 1.0
C      1  0.4855430000000  0.5029740000000  0.5772500000000 1.0
C      1  0.5076660000000  0.4405670000000  0.4390280000000 1.0
C      1  0.5557140000000  0.5589460000000  0.4745070000000 1.0
C      1  0.5508670000000  0.4412240000000  0.5393760000000 1.0
C      1  0.4946000000000  0.5585900000000  0.5594200000000 1.0
C      1  0.4435810000000  0.4396180000000  0.5244150000000 1.0
C      1  0.4479210000000  0.5583930000000  0.4608450000000 1.0
C      1  0.5112120000000  0.4364000000000  0.5494880000000 1.0
C      1  0.4642750000000  0.5648600000000  0.5324830000000 1.0
C      1  0.4508190000000  0.4367810000000  0.4839610000000 1.0
C      1  0.4878150000000  0.5651750000000  0.4517340000000 1.0
C      1  0.5359460000000  0.4353790000000  0.4680110000000 1.0
C      1  0.5506580000000  0.5643150000000  0.5148660000000 1.0
C      1  0.4439130000000  0.4608340000000  0.5003590000000 1.0
C      1  0.4704440000000  0.5407350000000  0.4526510000000 1.0
C      1  0.5264080000000  0.4605360000000  0.4533920000000 1.0
C      1  0.5549600000000  0.5389050000000  0.4998630000000 1.0
C      1  0.5281670000000  0.4604940000000  0.5474030000000 1.0
C      1  0.4752510000000  0.5385740000000  0.5444060000000 1.0
C      1  0.5199070000000  0.5238730000000  0.5518280000000 1.0
C      1  0.4587500000000  0.4772170000000  0.5424920000000 1.0
C      1  0.4426230000000  0.5192650000000  0.4837780000000 1.0
C      1  0.4884730000000  0.4793060000000  0.4390760000000 1.0
C      1  0.5284440000000  0.5261350000000  0.4536880000000 1.0
C      1  0.5568120000000  0.4796400000000  0.5173370000000 1.0
C      1  0.5288820000000  0.5313890000000  0.4083840000000 1.0
C      1  0.5927480000000  0.4664990000000  0.4776390000000 1.0
C      1  0.5661510000000  0.5336330000000  0.5684200000000 1.0
C      1  0.4731360000000  0.4646900000000  0.5918340000000 1.0
C      1  0.4095250000000  0.5332410000000  0.5237290000000 1.0
C      1  0.4347380000000  0.4689070000000  0.4311750000000 1.0
C      1  0.5086550000000  0.5842520000000  0.5203670000000 1.0
C      1  0.4880840000000  0.4146770000000  0.5090790000000 1.0
C      1  0.4797760000000  0.5838900000000  0.4896610000000 1.0
C      1  0.4913410000000  0.4172460000000  0.4782030000000 1.0
C      1  0.5132850000000  0.5867710000000  0.4894070000000 1.0
C      1  0.5184390000000  0.4181320000000  0.5103520000000 1.0
C      1  0.5116200000000  0.4802470000000  0.5249270000000 1.0
C      1  0.4846220000000  0.5229530000000  0.5216110000000 1.0
C      1  0.4695950000000  0.4795340000000  0.4990490000000 1.0
C      1  0.4901770000000  0.5121680000000  0.4754280000000 1.0
C      1  0.5158220000000  0.4795120000000  0.4770350000000 1.0
C      1  0.5287700000000  0.5251170000000  0.5020690000000 1.0
END
