TITL C-2441158-471-236 0.0539283728976796 125000 -15687.0642530338 0 0 112 (C1) n - 1
REM
REM in /home/bkarasulu/work/CARBON/AIRSS/Generating-Clusters/ReaxFF-fromJPCA2015/Units_Real/with-SteepDescent/Higher-Symm
REM
REM
REM
REM
REM
REM ./C.cell (1df0a924f5614ab8850e4351716899ee)
REM
REM compiler GCC version 9.2.1 20190827 (Red Hat 9.2.1-1)
REM options -cpp -mtune=generic -march=x86-64 -g -O0 -fpre-include=/usr/include/finclude/math-vector-fortran.h
REM seed -893329493 1286485019 1995058335 -923929292 1324241226 -1371531017 1240727980 -2017771681 1381435334 1708294277 770825902 -130763484 631011205 1058816898 -1478418867 71284628 -597175065 -148140143 1647106374 964424530 -63734099 1122650199 124594727 -797372097 813525837 -2027423468 -1392258351 1206324305 1556130151 -1620842454 1641986305 -64203584 545816972
REM
CELL 1.54180   50.00000   50.00000   50.00000   90.00000   90.00000   90.00000
LATT -1
SFAC C  
C      1  0.5064750000000  0.4106930000000  0.5143310000000 1.0
C      1  0.4563240000000  0.4215740000000  0.5135270000000 1.0
C      1  0.4203470000000  0.4571270000000  0.5142260000000 1.0
C      1  0.4087430000000  0.5065180000000  0.5140720000000 1.0
C      1  0.4270560000000  0.5536090000000  0.5136210000000 1.0
C      1  0.4693240000000  0.5842000000000  0.5139380000000 1.0
C      1  0.5190360000000  0.5865940000000  0.5152620000000 1.0
C      1  0.5629070000000  0.5628220000000  0.5134960000000 1.0
C      1  0.5873040000000  0.5173910000000  0.5138310000000 1.0
C      1  0.5836290000000  0.4678470000000  0.5143530000000 1.0
C      1  0.5543390000000  0.4266570000000  0.5139610000000 1.0
C      1  0.5529920000000  0.4271110000000  0.4850080000000 1.0
C      1  0.5052460000000  0.4107460000000  0.4851140000000 1.0
C      1  0.4554920000000  0.4207940000000  0.4847630000000 1.0
C      1  0.4201120000000  0.4571150000000  0.4859490000000 1.0
C      1  0.4103920000000  0.5072440000000  0.4852820000000 1.0
C      1  0.4276610000000  0.5549500000000  0.4848980000000 1.0
C      1  0.4693350000000  0.5849890000000  0.4850810000000 1.0
C      1  0.5193170000000  0.5872510000000  0.4862740000000 1.0
C      1  0.5631400000000  0.5631180000000  0.4843310000000 1.0
C      1  0.5870050000000  0.5176410000000  0.4846450000000 1.0
C      1  0.5833840000000  0.4679280000000  0.4858890000000 1.0
C      1  0.4817080000000  0.4187560000000  0.5275380000000 1.0
C      1  0.4388670000000  0.4404250000000  0.5273100000000 1.0
C      1  0.4170080000000  0.4821080000000  0.5275090000000 1.0
C      1  0.4193280000000  0.5300990000000  0.5282620000000 1.0
C      1  0.4519920000000  0.5636610000000  0.5266720000000 1.0
C      1  0.4940400000000  0.5833050000000  0.5280020000000 1.0
C      1  0.5397700000000  0.5721690000000  0.5282380000000 1.0
C      1  0.5743220000000  0.5397780000000  0.5270920000000 1.0
C      1  0.5828470000000  0.4924500000000  0.5278110000000 1.0
C      1  0.5686230000000  0.4477900000000  0.5277060000000 1.0
C      1  0.5300900000000  0.4198320000000  0.5281230000000 1.0
C      1  0.5697530000000  0.4464730000000  0.4705480000000 1.0
C      1  0.5294910000000  0.4180380000000  0.4698380000000 1.0
C      1  0.4800490000000  0.4136690000000  0.4704350000000 1.0
C      1  0.4360460000000  0.4380440000000  0.4703510000000 1.0
C      1  0.4135320000000  0.4814650000000  0.4711080000000 1.0
C      1  0.4181410000000  0.5308400000000  0.4695670000000 1.0
C      1  0.4471200000000  0.5716310000000  0.4711960000000 1.0
C      1  0.4949280000000  0.5868010000000  0.4716660000000 1.0
C      1  0.5408790000000  0.5751180000000  0.4702740000000 1.0
C      1  0.5760570000000  0.5410460000000  0.4691790000000 1.0
C      1  0.5856840000000  0.4923910000000  0.4709310000000 1.0
C      1  0.4675660000000  0.4676420000000  0.5005380000000 1.0
C      1  0.4591900000000  0.4905990000000  0.5143570000000 1.0
C      1  0.4590410000000  0.5138490000000  0.4996290000000 1.0
C      1  0.4688680000000  0.5396550000000  0.5095220000000 1.0
C      1  0.4923830000000  0.5399390000000  0.5060740000000 1.0
C      1  0.5188300000000  0.5405760000000  0.5023770000000 1.0
C      1  0.5402790000000  0.5209230000000  0.5026840000000 1.0
C      1  0.5376180000000  0.4964240000000  0.5173480000000 1.0
C      1  0.5328950000000  0.4735000000000  0.5007290000000 1.0
C      1  0.5138240000000  0.4562680000000  0.5130980000000 1.0
C      1  0.4908840000000  0.4619060000000  0.5068730000000 1.0
C      1  0.5471540000000  0.5237830000000  0.4256660000000 1.0
C      1  0.5543370000000  0.4943430000000  0.4207850000000 1.0
C      1  0.5428220000000  0.4663530000000  0.4258900000000 1.0
C      1  0.5179820000000  0.4474340000000  0.4235510000000 1.0
C      1  0.4875530000000  0.4450660000000  0.4228600000000 1.0
C      1  0.4610870000000  0.4593180000000  0.4249010000000 1.0
C      1  0.4503310000000  0.4896340000000  0.4306440000000 1.0
C      1  0.4489650000000  0.5221220000000  0.4237460000000 1.0
C      1  0.4689410000000  0.5446530000000  0.4227610000000 1.0
C      1  0.4967970000000  0.5516900000000  0.4197190000000 1.0
C      1  0.5253300000000  0.5456120000000  0.4249030000000 1.0
C      1  0.5711550000000  0.4946970000000  0.4447450000000 1.0
C      1  0.5599350000000  0.4546910000000  0.4448120000000 1.0
C      1  0.5270500000000  0.4297640000000  0.4432120000000 1.0
C      1  0.4812470000000  0.4263680000000  0.4438570000000 1.0
C      1  0.4458440000000  0.4472600000000  0.4449000000000 1.0
C      1  0.4223150000000  0.4833110000000  0.4428740000000 1.0
C      1  0.4290800000000  0.5248870000000  0.4435620000000 1.0
C      1  0.4538980000000  0.5575090000000  0.4460000000000 1.0
C      1  0.5018670000000  0.5733030000000  0.4452380000000 1.0
C      1  0.5317710000000  0.5685690000000  0.4428490000000 1.0
C      1  0.5607980000000  0.5373020000000  0.4453760000000 1.0
C      1  0.5462880000000  0.4963750000000  0.4603020000000 1.0
C      1  0.5359150000000  0.4725080000000  0.4729220000000 1.0
C      1  0.5104900000000  0.4626940000000  0.4678330000000 1.0
C      1  0.4876190000000  0.4536290000000  0.4631560000000 1.0
C      1  0.4664080000000  0.4693040000000  0.4732370000000 1.0
C      1  0.4622430000000  0.4913900000000  0.4574020000000 1.0
C      1  0.4626740000000  0.5142700000000  0.4728270000000 1.0
C      1  0.4709260000000  0.5395680000000  0.4631460000000 1.0
C      1  0.4963480000000  0.5465380000000  0.4596270000000 1.0
C      1  0.5173890000000  0.5364300000000  0.4740370000000 1.0
C      1  0.5381140000000  0.5187250000000  0.4751840000000 1.0
C      1  0.5242830000000  0.4453510000000  0.5410300000000 1.0
C      1  0.4797940000000  0.4398500000000  0.5476220000000 1.0
C      1  0.4554720000000  0.4526970000000  0.5471080000000 1.0
C      1  0.4426720000000  0.4920700000000  0.5371220000000 1.0
C      1  0.4402620000000  0.5194930000000  0.5458530000000 1.0
C      1  0.4669030000000  0.5523970000000  0.5490960000000 1.0
C      1  0.4922830000000  0.5609760000000  0.5467610000000 1.0
C      1  0.5349380000000  0.5516120000000  0.5479340000000 1.0
C      1  0.5543180000000  0.5325340000000  0.5467760000000 1.0
C      1  0.5570560000000  0.4885090000000  0.5415960000000 1.0
C      1  0.5504050000000  0.4593730000000  0.5476920000000 1.0
C      1  0.4861810000000  0.4505080000000  0.5740730000000 1.0
C      1  0.4595150000000  0.4662110000000  0.5739270000000 1.0
C      1  0.4552220000000  0.4929780000000  0.5770580000000 1.0
C      1  0.4506770000000  0.5202330000000  0.5737340000000 1.0
C      1  0.4705720000000  0.5429610000000  0.5758410000000 1.0
C      1  0.4987500000000  0.5509660000000  0.5731500000000 1.0
C      1  0.5262160000000  0.5429830000000  0.5743910000000 1.0
C      1  0.5456740000000  0.5210560000000  0.5723040000000 1.0
C      1  0.5482730000000  0.4929650000000  0.5696630000000 1.0
C      1  0.5380060000000  0.4670590000000  0.5754050000000 1.0
C      1  0.5140880000000  0.4531910000000  0.5686670000000 1.0
C      1  0.5042520000000  0.4999530000000  0.5241790000000 1.0
C      1  0.4977930000000  0.5003050000000  0.5495650000000 1.0
END
