TITL C-2441159-1093-899 0.0201012957620642 125000 -11659.5464708368 0 0 83 (C1) n - 1
REM
REM in /home/bkarasulu/work/CARBON/AIRSS/Generating-Clusters/ReaxFF-fromJPCA2015/Units_Real/with-SteepDescent/Higher-Symm
REM
REM
REM
REM
REM
REM ./C.cell (1df0a924f5614ab8850e4351716899ee)
REM
REM compiler GCC version 9.2.1 20190827 (Red Hat 9.2.1-1)
REM options -cpp -mtune=generic -march=x86-64 -g -O0 -fpre-include=/usr/include/finclude/math-vector-fortran.h
REM seed 732780710 418182364 323770269 1032999267 969199478 755755171 -91497220 -1745506055 1765531832 -1345691414 -1801908131 -643926400 -706462254 1975215709 987485728 -610895 -1347798747 -1020788923 -1392872337 1334087929 1140682243 379559852 1717553450 778123638 -1186918132 1002059822 941285350 673485235 -1462162656 -795588966 364251556 -1359111770 -951036205
REM
CELL 1.54180   50.00000   50.00000   50.00000   90.00000   90.00000   90.00000
LATT -1
SFAC C  
C      1  0.4848370000000  0.4292210000000  0.4665010000000 1.0
C      1  0.5717640000000  0.5213260000000  0.4662190000000 1.0
C      1  0.4450240000000  0.5493960000000  0.4672630000000 1.0
C      1  0.4384490000000  0.5374950000000  0.5200020000000 1.0
C      1  0.4967760000000  0.4251670000000  0.5187880000000 1.0
C      1  0.5698560000000  0.5319490000000  0.5191170000000 1.0
C      1  0.4849040000000  0.5290660000000  0.5762650000000 1.0
C      1  0.4825070000000  0.4752650000000  0.5714050000000 1.0
C      1  0.5297370000000  0.4969840000000  0.5683700000000 1.0
C      1  0.4723130000000  0.5687600000000  0.4998340000000 1.0
C      1  0.4507060000000  0.4402290000000  0.5007730000000 1.0
C      1  0.5804230000000  0.4888220000000  0.4999660000000 1.0
C      1  0.5133030000000  0.5490330000000  0.4638720000000 1.0
C      1  0.4457720000000  0.4847770000000  0.4594280000000 1.0
C      1  0.5377150000000  0.4620410000000  0.4620980000000 1.0
C      1  0.5305780000000  0.4144820000000  0.4822450000000 1.0
C      1  0.5587140000000  0.5666130000000  0.4818560000000 1.0
C      1  0.4108070000000  0.5153910000000  0.4821150000000 1.0
C      1  0.5122760000000  0.5235100000000  0.5048420000000 1.0
C      1  0.4694010000000  0.4866700000000  0.5031420000000 1.0
C      1  0.5128010000000  0.4691740000000  0.5117230000000 1.0
C      1  0.4653180000000  0.5702650000000  0.4717900000000 1.0
C      1  0.4570160000000  0.4349060000000  0.4719290000000 1.0
C      1  0.5801490000000  0.4936850000000  0.4712170000000 1.0
C      1  0.4692580000000  0.4528900000000  0.5404930000000 1.0
C      1  0.5560250000000  0.4885500000000  0.5332960000000 1.0
C      1  0.4833200000000  0.5531160000000  0.5361630000000 1.0
C      1  0.5553000000000  0.4411500000000  0.5269800000000 1.0
C      1  0.5253340000000  0.5793450000000  0.5330910000000 1.0
C      1  0.4149650000000  0.4789390000000  0.5294610000000 1.0
C      1  0.4655790000000  0.5139140000000  0.4913210000000 1.0
C      1  0.4920110000000  0.4682460000000  0.4932530000000 1.0
C      1  0.5316060000000  0.5082830000000  0.4915640000000 1.0
C      1  0.4225570000000  0.4880370000000  0.4770100000000 1.0
C      1  0.5470390000000  0.4397520000000  0.4775970000000 1.0
C      1  0.5284840000000  0.5685250000000  0.4795190000000 1.0
C      1  0.5592650000000  0.4524220000000  0.5018730000000 1.0
C      1  0.5181700000000  0.5766390000000  0.5063640000000 1.0
C      1  0.4228110000000  0.4702360000000  0.5012500000000 1.0
C      1  0.4979860000000  0.5544240000000  0.5098440000000 1.0
C      1  0.4486530000000  0.4671990000000  0.5044490000000 1.0
C      1  0.5508760000000  0.4833950000000  0.5047790000000 1.0
C      1  0.4452150000000  0.5174840000000  0.5399700000000 1.0
C      1  0.5118100000000  0.4368760000000  0.5412880000000 1.0
C      1  0.5478640000000  0.5294410000000  0.5356090000000 1.0
C      1  0.5026220000000  0.4197160000000  0.4898140000000 1.0
C      1  0.5705440000000  0.5407300000000  0.4890060000000 1.0
C      1  0.4291720000000  0.5369020000000  0.4907980000000 1.0
C      1  0.4637500000000  0.5352310000000  0.4500120000000 1.0
C      1  0.4867330000000  0.4534370000000  0.4494610000000 1.0
C      1  0.5491450000000  0.5113100000000  0.4501790000000 1.0
C      1  0.5792380000000  0.5046890000000  0.5254070000000 1.0
C      1  0.4576720000000  0.5591450000000  0.5228970000000 1.0
C      1  0.4693450000000  0.4327490000000  0.5213930000000 1.0
C      1  0.4678480000000  0.5066740000000  0.4608010000000 1.0
C      1  0.5059040000000  0.4698120000000  0.4645280000000 1.0
C      1  0.5228020000000  0.5181340000000  0.4637310000000 1.0
C      1  0.5441460000000  0.4757270000000  0.5561710000000 1.0
C      1  0.4935420000000  0.5544300000000  0.5640960000000 1.0
C      1  0.4568340000000  0.4722480000000  0.5588390000000 1.0
C      1  0.5153540000000  0.5700730000000  0.5544790000000 1.0
C      1  0.4349150000000  0.4906160000000  0.5473870000000 1.0
C      1  0.5387390000000  0.4455470000000  0.5489070000000 1.0
C      1  0.4722030000000  0.5170060000000  0.5534740000000 1.0
C      1  0.4939650000000  0.4564530000000  0.5522460000000 1.0
C      1  0.5266160000000  0.5208000000000  0.5522450000000 1.0
C      1  0.4577000000000  0.4588190000000  0.4538840000000 1.0
C      1  0.5562100000000  0.4829880000000  0.4552390000000 1.0
C      1  0.4859820000000  0.5542370000000  0.4557450000000 1.0
C      1  0.5003840000000  0.4985730000000  0.6329450000000 1.0
C      1  0.5001430000000  0.5001330000000  0.5811900000000 1.0
C      1  0.4993030000000  0.4988200000000  0.6833250000000 1.0
C      1  0.4997560000000  0.4989740000000  0.3079200000000 1.0
C      1  0.4980030000000  0.5132300000000  0.5416370000000 1.0
C      1  0.5012570000000  0.4999760000000  0.5177450000000 1.0
C      1  0.4986820000000  0.4924790000000  0.4065150000000 1.0
C      1  0.4998500000000  0.5001150000000  0.3320070000000 1.0
C      1  0.4991910000000  0.4968940000000  0.4547030000000 1.0
C      1  0.4980060000000  0.4872840000000  0.4289480000000 1.0
C      1  0.4997570000000  0.4985510000000  0.6594160000000 1.0
C      1  0.5003160000000  0.4992600000000  0.6097030000000 1.0
C      1  0.4997750000000  0.5003710000000  0.3578540000000 1.0
C      1  0.4994410000000  0.4983220000000  0.3811760000000 1.0
END
