TITL C-2441164-471-1260 0.0052977864292576 125000 -9436.26252420343 0 0 72 (Ci) n - 1
REM
REM in /home/bkarasulu/work/CARBON/AIRSS/Generating-Clusters/ReaxFF-fromJPCA2015/Units_Real/with-SteepDescent/Higher-Symm
REM
REM
REM
REM
REM
REM ./C.cell (1df0a924f5614ab8850e4351716899ee)
REM
REM compiler GCC version 9.2.1 20190827 (Red Hat 9.2.1-1)
REM options -cpp -mtune=generic -march=x86-64 -g -O0 -fpre-include=/usr/include/finclude/math-vector-fortran.h
REM seed 310911118 1307840228 304727211 1367533610 420522880 1921977400 276952382 2005063246 -476774806 1767750640 -1184015090 1253366682 13646928 1107089603 1951121886 823408370 163257160 525082459 -1618200156 385370636 -300523147 -958914294 -2035760063 -1312896072 1388384552 1366490549 -1728468838 1501299211 579531686 -600021000 -1166472853 881306857 -969775945
REM
CELL 1.54180   50.00000   50.00000   50.00000   90.00000   90.00000   90.00000
LATT -1
SFAC C  
C      1  0.5540500000000  0.5143710000000  0.5268860000000 1.0
C      1  0.4459390000000  0.5141530000000  0.4730970000000 1.0
C      1  0.5541260000000  0.4858810000000  0.5269820000000 1.0
C      1  0.4460010000000  0.4855590000000  0.4731530000000 1.0
C      1  0.5547680000000  0.5142030000000  0.4730800000000 1.0
C      1  0.4452850000000  0.5144220000000  0.5268070000000 1.0
C      1  0.5547810000000  0.4854820000000  0.4730990000000 1.0
C      1  0.4453430000000  0.4857560000000  0.5268580000000 1.0
C      1  0.5297240000000  0.5527810000000  0.4874440000000 1.0
C      1  0.4710400000000  0.5523470000000  0.5129670000000 1.0
C      1  0.5285950000000  0.4479740000000  0.4867540000000 1.0
C      1  0.4699560000000  0.4469710000000  0.5123810000000 1.0
C      1  0.5379750000000  0.5636480000000  0.5141960000000 1.0
C      1  0.4626890000000  0.5624650000000  0.4862210000000 1.0
C      1  0.5367170000000  0.4387480000000  0.5135260000000 1.0
C      1  0.4619300000000  0.4357910000000  0.4855270000000 1.0
C      1  0.4829780000000  0.4656960000000  0.5540010000000 1.0
C      1  0.5169660000000  0.4658620000000  0.4455300000000 1.0
C      1  0.4830220000000  0.5341310000000  0.5542280000000 1.0
C      1  0.5169960000000  0.5342520000000  0.4460240000000 1.0
C      1  0.4842050000000  0.4654020000000  0.4473330000000 1.0
C      1  0.5158780000000  0.4659270000000  0.5531280000000 1.0
C      1  0.4841940000000  0.5342170000000  0.4472550000000 1.0
C      1  0.5159210000000  0.5345300000000  0.5526800000000 1.0
C      1  0.5351050000000  0.4465110000000  0.5387380000000 1.0
C      1  0.4647810000000  0.4456400000000  0.4610920000000 1.0
C      1  0.5353130000000  0.5541870000000  0.5388310000000 1.0
C      1  0.4648750000000  0.5537070000000  0.4612500000000 1.0
C      1  0.5358730000000  0.4471950000000  0.4602820000000 1.0
C      1  0.4639340000000  0.4471940000000  0.5391640000000 1.0
C      1  0.5360160000000  0.5527610000000  0.4607780000000 1.0
C      1  0.4641960000000  0.5527580000000  0.5394200000000 1.0
C      1  0.5274710000000  0.4890730000000  0.4270760000000 1.0
C      1  0.4724060000000  0.4887410000000  0.5728150000000 1.0
C      1  0.5275100000000  0.5112460000000  0.4271750000000 1.0
C      1  0.4724890000000  0.5109180000000  0.5728170000000 1.0
C      1  0.5266710000000  0.4892110000000  0.5716920000000 1.0
C      1  0.4734490000000  0.4887310000000  0.4288280000000 1.0
C      1  0.5266460000000  0.5113710000000  0.5714290000000 1.0
C      1  0.4734310000000  0.5108790000000  0.4287120000000 1.0
C      1  0.4189540000000  0.4843040000000  0.5149850000000 1.0
C      1  0.5810320000000  0.4840280000000  0.4850880000000 1.0
C      1  0.4189700000000  0.5158890000000  0.5149450000000 1.0
C      1  0.5810920000000  0.5155960000000  0.4850660000000 1.0
C      1  0.4193140000000  0.4842830000000  0.4846400000000 1.0
C      1  0.5806590000000  0.4840910000000  0.5154940000000 1.0
C      1  0.4193160000000  0.5157550000000  0.4845330000000 1.0
C      1  0.5807120000000  0.5156530000000  0.5154050000000 1.0
C      1  0.5577830000000  0.5377230000000  0.4636820000000 1.0
C      1  0.4423130000000  0.5378860000000  0.5363310000000 1.0
C      1  0.5577400000000  0.4620470000000  0.4636480000000 1.0
C      1  0.4421630000000  0.4622490000000  0.5363830000000 1.0
C      1  0.5571280000000  0.5380950000000  0.5360820000000 1.0
C      1  0.4429620000000  0.5377060000000  0.4635920000000 1.0
C      1  0.5570920000000  0.4623630000000  0.5367230000000 1.0
C      1  0.4430410000000  0.4617980000000  0.4640410000000 1.0
C      1  0.5131360000000  0.4230170000000  0.4829110000000 1.0
C      1  0.4867640000000  0.4230090000000  0.5165910000000 1.0
C      1  0.5131720000000  0.5769460000000  0.4833240000000 1.0
C      1  0.4870260000000  0.5769680000000  0.5169400000000 1.0
C      1  0.5161050000000  0.4209730000000  0.5139900000000 1.0
C      1  0.4838780000000  0.4197660000000  0.4855580000000 1.0
C      1  0.5162790000000  0.5800520000000  0.5143350000000 1.0
C      1  0.4837780000000  0.5795100000000  0.4858390000000 1.0
C      1  0.5151270000000  0.4854910000000  0.4706830000000 1.0
C      1  0.4850190000000  0.4853620000000  0.5292100000000 1.0
C      1  0.5150750000000  0.5145250000000  0.4709630000000 1.0
C      1  0.4849380000000  0.5144430000000  0.5293060000000 1.0
C      1  0.5143900000000  0.4853210000000  0.5284950000000 1.0
C      1  0.4858180000000  0.4850100000000  0.4718010000000 1.0
C      1  0.5142670000000  0.5148730000000  0.5283890000000 1.0
C      1  0.4857130000000  0.5145760000000  0.4717780000000 1.0
END
