TITL C-2441164-471-34 0.0242521813878526 125000 -8212.29299921222 0 0 66 (C1) n - 1
REM
REM in /home/bkarasulu/work/CARBON/AIRSS/Generating-Clusters/ReaxFF-fromJPCA2015/Units_Real/with-SteepDescent/Higher-Symm
REM
REM
REM
REM
REM
REM ./C.cell (1df0a924f5614ab8850e4351716899ee)
REM
REM compiler GCC version 9.2.1 20190827 (Red Hat 9.2.1-1)
REM options -cpp -mtune=generic -march=x86-64 -g -O0 -fpre-include=/usr/include/finclude/math-vector-fortran.h
REM seed 1413471266 1547970065 599130604 -2035583054 1060967690 -1522112820 1391878998 -1128667242 -1725899146 -1142620943 261395450 2035229563 -1804327561 -1856791163 757904753 -1642356990 -1934874955 -1063769669 -669973214 313547946 -374998626 750399477 -195615892 -333626513 -1481751465 1754365303 249160551 552967377 -474563572 1335530987 -818436295 317805603 1208958454
REM
CELL 1.54180   50.00000   50.00000   50.00000   90.00000   90.00000   90.00000
LATT -1
SFAC C  
C      1  0.4858150000000  0.4944760000000  0.4977800000000 1.0
C      1  0.5162590000000  0.4939680000000  0.4979200000000 1.0
C      1  0.4818590000000  0.5673240000000  0.5091160000000 1.0
C      1  0.5177560000000  0.5674480000000  0.5090790000000 1.0
C      1  0.5233050000000  0.4686170000000  0.4849250000000 1.0
C      1  0.4768270000000  0.4700410000000  0.4829890000000 1.0
C      1  0.4466940000000  0.5333080000000  0.4483430000000 1.0
C      1  0.5541440000000  0.5332170000000  0.4488350000000 1.0
C      1  0.4582070000000  0.4455080000000  0.5313760000000 1.0
C      1  0.5421910000000  0.4462670000000  0.5316790000000 1.0
C      1  0.4431850000000  0.4947370000000  0.5412920000000 1.0
C      1  0.5581990000000  0.4966810000000  0.5378330000000 1.0
C      1  0.5514870000000  0.5068880000000  0.4893440000000 1.0
C      1  0.4479980000000  0.5070980000000  0.4891300000000 1.0
C      1  0.5227510000000  0.5376860000000  0.5094610000000 1.0
C      1  0.4774000000000  0.5371260000000  0.5087320000000 1.0
C      1  0.5745330000000  0.5079000000000  0.5016110000000 1.0
C      1  0.4244140000000  0.5128300000000  0.4964720000000 1.0
C      1  0.4843970000000  0.5035020000000  0.4507150000000 1.0
C      1  0.5163930000000  0.5058600000000  0.4511350000000 1.0
C      1  0.5575780000000  0.5146410000000  0.5166830000000 1.0
C      1  0.4398430000000  0.5128920000000  0.5194240000000 1.0
C      1  0.4690890000000  0.5695880000000  0.4809740000000 1.0
C      1  0.5306760000000  0.5691620000000  0.4810810000000 1.0
C      1  0.5405480000000  0.5089520000000  0.5595140000000 1.0
C      1  0.4601100000000  0.5089740000000  0.5605540000000 1.0
C      1  0.4845540000000  0.4952550000000  0.5708390000000 1.0
C      1  0.5164500000000  0.4952820000000  0.5699250000000 1.0
C      1  0.4490080000000  0.4581750000000  0.4556020000000 1.0
C      1  0.5454910000000  0.4598320000000  0.4530990000000 1.0
C      1  0.5121920000000  0.4483900000000  0.5043880000000 1.0
C      1  0.4862000000000  0.4484800000000  0.5037090000000 1.0
C      1  0.5591440000000  0.4830780000000  0.4537540000000 1.0
C      1  0.4400920000000  0.4822850000000  0.4529760000000 1.0
C      1  0.5142510000000  0.5288450000000  0.4745420000000 1.0
C      1  0.4854530000000  0.5296930000000  0.4753250000000 1.0
C      1  0.5326780000000  0.5225190000000  0.4312490000000 1.0
C      1  0.4680220000000  0.5216250000000  0.4317950000000 1.0
C      1  0.5147280000000  0.5558570000000  0.4603800000000 1.0
C      1  0.4855410000000  0.5559340000000  0.4604600000000 1.0
C      1  0.4852360000000  0.4475620000000  0.5426580000000 1.0
C      1  0.5151660000000  0.4472860000000  0.5432020000000 1.0
C      1  0.4849910000000  0.4919930000000  0.5269070000000 1.0
C      1  0.5148730000000  0.4929320000000  0.5266140000000 1.0
C      1  0.5146670000000  0.4276730000000  0.4840820000000 1.0
C      1  0.4864560000000  0.4274040000000  0.4838090000000 1.0
C      1  0.4439340000000  0.4499110000000  0.5067860000000 1.0
C      1  0.5562050000000  0.4505550000000  0.5069110000000 1.0
C      1  0.4867330000000  0.4735190000000  0.4543960000000 1.0
C      1  0.5163730000000  0.4728060000000  0.4538800000000 1.0
C      1  0.4336930000000  0.5084380000000  0.4599350000000 1.0
C      1  0.5667580000000  0.5085420000000  0.4625210000000 1.0
C      1  0.5376250000000  0.5540040000000  0.5284230000000 1.0
C      1  0.4621590000000  0.5535310000000  0.5277020000000 1.0
C      1  0.4507710000000  0.4713680000000  0.5255050000000 1.0
C      1  0.5493240000000  0.4718820000000  0.5250130000000 1.0
C      1  0.4860340000000  0.5229880000000  0.5343650000000 1.0
C      1  0.5143510000000  0.5230300000000  0.5339600000000 1.0
C      1  0.4455350000000  0.5550700000000  0.4708370000000 1.0
C      1  0.5546680000000  0.5545970000000  0.4711140000000 1.0
C      1  0.4548950000000  0.4436150000000  0.4800320000000 1.0
C      1  0.5432680000000  0.4454080000000  0.4805120000000 1.0
C      1  0.5148250000000  0.4662270000000  0.5672340000000 1.0
C      1  0.4856710000000  0.4664680000000  0.5672820000000 1.0
C      1  0.5359190000000  0.5366650000000  0.5514030000000 1.0
C      1  0.4644100000000  0.5365880000000  0.5508720000000 1.0
END
