TITL C-2441156-4686-278 0.00297284746698001 125000 -7626.41031271395 0 0 53 (C1) n - 1
REM
REM in /home/bkarasulu/work/CARBON/AIRSS/Generating-Clusters/ReaxFF-fromJPCA2015/Units_Real/with-SteepDescent/Higher-Symm
REM
REM
REM
REM
REM
REM ./C.cell (1df0a924f5614ab8850e4351716899ee)
REM
REM compiler GCC version 9.2.1 20190827 (Red Hat 9.2.1-1)
REM options -cpp -mtune=generic -march=x86-64 -g -O0 -fpre-include=/usr/include/finclude/math-vector-fortran.h
REM seed 422754296 235227315 -99688158 -1737245462 -292381435 100072603 -1939765392 -1250339626 913232696 -1881126448 1919050285 -228131774 -1280540745 1370031959 1535283701 -590268032 -1943225956 -972756382 -330984932 -1444103827 -1841299000 -222363549 -410694163 -1438421616 -380243652 1463059948 1952930524 -1941564351 1574919229 33637210 2134760413 1278406881 1170308750
REM
CELL 1.54180   50.00000   50.00000   50.00000   90.00000   90.00000   90.00000
LATT -1
SFAC C  
C      1  0.5279250000000  0.4906640000000  0.5429730000000 1.0
C      1  0.4700130000000  0.5021860000000  0.5412500000000 1.0
C      1  0.4525320000000  0.4924590000000  0.4835160000000 1.0
C      1  0.5015990000000  0.5001530000000  0.4429130000000 1.0
C      1  0.5532590000000  0.4921950000000  0.4842150000000 1.0
C      1  0.5028710000000  0.4963080000000  0.4753380000000 1.0
C      1  0.5251470000000  0.4954890000000  0.4918350000000 1.0
C      1  0.5126560000000  0.4875760000000  0.5170730000000 1.0
C      1  0.4888340000000  0.5065660000000  0.5140960000000 1.0
C      1  0.4798300000000  0.4951500000000  0.4906860000000 1.0
C      1  0.5231430000000  0.4450220000000  0.5451960000000 1.0
C      1  0.4680720000000  0.4468790000000  0.5327110000000 1.0
C      1  0.4595960000000  0.4451850000000  0.4775560000000 1.0
C      1  0.5080350000000  0.4378810000000  0.4605650000000 1.0
C      1  0.5433510000000  0.4427670000000  0.4974590000000 1.0
C      1  0.5519940000000  0.4610060000000  0.4764900000000 1.0
C      1  0.5408700000000  0.4661830000000  0.5462070000000 1.0
C      1  0.4738620000000  0.4702420000000  0.5474900000000 1.0
C      1  0.4445710000000  0.4650000000000  0.4884250000000 1.0
C      1  0.4914690000000  0.4723300000000  0.4438720000000 1.0
C      1  0.4543370000000  0.5161860000000  0.4597820000000 1.0
C      1  0.5304380000000  0.5173910000000  0.4457380000000 1.0
C      1  0.5643990000000  0.5155670000000  0.5050320000000 1.0
C      1  0.5153270000000  0.5120210000000  0.5597060000000 1.0
C      1  0.4475180000000  0.5185610000000  0.5281360000000 1.0
C      1  0.5213940000000  0.5634290000000  0.4670490000000 1.0
C      1  0.5228950000000  0.5642590000000  0.5102980000000 1.0
C      1  0.4911930000000  0.5653440000000  0.5360630000000 1.0
C      1  0.4679430000000  0.5649210000000  0.5184790000000 1.0
C      1  0.4922430000000  0.5623370000000  0.4676410000000 1.0
C      1  0.4940380000000  0.4495830000000  0.5484670000000 1.0
C      1  0.4554900000000  0.4460320000000  0.5058840000000 1.0
C      1  0.4806240000000  0.4490420000000  0.4559590000000 1.0
C      1  0.5326700000000  0.4516450000000  0.4584460000000 1.0
C      1  0.5453180000000  0.4464180000000  0.5262780000000 1.0
C      1  0.4400150000000  0.5158450000000  0.5001450000000 1.0
C      1  0.4770620000000  0.5202780000000  0.4428180000000 1.0
C      1  0.5526710000000  0.5154940000000  0.4639570000000 1.0
C      1  0.5519000000000  0.5204510000000  0.5295790000000 1.0
C      1  0.4870890000000  0.5192820000000  0.5591160000000 1.0
C      1  0.5208970000000  0.5442600000000  0.4431810000000 1.0
C      1  0.5409620000000  0.5595910000000  0.4890080000000 1.0
C      1  0.5121300000000  0.5483130000000  0.5258180000000 1.0
C      1  0.4542450000000  0.5458570000000  0.5358030000000 1.0
C      1  0.4759040000000  0.5507440000000  0.4920350000000 1.0
C      1  0.4904900000000  0.5461020000000  0.4434040000000 1.0
C      1  0.5580540000000  0.5356080000000  0.4851560000000 1.0
C      1  0.5325450000000  0.5313720000000  0.5465240000000 1.0
C      1  0.4771000000000  0.5465760000000  0.5546610000000 1.0
C      1  0.4507970000000  0.5345610000000  0.4811540000000 1.0
C      1  0.5032860000000  0.4588980000000  0.5061620000000 1.0
C      1  0.5132180000000  0.4371920000000  0.4919170000000 1.0
C      1  0.4963830000000  0.5333770000000  0.5070520000000 1.0
END
