TITL C-2441169-1362-322 -0.000677967237454483 125000 -4156.15907321749 0 0 30 (C5) n - 1
REM
REM in /home/bkarasulu/work/CARBON/AIRSS/Generating-Clusters/ReaxFF-fromJPCA2015/Units_Real/with-SteepDescent/Higher-Symm
REM
REM
REM
REM
REM
REM ./C.cell (1df0a924f5614ab8850e4351716899ee)
REM
REM compiler GCC version 9.2.1 20190827 (Red Hat 9.2.1-1)
REM options -cpp -mtune=generic -march=x86-64 -g -O0 -fpre-include=/usr/include/finclude/math-vector-fortran.h
REM seed 1051157999 -2062756246 -353582740 897695018 1181789980 236151891 -648507253 -1697636773 600761416 543189529 1216585401 -442029285 -211346309 -350882453 -1399454919 -1352261744 355549852 -912578922 -56740913 -1952658231 -2039517497 -218959937 -2090769833 -1563157693 1603357782 -218315641 556906268 166026832 -288623011 1670412422 1773954518 791156863 1806947210
REM
CELL 1.54180   50.00000   50.00000   50.00000   90.00000   90.00000   90.00000
LATT -1
SFAC C  
C      1  0.5013880000000  0.4751990000000  0.5345390000000 1.0
C      1  0.4768200000000  0.4909920000000  0.5345490000000 1.0
C      1  0.4843410000000  0.5193170000000  0.5345520000000 1.0
C      1  0.5135090000000  0.5208490000000  0.5345350000000 1.0
C      1  0.5239510000000  0.4936410000000  0.5345610000000 1.0
C      1  0.5443850000000  0.5067130000000  0.4553410000000 1.0
C      1  0.5201220000000  0.4598440000000  0.4553550000000 1.0
C      1  0.4679730000000  0.4684080000000  0.4554230000000 1.0
C      1  0.4600840000000  0.5206900000000  0.4554000000000 1.0
C      1  0.5073570000000  0.5443620000000  0.4554100000000 1.0
C      1  0.5049340000000  0.5302750000000  0.4771990000000 1.0
C      1  0.5303480000000  0.5046770000000  0.4771890000000 1.0
C      1  0.5138400000000  0.4726040000000  0.4771860000000 1.0
C      1  0.4782320000000  0.4783880000000  0.4772030000000 1.0
C      1  0.4727200000000  0.5140410000000  0.4771980000000 1.0
C      1  0.4621970000000  0.4622050000000  0.5009670000000 1.0
C      1  0.4523840000000  0.5242850000000  0.5009650000000 1.0
C      1  0.5083800000000  0.5527950000000  0.5009490000000 1.0
C      1  0.5527920000000  0.5083730000000  0.5009710000000 1.0
C      1  0.5242840000000  0.4523710000000  0.5009760000000 1.0
C      1  0.4831240000000  0.5639390000000  0.5110730000000 1.0
C      1  0.5556060000000  0.5357990000000  0.5110800000000 1.0
C      1  0.5512330000000  0.4581700000000  0.5110810000000 1.0
C      1  0.4760630000000  0.4383630000000  0.5110660000000 1.0
C      1  0.4339800000000  0.5037070000000  0.5110730000000 1.0
C      1  0.5490410000000  0.4873380000000  0.5208540000000 1.0
C      1  0.5030930000000  0.4494730000000  0.5208580000000 1.0
C      1  0.4528870000000  0.4814120000000  0.5207990000000 1.0
C      1  0.4677510000000  0.5390610000000  0.5208020000000 1.0
C      1  0.5271810000000  0.5427060000000  0.5208450000000 1.0
END
