TITL C-2441160-1326-780 0.133459978673736 125000 -18989.6822753497 0 0 149 (C1) n - 1
REM
REM in /home/bkarasulu/work/CARBON/AIRSS/Generating-Clusters/ReaxFF-fromJPCA2015/Units_Real/with-SteepDescent/Higher-Symm
REM
REM
REM
REM
REM
REM ./C.cell (1df0a924f5614ab8850e4351716899ee)
REM
REM compiler GCC version 9.2.1 20190827 (Red Hat 9.2.1-1)
REM options -cpp -mtune=generic -march=x86-64 -g -O0 -fpre-include=/usr/include/finclude/math-vector-fortran.h
REM seed 164974149 -788992041 1181955178 -1304660502 1470511236 709704610 1853062858 1340816737 -180394659 941467381 -2063107450 -745572030 1637215072 17024210 -338890944 -581156625 -1048873210 -1353596624 1772140387 719185092 505594652 1886574136 100545118 -711708591 -1408620486 391810999 -613596404 -2081948659 -1712190967 -321919196 -285634268 -1979654133 -596778791
REM
CELL 1.54180   50.00000   50.00000   50.00000   90.00000   90.00000   90.00000
LATT -1
SFAC C  
C      1  0.5117760000000  0.5221770000000  0.4035120000000 1.0
C      1  0.4850780000000  0.4743190000000  0.4030410000000 1.0
C      1  0.5195080000000  0.5461040000000  0.4190970000000 1.0
C      1  0.4784960000000  0.4501990000000  0.4161610000000 1.0
C      1  0.5305810000000  0.4641100000000  0.5868680000000 1.0
C      1  0.4694140000000  0.5365090000000  0.5847550000000 1.0
C      1  0.5268190000000  0.5339120000000  0.4853390000000 1.0
C      1  0.4705800000000  0.4648490000000  0.4839930000000 1.0
C      1  0.4333620000000  0.4375230000000  0.5094300000000 1.0
C      1  0.5684360000000  0.5647070000000  0.5087780000000 1.0
C      1  0.5609640000000  0.4331970000000  0.5546220000000 1.0
C      1  0.4350020000000  0.5638070000000  0.5488980000000 1.0
C      1  0.5105590000000  0.4916050000000  0.4875780000000 1.0
C      1  0.4847730000000  0.5055120000000  0.4881790000000 1.0
C      1  0.4620640000000  0.5732260000000  0.4707860000000 1.0
C      1  0.5408020000000  0.4260330000000  0.4678560000000 1.0
C      1  0.5012550000000  0.4735940000000  0.5432310000000 1.0
C      1  0.4987310000000  0.5240090000000  0.5377980000000 1.0
C      1  0.4535530000000  0.4949360000000  0.5729850000000 1.0
C      1  0.5504990000000  0.5031450000000  0.5849070000000 1.0
C      1  0.4944680000000  0.4200780000000  0.4636290000000 1.0
C      1  0.5060580000000  0.5805950000000  0.4641940000000 1.0
C      1  0.5426330000000  0.5606530000000  0.4345570000000 1.0
C      1  0.4553430000000  0.4379700000000  0.4328390000000 1.0
C      1  0.4335980000000  0.5718340000000  0.4737060000000 1.0
C      1  0.5683890000000  0.4284700000000  0.4762470000000 1.0
C      1  0.5917910000000  0.5313090000000  0.4896370000000 1.0
C      1  0.3986450000000  0.4675880000000  0.4909990000000 1.0
C      1  0.5734120000000  0.5462450000000  0.5334090000000 1.0
C      1  0.4274260000000  0.4551700000000  0.5347830000000 1.0
C      1  0.5430210000000  0.4612510000000  0.5063900000000 1.0
C      1  0.4573600000000  0.5396120000000  0.5106760000000 1.0
C      1  0.4855850000000  0.4713230000000  0.4573890000000 1.0
C      1  0.5134940000000  0.5300070000000  0.4569860000000 1.0
C      1  0.4584530000000  0.5337240000000  0.5585760000000 1.0
C      1  0.5409080000000  0.4672400000000  0.5597240000000 1.0
C      1  0.4745220000000  0.3946920000000  0.5120580000000 1.0
C      1  0.5257480000000  0.6033920000000  0.5044440000000 1.0
C      1  0.4612740000000  0.5763450000000  0.5468340000000 1.0
C      1  0.5364520000000  0.4227050000000  0.5505710000000 1.0
C      1  0.4080310000000  0.5367120000000  0.4818560000000 1.0
C      1  0.5986160000000  0.4663410000000  0.4854340000000 1.0
C      1  0.5676970000000  0.4485770000000  0.5189080000000 1.0
C      1  0.4308270000000  0.5558210000000  0.5184980000000 1.0
C      1  0.5700900000000  0.4617170000000  0.5576260000000 1.0
C      1  0.4315550000000  0.5355330000000  0.5569870000000 1.0
C      1  0.4784440000000  0.4572500000000  0.5892790000000 1.0
C      1  0.5233960000000  0.5518190000000  0.5901930000000 1.0
C      1  0.5797030000000  0.5049100000000  0.4534960000000 1.0
C      1  0.4180690000000  0.4944320000000  0.4524440000000 1.0
C      1  0.4254380000000  0.5101710000000  0.5702100000000 1.0
C      1  0.5738410000000  0.4886810000000  0.5698870000000 1.0
C      1  0.5917620000000  0.4629090000000  0.5124400000000 1.0
C      1  0.4085190000000  0.5374940000000  0.5097340000000 1.0
C      1  0.4550670000000  0.4910200000000  0.4924790000000 1.0
C      1  0.5605040000000  0.5179270000000  0.4962770000000 1.0
C      1  0.4040370000000  0.4730140000000  0.5358020000000 1.0
C      1  0.5949740000000  0.5265800000000  0.5351140000000 1.0
C      1  0.4888970000000  0.5847910000000  0.5433070000000 1.0
C      1  0.5100190000000  0.4125410000000  0.5456510000000 1.0
C      1  0.5320850000000  0.5831600000000  0.4769380000000 1.0
C      1  0.4676230000000  0.4200020000000  0.4748000000000 1.0
C      1  0.5233130000000  0.5085910000000  0.4416420000000 1.0
C      1  0.4770730000000  0.4924310000000  0.4411490000000 1.0
C      1  0.5062840000000  0.4414770000000  0.4138750000000 1.0
C      1  0.4930460000000  0.5575290000000  0.4153680000000 1.0
C      1  0.5408790000000  0.5292350000000  0.5905850000000 1.0
C      1  0.4532740000000  0.4669520000000  0.5800640000000 1.0
C      1  0.4128020000000  0.4411710000000  0.4874640000000 1.0
C      1  0.5875880000000  0.5594520000000  0.4860610000000 1.0
C      1  0.5010310000000  0.3968530000000  0.5217100000000 1.0
C      1  0.5014620000000  0.5997140000000  0.5204710000000 1.0
C      1  0.5544130000000  0.4718450000000  0.4754870000000 1.0
C      1  0.4463370000000  0.5290970000000  0.4746810000000 1.0
C      1  0.5375640000000  0.4670910000000  0.4502700000000 1.0
C      1  0.4644420000000  0.5338490000000  0.4530940000000 1.0
C      1  0.5155900000000  0.4652940000000  0.4972390000000 1.0
C      1  0.4812810000000  0.5334230000000  0.4953220000000 1.0
C      1  0.4930280000000  0.5743930000000  0.4395340000000 1.0
C      1  0.5080340000000  0.4290170000000  0.4396220000000 1.0
C      1  0.4374410000000  0.5024590000000  0.4726070000000 1.0
C      1  0.5610010000000  0.4991590000000  0.4742640000000 1.0
C      1  0.5705490000000  0.5190800000000  0.4321560000000 1.0
C      1  0.4304900000000  0.4812930000000  0.4314750000000 1.0
C      1  0.4722130000000  0.5347100000000  0.5345340000000 1.0
C      1  0.5269660000000  0.4731830000000  0.5350430000000 1.0
C      1  0.5963800000000  0.4879010000000  0.5038110000000 1.0
C      1  0.4147180000000  0.5103800000000  0.5119910000000 1.0
C      1  0.5170980000000  0.4183760000000  0.4797470000000 1.0
C      1  0.4882090000000  0.5730950000000  0.4847310000000 1.0
C      1  0.5609950000000  0.5037710000000  0.5218620000000 1.0
C      1  0.4427770000000  0.4999750000000  0.5189550000000 1.0
C      1  0.4142600000000  0.4900560000000  0.5552880000000 1.0
C      1  0.5785760000000  0.5048210000000  0.5462910000000 1.0
C      1  0.5253010000000  0.4646820000000  0.4068930000000 1.0
C      1  0.4678030000000  0.5386400000000  0.4110320000000 1.0
C      1  0.4563920000000  0.4413420000000  0.4907740000000 1.0
C      1  0.5450420000000  0.5562040000000  0.4897130000000 1.0
C      1  0.4852890000000  0.5197610000000  0.4006900000000 1.0
C      1  0.5091610000000  0.4875300000000  0.3986950000000 1.0
C      1  0.4513110000000  0.5920820000000  0.5059890000000 1.0
C      1  0.5485450000000  0.4098880000000  0.5072690000000 1.0
C      1  0.4524700000000  0.4989080000000  0.4265850000000 1.0
C      1  0.5460570000000  0.5048530000000  0.4242450000000 1.0
C      1  0.3979420000000  0.4883160000000  0.5112150000000 1.0
C      1  0.6039460000000  0.5144250000000  0.5103020000000 1.0
C      1  0.5939070000000  0.5260340000000  0.4642140000000 1.0
C      1  0.4063110000000  0.4752710000000  0.4671130000000 1.0
C      1  0.4652070000000  0.4279980000000  0.5309580000000 1.0
C      1  0.5313850000000  0.5707300000000  0.5259240000000 1.0
C      1  0.5632500000000  0.5439450000000  0.4438260000000 1.0
C      1  0.4353500000000  0.4554760000000  0.4416700000000 1.0
C      1  0.4866160000000  0.5155940000000  0.4582290000000 1.0
C      1  0.5130140000000  0.4840570000000  0.4586660000000 1.0
C      1  0.5053670000000  0.4514770000000  0.5838410000000 1.0
C      1  0.4956530000000  0.5478710000000  0.5797640000000 1.0
C      1  0.4954110000000  0.4755910000000  0.5697970000000 1.0
C      1  0.5042670000000  0.5241410000000  0.5656080000000 1.0
C      1  0.4474730000000  0.4183180000000  0.4538610000000 1.0
C      1  0.5513470000000  0.5813070000000  0.4537700000000 1.0
C      1  0.5461090000000  0.4759840000000  0.4234960000000 1.0
C      1  0.4474190000000  0.5278100000000  0.4290550000000 1.0
C      1  0.4602450000000  0.4301850000000  0.5558930000000 1.0
C      1  0.5362690000000  0.5617300000000  0.5654130000000 1.0
C      1  0.5255880000000  0.5271800000000  0.5278090000000 1.0
C      1  0.4788340000000  0.4744180000000  0.5280970000000 1.0
C      1  0.4246780000000  0.5443450000000  0.4604160000000 1.0
C      1  0.5774200000000  0.4553720000000  0.4695180000000 1.0
C      1  0.4266900000000  0.5811910000000  0.5010880000000 1.0
C      1  0.5720010000000  0.4223510000000  0.5046580000000 1.0
C      1  0.5052000000000  0.5481400000000  0.4998920000000 1.0
C      1  0.4886270000000  0.4599240000000  0.5051700000000 1.0
C      1  0.4582110000000  0.4913420000000  0.5397150000000 1.0
C      1  0.5338220000000  0.5002460000000  0.5270920000000 1.0
C      1  0.4695560000000  0.5614050000000  0.4484670000000 1.0
C      1  0.5323990000000  0.4403230000000  0.4467650000000 1.0
C      1  0.5474860000000  0.5411450000000  0.5457690000000 1.0
C      1  0.4431880000000  0.4513490000000  0.5583000000000 1.0
C      1  0.5142250000000  0.5692400000000  0.5475530000000 1.0
C      1  0.4872070000000  0.4297660000000  0.5496650000000 1.0
C      1  0.4244280000000  0.4353040000000  0.4612550000000 1.0
C      1  0.5751820000000  0.5655040000000  0.4602090000000 1.0
C      1  0.4516310000000  0.4083080000000  0.5147770000000 1.0
C      1  0.5486140000000  0.5907130000000  0.5161510000000 1.0
C      1  0.4722340000000  0.5089300000000  0.5914300000000 1.0
C      1  0.5268230000000  0.4908910000000  0.5962790000000 1.0
C      1  0.5223440000000  0.4053120000000  0.5034190000000 1.0
C      1  0.4785930000000  0.5948210000000  0.5035980000000 1.0
C      1  0.5000420000000  0.5025010000000  0.5838890000000 1.0
END
