TITL C-2441161-5029-1281 0.0014535907493991 125000 -5038.49603161646 0 0 35 (C1) n - 1
REM
REM in /home/bkarasulu/work/CARBON/AIRSS/Generating-Clusters/ReaxFF-fromJPCA2015/Units_Real/with-SteepDescent/Higher-Symm
REM
REM
REM
REM
REM
REM ./C.cell (1df0a924f5614ab8850e4351716899ee)
REM
REM compiler GCC version 9.2.1 20190827 (Red Hat 9.2.1-1)
REM options -cpp -mtune=generic -march=x86-64 -g -O0 -fpre-include=/usr/include/finclude/math-vector-fortran.h
REM seed -1275646159 947474072 -1760140469 -1259700755 217120388 925577710 -1372008307 -1353771538 759389219 792481876 -1484022638 1954118315 -258244772 -1561716734 -1572488108 118578545 1089799401 971673494 -602588400 -588781770 -1107845845 389053709 800141460 -1207521438 1173062022 1481149319 575433738 -1713952319 899247492 -772110873 -1674524484 505733135 1592823157
REM
CELL 1.54180   50.00000   50.00000   50.00000   90.00000   90.00000   90.00000
LATT -1
SFAC C  
C      1  0.5138480000000  0.5083260000000  0.5396360000000 1.0
C      1  0.4980660000000  0.4909000000000  0.4607270000000 1.0
C      1  0.5279850000000  0.5477420000000  0.4504540000000 1.0
C      1  0.4841820000000  0.4764310000000  0.5045200000000 1.0
C      1  0.4765860000000  0.5495610000000  0.4899740000000 1.0
C      1  0.5197180000000  0.4388730000000  0.5070920000000 1.0
C      1  0.4394470000000  0.4845810000000  0.5105330000000 1.0
C      1  0.5617280000000  0.5104520000000  0.4921970000000 1.0
C      1  0.5058650000000  0.4838110000000  0.5505990000000 1.0
C      1  0.4974590000000  0.5093720000000  0.4393160000000 1.0
C      1  0.5263330000000  0.4478550000000  0.4668930000000 1.0
C      1  0.4756280000000  0.5467080000000  0.5380770000000 1.0
C      1  0.5410010000000  0.4649480000000  0.4844320000000 1.0
C      1  0.4513410000000  0.5307430000000  0.5324180000000 1.0
C      1  0.5575650000000  0.5385020000000  0.4905330000000 1.0
C      1  0.4484560000000  0.4577950000000  0.5145660000000 1.0
C      1  0.5008130000000  0.4616920000000  0.4564550000000 1.0
C      1  0.5034070000000  0.5359620000000  0.5446770000000 1.0
C      1  0.5011850000000  0.5404180000000  0.4414290000000 1.0
C      1  0.4932630000000  0.4584910000000  0.5494620000000 1.0
C      1  0.5339710000000  0.5356800000000  0.5093420000000 1.0
C      1  0.4653810000000  0.4593760000000  0.4892260000000 1.0
C      1  0.4882970000000  0.5612140000000  0.5154910000000 1.0
C      1  0.5081180000000  0.4297250000000  0.4825380000000 1.0
C      1  0.4897520000000  0.5489080000000  0.4652190000000 1.0
C      1  0.5120520000000  0.4487230000000  0.5306650000000 1.0
C      1  0.4839410000000  0.4440120000000  0.4722600000000 1.0
C      1  0.5153550000000  0.5532740000000  0.5242260000000 1.0
C      1  0.4719060000000  0.4689080000000  0.5306870000000 1.0
C      1  0.5454940000000  0.5461720000000  0.4652460000000 1.0
C      1  0.4712760000000  0.5204810000000  0.4927990000000 1.0
C      1  0.5236110000000  0.5079480000000  0.5096220000000 1.0
C      1  0.4468740000000  0.5126920000000  0.5087450000000 1.0
C      1  0.5479960000000  0.4873830000000  0.4999690000000 1.0
C      1  0.4946810000000  0.5015760000000  0.4915390000000 1.0
END
