TITL C-2441163-1170-272 0.00432904728852312 125000 -4139.62307831136 0 0 30 (C1) n - 1
REM
REM in /home/bkarasulu/work/CARBON/AIRSS/Generating-Clusters/ReaxFF-fromJPCA2015/Units_Real/with-SteepDescent/Higher-Symm
REM
REM
REM
REM
REM
REM ./C.cell (1df0a924f5614ab8850e4351716899ee)
REM
REM compiler GCC version 9.2.1 20190827 (Red Hat 9.2.1-1)
REM options -cpp -mtune=generic -march=x86-64 -g -O0 -fpre-include=/usr/include/finclude/math-vector-fortran.h
REM seed 606018964 -498502615 -668791131 -1318886812 -915781523 -955762482 1544551060 -164006642 170788715 1822351720 -461062315 2054001760 588235074 -1121234917 -2072153917 -31858555 1848607915 -587995023 -2083608175 1031049744 -272082402 1314482189 1322345835 690946173 -565859031 -395557761 -183127748 1715724068 459059580 1334788937 -1692645149 1340969474 -1827923118
REM
CELL 1.54180   50.00000   50.00000   50.00000   90.00000   90.00000   90.00000
LATT -1
SFAC C  
C      1  0.5366240000000  0.5097850000000  0.5449160000000 1.0
C      1  0.5273250000000  0.5114540000000  0.4452010000000 1.0
C      1  0.4392650000000  0.5102040000000  0.5080170000000 1.0
C      1  0.4896590000000  0.4648960000000  0.4858610000000 1.0
C      1  0.4939340000000  0.4654410000000  0.5154070000000 1.0
C      1  0.5164650000000  0.4616930000000  0.4969120000000 1.0
C      1  0.4865670000000  0.5118550000000  0.5390850000000 1.0
C      1  0.5436630000000  0.4994300000000  0.4814630000000 1.0
C      1  0.4740840000000  0.5114940000000  0.4681610000000 1.0
C      1  0.5108270000000  0.5005580000000  0.4263680000000 1.0
C      1  0.4275420000000  0.5002710000000  0.5307560000000 1.0
C      1  0.5633540000000  0.5042130000000  0.5421560000000 1.0
C      1  0.4909050000000  0.5352070000000  0.4760860000000 1.0
C      1  0.4804120000000  0.5379110000000  0.5255940000000 1.0
C      1  0.5173260000000  0.5481870000000  0.5065760000000 1.0
C      1  0.5073690000000  0.5484260000000  0.5327940000000 1.0
C      1  0.5197980000000  0.5419850000000  0.4799820000000 1.0
C      1  0.4715140000000  0.5414050000000  0.4974570000000 1.0
C      1  0.4801490000000  0.4840530000000  0.5328830000000 1.0
C      1  0.5418730000000  0.4770940000000  0.4965490000000 1.0
C      1  0.4807700000000  0.4833930000000  0.4651510000000 1.0
C      1  0.5122000000000  0.5226020000000  0.5490730000000 1.0
C      1  0.5409220000000  0.5227950000000  0.4669270000000 1.0
C      1  0.4521000000000  0.5216070000000  0.4862300000000 1.0
C      1  0.5025020000000  0.4509750000000  0.4353630000000 1.0
C      1  0.4431570000000  0.4519160000000  0.5269560000000 1.0
C      1  0.5522110000000  0.4542420000000  0.5392760000000 1.0
C      1  0.4937080000000  0.4749430000000  0.4388910000000 1.0
C      1  0.4506780000000  0.4758110000000  0.5330700000000 1.0
C      1  0.5530960000000  0.4761540000000  0.5268390000000 1.0
END
