TITL C-2441158-471-1396 0.00417289387199813 125000 -9804.14177563133 0 0 69 (C1) n - 1
REM
REM in /home/bkarasulu/work/CARBON/AIRSS/Generating-Clusters/ReaxFF-fromJPCA2015/Units_Real/with-SteepDescent/Higher-Symm
REM
REM
REM
REM
REM
REM ./C.cell (1df0a924f5614ab8850e4351716899ee)
REM
REM compiler GCC version 9.2.1 20190827 (Red Hat 9.2.1-1)
REM options -cpp -mtune=generic -march=x86-64 -g -O0 -fpre-include=/usr/include/finclude/math-vector-fortran.h
REM seed 1455656087 -2009983131 -49814309 161344254 1444053825 1812586839 861491562 840284031 -854338676 -325957161 -466824181 462920944 -1544906932 -1891228216 1333459755 -751806836 -1420929103 -912082622 -2076675334 244747763 -1780876899 -1893106391 -1679653455 770648913 1593018513 -1712265587 -711400828 379200253 1783598492 -332457131 -638870122 -1946171461 -230982934
REM
CELL 1.54180   50.00000   50.00000   50.00000   90.00000   90.00000   90.00000
LATT -1
SFAC C  
C      1  0.5232190000000  0.5001380000000  0.5209000000000 1.0
C      1  0.5079450000000  0.4755940000000  0.5220630000000 1.0
C      1  0.4821750000000  0.4834520000000  0.5118840000000 1.0
C      1  0.4774780000000  0.5095560000000  0.5227830000000 1.0
C      1  0.5036790000000  0.5224610000000  0.5213210000000 1.0
C      1  0.5265350000000  0.4954230000000  0.4820390000000 1.0
C      1  0.5111930000000  0.5206300000000  0.4811310000000 1.0
C      1  0.4833250000000  0.5154070000000  0.4786570000000 1.0
C      1  0.4817820000000  0.4862540000000  0.4826870000000 1.0
C      1  0.5071830000000  0.4762800000000  0.4746410000000 1.0
C      1  0.5068080000000  0.4630970000000  0.4488180000000 1.0
C      1  0.4642850000000  0.4788160000000  0.4539220000000 1.0
C      1  0.4722840000000  0.5252160000000  0.4537040000000 1.0
C      1  0.5228560000000  0.5251160000000  0.4530030000000 1.0
C      1  0.5408150000000  0.5007490000000  0.4560690000000 1.0
C      1  0.5056350000000  0.5347490000000  0.5489120000000 1.0
C      1  0.4612790000000  0.5118190000000  0.5481330000000 1.0
C      1  0.4673890000000  0.4837780000000  0.5573580000000 1.0
C      1  0.5216700000000  0.4674090000000  0.5469470000000 1.0
C      1  0.5358750000000  0.4961100000000  0.5493060000000 1.0
C      1  0.4388800000000  0.5379890000000  0.4868830000000 1.0
C      1  0.5193140000000  0.5666130000000  0.4866750000000 1.0
C      1  0.5765190000000  0.5066300000000  0.4889360000000 1.0
C      1  0.5275290000000  0.4339380000000  0.4859400000000 1.0
C      1  0.4436720000000  0.4528280000000  0.4898240000000 1.0
C      1  0.4403200000000  0.4635320000000  0.5161260000000 1.0
C      1  0.5190460000000  0.4302180000000  0.5128500000000 1.0
C      1  0.5733700000000  0.4954490000000  0.5152220000000 1.0
C      1  0.5290460000000  0.5646390000000  0.5141310000000 1.0
C      1  0.4446310000000  0.5453500000000  0.5136830000000 1.0
C      1  0.4382830000000  0.5270130000000  0.5361180000000 1.0
C      1  0.5100490000000  0.5617550000000  0.5375300000000 1.0
C      1  0.5606140000000  0.5107210000000  0.5364660000000 1.0
C      1  0.5335380000000  0.4427200000000  0.5356590000000 1.0
C      1  0.4596010000000  0.4600020000000  0.5385340000000 1.0
C      1  0.4391030000000  0.4693810000000  0.4652660000000 1.0
C      1  0.5080820000000  0.4367390000000  0.4634690000000 1.0
C      1  0.5670130000000  0.4912840000000  0.4652070000000 1.0
C      1  0.5324640000000  0.5528990000000  0.4643940000000 1.0
C      1  0.4553820000000  0.5473960000000  0.4638540000000 1.0
C      1  0.4630630000000  0.5671980000000  0.5190660000000 1.0
C      1  0.5566750000000  0.5585870000000  0.5197500000000 1.0
C      1  0.5738750000000  0.4665250000000  0.5188360000000 1.0
C      1  0.4915060000000  0.4243130000000  0.5201520000000 1.0
C      1  0.4203890000000  0.4841000000000  0.5191520000000 1.0
C      1  0.4615340000000  0.4310510000000  0.4834730000000 1.0
C      1  0.5539520000000  0.4443110000000  0.4805160000000 1.0
C      1  0.5761470000000  0.5347510000000  0.4829210000000 1.0
C      1  0.4925630000000  0.5762410000000  0.4814790000000 1.0
C      1  0.4230320000000  0.5144670000000  0.4810540000000 1.0
C      1  0.5583240000000  0.4651880000000  0.4657010000000 1.0
C      1  0.4815510000000  0.4357670000000  0.4672520000000 1.0
C      1  0.4299150000000  0.4955840000000  0.4645240000000 1.0
C      1  0.4773360000000  0.5638030000000  0.4647400000000 1.0
C      1  0.5573980000000  0.5430130000000  0.4668600000000 1.0
C      1  0.5549930000000  0.5368100000000  0.5324750000000 1.0
C      1  0.4830010000000  0.5657560000000  0.5355430000000 1.0
C      1  0.4239120000000  0.5035270000000  0.5359120000000 1.0
C      1  0.4777000000000  0.4422070000000  0.5333450000000 1.0
C      1  0.5580870000000  0.4551700000000  0.5357470000000 1.0
C      1  0.4116380000000  0.4990010000000  0.4991070000000 1.0
C      1  0.4740280000000  0.4179260000000  0.5020660000000 1.0
C      1  0.4747570000000  0.5810690000000  0.5002310000000 1.0
C      1  0.5743360000000  0.5530840000000  0.5012510000000 1.0
C      1  0.5715460000000  0.4491450000000  0.4993060000000 1.0
C      1  0.5137950000000  0.5109610000000  0.5645240000000 1.0
C      1  0.4870060000000  0.4818820000000  0.4367850000000 1.0
C      1  0.4943820000000  0.5128770000000  0.4345980000000 1.0
C      1  0.4931810000000  0.4913680000000  0.5654390000000 1.0
END
