TITL C-2441166-8118-10 0.126405190614794 125000 -21468.0221443611 0 0 167 (C1) n - 1
REM
REM in /home/bkarasulu/work/CARBON/AIRSS/Generating-Clusters/ReaxFF-fromJPCA2015/Units_Real/with-SteepDescent/Higher-Symm
REM
REM
REM
REM
REM
REM ./C.cell (1df0a924f5614ab8850e4351716899ee)
REM
REM compiler GCC version 9.2.1 20190827 (Red Hat 9.2.1-1)
REM options -cpp -mtune=generic -march=x86-64 -g -O0 -fpre-include=/usr/include/finclude/math-vector-fortran.h
REM seed -811966365 1856931282 -450569796 1617001191 -1520304728 -1807784856 -1951141260 1634798077 -1943063232 1177410365 1400276965 2029001929 -2088136685 -945838923 1225664489 -1877539059 1736076117 -419834426 -2016629919 -515218338 -625054797 -1330032222 -174685403 349347876 -6023929 -803067468 -473626928 670914230 -1967642780 -1547013340 1164258780 2049295780 -2092493641
REM
CELL 1.54180   50.00000   50.00000   50.00000   90.00000   90.00000   90.00000
LATT -1
SFAC C  
C      1  0.4622630000000  0.4776320000000  0.4493620000000 1.0
C      1  0.4664670000000  0.4741850000000  0.5399580000000 1.0
C      1  0.5037320000000  0.5316760000000  0.4851820000000 1.0
C      1  0.4976230000000  0.5276250000000  0.5118550000000 1.0
C      1  0.5285970000000  0.5534630000000  0.5411470000000 1.0
C      1  0.5330480000000  0.5477680000000  0.4541860000000 1.0
C      1  0.5569650000000  0.4957670000000  0.5873480000000 1.0
C      1  0.5614330000000  0.4952020000000  0.4117170000000 1.0
C      1  0.4846210000000  0.4832180000000  0.5207630000000 1.0
C      1  0.4819730000000  0.4814560000000  0.4907990000000 1.0
C      1  0.4963240000000  0.5367990000000  0.5718900000000 1.0
C      1  0.4940210000000  0.5360220000000  0.4317490000000 1.0
C      1  0.4718720000000  0.4488810000000  0.5852770000000 1.0
C      1  0.4713740000000  0.4478900000000  0.4151760000000 1.0
C      1  0.5612020000000  0.5721080000000  0.5060160000000 1.0
C      1  0.5602630000000  0.5838100000000  0.4781490000000 1.0
C      1  0.5089320000000  0.5030420000000  0.5560420000000 1.0
C      1  0.5266670000000  0.5023550000000  0.4485290000000 1.0
C      1  0.4797760000000  0.4233810000000  0.4304050000000 1.0
C      1  0.4812940000000  0.4233620000000  0.5736090000000 1.0
C      1  0.4923920000000  0.4906880000000  0.3960100000000 1.0
C      1  0.4908920000000  0.4890090000000  0.6056990000000 1.0
C      1  0.4649010000000  0.4111050000000  0.5531750000000 1.0
C      1  0.4599230000000  0.4118550000000  0.4494480000000 1.0
C      1  0.4137540000000  0.4369480000000  0.5154640000000 1.0
C      1  0.4136640000000  0.4366750000000  0.4853410000000 1.0
C      1  0.5682430000000  0.4715260000000  0.5713220000000 1.0
C      1  0.5700880000000  0.4696680000000  0.4256210000000 1.0
C      1  0.5129890000000  0.4132800000000  0.4793700000000 1.0
C      1  0.5084710000000  0.4073510000000  0.5243360000000 1.0
C      1  0.5166860000000  0.5053280000000  0.4012790000000 1.0
C      1  0.5155530000000  0.5037480000000  0.6036980000000 1.0
C      1  0.4651020000000  0.5919760000000  0.5194800000000 1.0
C      1  0.4635450000000  0.5919530000000  0.4884680000000 1.0
C      1  0.5632250000000  0.5629230000000  0.5691270000000 1.0
C      1  0.5625960000000  0.5664400000000  0.4329800000000 1.0
C      1  0.4381240000000  0.5225920000000  0.5784700000000 1.0
C      1  0.4383850000000  0.5222120000000  0.4218490000000 1.0
C      1  0.5449140000000  0.5107510000000  0.5242170000000 1.0
C      1  0.5418540000000  0.5067740000000  0.4741830000000 1.0
C      1  0.6017170000000  0.5391240000000  0.5124000000000 1.0
C      1  0.6006900000000  0.5340570000000  0.4833190000000 1.0
C      1  0.5633800000000  0.4416190000000  0.4453740000000 1.0
C      1  0.5610650000000  0.4451450000000  0.5539550000000 1.0
C      1  0.5104330000000  0.4845390000000  0.5352120000000 1.0
C      1  0.5055690000000  0.4881420000000  0.4601990000000 1.0
C      1  0.5915490000000  0.4492080000000  0.5148840000000 1.0
C      1  0.5921650000000  0.4496250000000  0.4859950000000 1.0
C      1  0.5678440000000  0.4844280000000  0.4476380000000 1.0
C      1  0.5792580000000  0.4883280000000  0.5545680000000 1.0
C      1  0.4188090000000  0.5213950000000  0.4438630000000 1.0
C      1  0.4175280000000  0.5236710000000  0.5570240000000 1.0
C      1  0.5041150000000  0.6070620000000  0.4858590000000 1.0
C      1  0.5032550000000  0.6096340000000  0.5161820000000 1.0
C      1  0.4198190000000  0.5420460000000  0.4659470000000 1.0
C      1  0.4202440000000  0.5389320000000  0.5303960000000 1.0
C      1  0.5161620000000  0.5801630000000  0.4882710000000 1.0
C      1  0.5184220000000  0.5842500000000  0.5161020000000 1.0
C      1  0.4877360000000  0.5518460000000  0.4087320000000 1.0
C      1  0.4884520000000  0.5570320000000  0.5925910000000 1.0
C      1  0.4896620000000  0.3985160000000  0.4748060000000 1.0
C      1  0.4796230000000  0.4006510000000  0.5295990000000 1.0
C      1  0.4742890000000  0.5039460000000  0.4139860000000 1.0
C      1  0.4723050000000  0.5024900000000  0.5893620000000 1.0
C      1  0.4472380000000  0.4647310000000  0.5845670000000 1.0
C      1  0.4472630000000  0.4648750000000  0.4142850000000 1.0
C      1  0.5309960000000  0.4499560000000  0.5136240000000 1.0
C      1  0.5300550000000  0.4586070000000  0.4856020000000 1.0
C      1  0.4318090000000  0.4883750000000  0.4793980000000 1.0
C      1  0.4315740000000  0.4876990000000  0.5197860000000 1.0
C      1  0.5153750000000  0.5653570000000  0.4154430000000 1.0
C      1  0.5137400000000  0.5695140000000  0.5835170000000 1.0
C      1  0.4806920000000  0.5126780000000  0.5621170000000 1.0
C      1  0.4801190000000  0.5004810000000  0.4471220000000 1.0
C      1  0.4643730000000  0.4483460000000  0.5357230000000 1.0
C      1  0.4647250000000  0.4525990000000  0.4595090000000 1.0
C      1  0.3963690000000  0.5417170000000  0.5092500000000 1.0
C      1  0.3949920000000  0.5427080000000  0.4874500000000 1.0
C      1  0.4447280000000  0.4327150000000  0.5498740000000 1.0
C      1  0.4429880000000  0.4356340000000  0.4505840000000 1.0
C      1  0.5393070000000  0.4066210000000  0.4685230000000 1.0
C      1  0.5363660000000  0.4056100000000  0.5323700000000 1.0
C      1  0.5019210000000  0.5831310000000  0.5600940000000 1.0
C      1  0.5116630000000  0.5787610000000  0.4401210000000 1.0
C      1  0.5080710000000  0.4194120000000  0.4306070000000 1.0
C      1  0.5098620000000  0.4185590000000  0.5722900000000 1.0
C      1  0.5314210000000  0.5348760000000  0.4777640000000 1.0
C      1  0.5295480000000  0.5344690000000  0.5223340000000 1.0
C      1  0.5263300000000  0.4922920000000  0.5145090000000 1.0
C      1  0.5234840000000  0.4868830000000  0.4865020000000 1.0
C      1  0.4417880000000  0.5756290000000  0.4770520000000 1.0
C      1  0.4415910000000  0.5764430000000  0.5267340000000 1.0
C      1  0.4447090000000  0.4960710000000  0.5895330000000 1.0
C      1  0.4471850000000  0.4957680000000  0.4107240000000 1.0
C      1  0.5167720000000  0.5179730000000  0.5785120000000 1.0
C      1  0.5178930000000  0.5208990000000  0.4271340000000 1.0
C      1  0.4827260000000  0.4538140000000  0.4828920000000 1.0
C      1  0.4788710000000  0.4382270000000  0.5115470000000 1.0
C      1  0.5939220000000  0.5097330000000  0.4682270000000 1.0
C      1  0.5908920000000  0.5185950000000  0.5297020000000 1.0
C      1  0.5012490000000  0.5558360000000  0.5478750000000 1.0
C      1  0.4881060000000  0.5597360000000  0.4487830000000 1.0
C      1  0.5772830000000  0.4306690000000  0.5321840000000 1.0
C      1  0.5780640000000  0.4309080000000  0.4691310000000 1.0
C      1  0.4648160000000  0.5237100000000  0.5398460000000 1.0
C      1  0.4680770000000  0.5203790000000  0.4661470000000 1.0
C      1  0.5194040000000  0.4425050000000  0.4402090000000 1.0
C      1  0.5194310000000  0.4418860000000  0.5613700000000 1.0
C      1  0.4625490000000  0.4004210000000  0.4779240000000 1.0
C      1  0.4658870000000  0.4111890000000  0.5060770000000 1.0
C      1  0.4442690000000  0.5494580000000  0.5145530000000 1.0
C      1  0.4402890000000  0.5492300000000  0.4871370000000 1.0
C      1  0.4744660000000  0.5091510000000  0.5169650000000 1.0
C      1  0.4613740000000  0.5029350000000  0.4883650000000 1.0
C      1  0.5348850000000  0.4835670000000  0.4060430000000 1.0
C      1  0.5334500000000  0.4821870000000  0.5958310000000 1.0
C      1  0.4584440000000  0.5660990000000  0.4360650000000 1.0
C      1  0.4494810000000  0.5603820000000  0.5642650000000 1.0
C      1  0.4012700000000  0.5004220000000  0.4561570000000 1.0
C      1  0.4033310000000  0.5003980000000  0.5448310000000 1.0
C      1  0.5610550000000  0.4137130000000  0.4858760000000 1.0
C      1  0.5593500000000  0.4135370000000  0.5162520000000 1.0
C      1  0.5609390000000  0.5241180000000  0.4240550000000 1.0
C      1  0.5573560000000  0.5234360000000  0.5765760000000 1.0
C      1  0.5719430000000  0.4715060000000  0.5164440000000 1.0
C      1  0.5728750000000  0.4720230000000  0.4866740000000 1.0
C      1  0.5494970000000  0.4610180000000  0.5317710000000 1.0
C      1  0.5557960000000  0.4638290000000  0.4644350000000 1.0
C      1  0.4806750000000  0.6042230000000  0.4670070000000 1.0
C      1  0.4872130000000  0.5984270000000  0.5377460000000 1.0
C      1  0.4273710000000  0.4527410000000  0.4311310000000 1.0
C      1  0.4291110000000  0.4523390000000  0.5662910000000 1.0
C      1  0.5778020000000  0.5239140000000  0.4472660000000 1.0
C      1  0.5780350000000  0.5162120000000  0.5569090000000 1.0
C      1  0.4057180000000  0.4987130000000  0.5143910000000 1.0
C      1  0.4030720000000  0.4962230000000  0.4856110000000 1.0
C      1  0.4443980000000  0.4905200000000  0.5450030000000 1.0
C      1  0.4375480000000  0.4864260000000  0.4529110000000 1.0
C      1  0.4608460000000  0.5488280000000  0.5842210000000 1.0
C      1  0.4581430000000  0.5469060000000  0.4156550000000 1.0
C      1  0.4122850000000  0.4747830000000  0.4443270000000 1.0
C      1  0.4189530000000  0.4792220000000  0.5575520000000 1.0
C      1  0.5372190000000  0.4193530000000  0.5595850000000 1.0
C      1  0.5383730000000  0.4197200000000  0.4416040000000 1.0
C      1  0.5417350000000  0.5770420000000  0.5314740000000 1.0
C      1  0.5332200000000  0.5762360000000  0.4647930000000 1.0
C      1  0.5706080000000  0.5013510000000  0.4851360000000 1.0
C      1  0.5708230000000  0.5063240000000  0.5137590000000 1.0
C      1  0.5417610000000  0.5528340000000  0.5823750000000 1.0
C      1  0.5455140000000  0.5509630000000  0.4167940000000 1.0
C      1  0.5801320000000  0.5481360000000  0.4683080000000 1.0
C      1  0.5879360000000  0.5628830000000  0.5213040000000 1.0
C      1  0.4330570000000  0.4599040000000  0.4862380000000 1.0
C      1  0.4329460000000  0.4606820000000  0.5127390000000 1.0
C      1  0.5097830000000  0.4432600000000  0.4729250000000 1.0
C      1  0.5076840000000  0.4366070000000  0.5242500000000 1.0
C      1  0.5202160000000  0.4612350000000  0.4171320000000 1.0
C      1  0.5190290000000  0.4606670000000  0.5832500000000 1.0
C      1  0.4831550000000  0.5433000000000  0.4720690000000 1.0
C      1  0.4774860000000  0.5469560000000  0.5259440000000 1.0
C      1  0.4265130000000  0.5629510000000  0.5481820000000 1.0
C      1  0.4334990000000  0.5667980000000  0.4508190000000 1.0
C      1  0.5771730000000  0.5750270000000  0.4567520000000 1.0
C      1  0.5781710000000  0.5654270000000  0.5469960000000 1.0
C      1  0.4945040000000  0.4625980000000  0.4060040000000 1.0
C      1  0.4938160000000  0.4638100000000  0.5945880000000 1.0
C      1  0.5405260000000  0.5501100000000  0.5000110000000 1.0
END
