TITL C-2441159-1093-100 0.270187321277054 125000 -16777.9913677034 0 0 170 (C1) n - 1
REM
REM in /home/bkarasulu/work/CARBON/AIRSS/Generating-Clusters/ReaxFF-fromJPCA2015/Units_Real/with-SteepDescent/Higher-Symm
REM
REM
REM
REM
REM
REM ./C.cell (1df0a924f5614ab8850e4351716899ee)
REM
REM compiler GCC version 9.2.1 20190827 (Red Hat 9.2.1-1)
REM options -cpp -mtune=generic -march=x86-64 -g -O0 -fpre-include=/usr/include/finclude/math-vector-fortran.h
REM seed 767826164 -784927361 610722138 -1952153942 31310095 -424217611 -1759079666 139596902 -1291648171 1839118440 -1480291848 -182750624 1164257713 1539030815 -1606100899 1588672609 210332873 -1865785429 1960852470 1110971095 1489377856 -1830732311 -937542430 -486284448 -132252252 500408650 -1013662252 -1510803133 399999457 422789367 -819378745 1073274947 -905931830
REM
CELL 1.54180   50.00000   50.00000   50.00000   90.00000   90.00000   90.00000
LATT -1
SFAC C  
C      1  0.4836470000000  0.4783790000000  0.5529980000000 1.0
C      1  0.4539920000000  0.4731050000000  0.4843970000000 1.0
C      1  0.5154440000000  0.4795910000000  0.4489850000000 1.0
C      1  0.5507890000000  0.4740370000000  0.5166240000000 1.0
C      1  0.5155190000000  0.5206400000000  0.5531490000000 1.0
C      1  0.5448740000000  0.5293880000000  0.4821270000000 1.0
C      1  0.4849840000000  0.5217180000000  0.4466760000000 1.0
C      1  0.4496160000000  0.5262960000000  0.5160110000000 1.0
C      1  0.5558950000000  0.5760510000000  0.4860250000000 1.0
C      1  0.5134450000000  0.5741570000000  0.5561200000000 1.0
C      1  0.4450520000000  0.5742130000000  0.5138390000000 1.0
C      1  0.4858250000000  0.5738500000000  0.4441230000000 1.0
C      1  0.4455860000000  0.4258750000000  0.4865390000000 1.0
C      1  0.4866820000000  0.4252480000000  0.5573680000000 1.0
C      1  0.5578270000000  0.4270460000000  0.5140170000000 1.0
C      1  0.5143970000000  0.4273690000000  0.4461540000000 1.0
C      1  0.4768580000000  0.5527560000000  0.5900840000000 1.0
C      1  0.4079000000000  0.5523930000000  0.4767420000000 1.0
C      1  0.5242500000000  0.5525060000000  0.4108260000000 1.0
C      1  0.5932250000000  0.5487150000000  0.5199370000000 1.0
C      1  0.5209620000000  0.4518960000000  0.5927620000000 1.0
C      1  0.5937140000000  0.4528870000000  0.4791740000000 1.0
C      1  0.4797990000000  0.4503670000000  0.4062610000000 1.0
C      1  0.4084250000000  0.4503330000000  0.5206860000000 1.0
C      1  0.4829260000000  0.5234780000000  0.3976030000000 1.0
C      1  0.6050590000000  0.5279050000000  0.4873680000000 1.0
C      1  0.5171380000000  0.5275420000000  0.6040300000000 1.0
C      1  0.3994910000000  0.5280210000000  0.5172410000000 1.0
C      1  0.5131010000000  0.4701490000000  0.3964720000000 1.0
C      1  0.3956590000000  0.4712480000000  0.4890120000000 1.0
C      1  0.4877500000000  0.4710260000000  0.6055750000000 1.0
C      1  0.6043760000000  0.4737740000000  0.5121270000000 1.0
C      1  0.5425040000000  0.4671330000000  0.5793570000000 1.0
C      1  0.4197070000000  0.4665760000000  0.5425390000000 1.0
C      1  0.4625590000000  0.4637350000000  0.4244790000000 1.0
C      1  0.5832370000000  0.4670330000000  0.4559110000000 1.0
C      1  0.4573070000000  0.5353280000000  0.5816960000000 1.0
C      1  0.5800830000000  0.5335960000000  0.5422960000000 1.0
C      1  0.5467820000000  0.5341230000000  0.4171040000000 1.0
C      1  0.4148600000000  0.5380760000000  0.4534970000000 1.0
C      1  0.4865550000000  0.5201510000000  0.4878450000000 1.0
C      1  0.5186620000000  0.5157870000000  0.4858880000000 1.0
C      1  0.5207930000000  0.5217820000000  0.5140480000000 1.0
C      1  0.4913750000000  0.5166790000000  0.5181880000000 1.0
C      1  0.5221850000000  0.4874510000000  0.4888780000000 1.0
C      1  0.4777330000000  0.4885510000000  0.4819850000000 1.0
C      1  0.4810580000000  0.4885370000000  0.5110310000000 1.0
C      1  0.5099240000000  0.4787210000000  0.5138160000000 1.0
C      1  0.5544160000000  0.4478630000000  0.4291390000000 1.0
C      1  0.5708800000000  0.4489530000000  0.5547590000000 1.0
C      1  0.4435810000000  0.4502400000000  0.5749690000000 1.0
C      1  0.4295410000000  0.4495800000000  0.4447280000000 1.0
C      1  0.4452250000000  0.5513140000000  0.4239210000000 1.0
C      1  0.4260170000000  0.5520380000000  0.5562760000000 1.0
C      1  0.5549580000000  0.5496110000000  0.5750260000000 1.0
C      1  0.5738510000000  0.5541840000000  0.4473320000000 1.0
C      1  0.5491090000000  0.5671110000000  0.4557840000000 1.0
C      1  0.5470050000000  0.5698410000000  0.5516260000000 1.0
C      1  0.4509330000000  0.5690440000000  0.5465490000000 1.0
C      1  0.4522970000000  0.5694760000000  0.4496630000000 1.0
C      1  0.4521930000000  0.4345880000000  0.4557770000000 1.0
C      1  0.4516510000000  0.4290990000000  0.5531760000000 1.0
C      1  0.5484430000000  0.4334270000000  0.5432060000000 1.0
C      1  0.5448150000000  0.4331160000000  0.4531120000000 1.0
C      1  0.4385640000000  0.4946450000000  0.4170920000000 1.0
C      1  0.5799360000000  0.4905110000000  0.4405460000000 1.0
C      1  0.5569640000000  0.4926810000000  0.5792830000000 1.0
C      1  0.4181070000000  0.4928760000000  0.5565020000000 1.0
C      1  0.5525900000000  0.5040160000000  0.4258440000000 1.0
C      1  0.4226080000000  0.5083220000000  0.4423100000000 1.0
C      1  0.4473530000000  0.5085690000000  0.5731750000000 1.0
C      1  0.5786320000000  0.5079360000000  0.5557820000000 1.0
C      1  0.4143290000000  0.5420020000000  0.5013550000000 1.0
C      1  0.4988270000000  0.5420170000000  0.4124640000000 1.0
C      1  0.5827580000000  0.5402240000000  0.4985180000000 1.0
C      1  0.5012320000000  0.5421530000000  0.5859980000000 1.0
C      1  0.5833420000000  0.4590390000000  0.5015070000000 1.0
C      1  0.5005080000000  0.4594280000000  0.4147590000000 1.0
C      1  0.4185830000000  0.4583090000000  0.4994340000000 1.0
C      1  0.4991940000000  0.4581490000000  0.5828080000000 1.0
C      1  0.4206710000000  0.5356840000000  0.4268960000000 1.0
C      1  0.5735850000000  0.5387630000000  0.4232370000000 1.0
C      1  0.5794730000000  0.5334270000000  0.5708390000000 1.0
C      1  0.4300500000000  0.5331470000000  0.5777020000000 1.0
C      1  0.5790290000000  0.4641600000000  0.4306340000000 1.0
C      1  0.4337900000000  0.4663650000000  0.4201640000000 1.0
C      1  0.4190470000000  0.4664210000000  0.5706050000000 1.0
C      1  0.5707260000000  0.4663400000000  0.5785390000000 1.0
C      1  0.5232490000000  0.4199770000000  0.4952630000000 1.0
C      1  0.5148910000000  0.4270090000000  0.5208960000000 1.0
C      1  0.4723390000000  0.4225180000000  0.5197740000000 1.0
C      1  0.4864290000000  0.4258160000000  0.4812150000000 1.0
C      1  0.4776510000000  0.5710920000000  0.4825150000000 1.0
C      1  0.4837480000000  0.5699430000000  0.5221780000000 1.0
C      1  0.5220090000000  0.5725640000000  0.5179570000000 1.0
C      1  0.5169010000000  0.5702590000000  0.4771590000000 1.0
C      1  0.4728340000000  0.4538260000000  0.4497360000000 1.0
C      1  0.5458200000000  0.4541180000000  0.4733400000000 1.0
C      1  0.5228900000000  0.4484060000000  0.5391390000000 1.0
C      1  0.4656230000000  0.4481780000000  0.5260870000000 1.0
C      1  0.5235040000000  0.5518030000000  0.4567990000000 1.0
C      1  0.4607640000000  0.5500150000000  0.4741510000000 1.0
C      1  0.4768040000000  0.5499430000000  0.5412030000000 1.0
C      1  0.5387240000000  0.5507440000000  0.5245800000000 1.0
C      1  0.4195040000000  0.5688490000000  0.4984070000000 1.0
C      1  0.5025270000000  0.5691280000000  0.4194840000000 1.0
C      1  0.5794520000000  0.5692000000000  0.5041230000000 1.0
C      1  0.4961910000000  0.5705230000000  0.5800050000000 1.0
C      1  0.5805640000000  0.4313900000000  0.4958020000000 1.0
C      1  0.4987490000000  0.4324230000000  0.4212000000000 1.0
C      1  0.4225070000000  0.4311600000000  0.5039100000000 1.0
C      1  0.5047990000000  0.4306200000000  0.5796070000000 1.0
C      1  0.4639750000000  0.5341500000000  0.4331890000000 1.0
C      1  0.5660040000000  0.5297070000000  0.4621410000000 1.0
C      1  0.5367190000000  0.5326660000000  0.5656140000000 1.0
C      1  0.4329750000000  0.5338540000000  0.5362880000000 1.0
C      1  0.5333870000000  0.4660260000000  0.4337410000000 1.0
C      1  0.4333100000000  0.4701180000000  0.4647540000000 1.0
C      1  0.4633100000000  0.4663720000000  0.5660300000000 1.0
C      1  0.5653640000000  0.4692910000000  0.5379150000000 1.0
C      1  0.5228450000000  0.4887470000000  0.5395550000000 1.0
C      1  0.4529440000000  0.4957610000000  0.5234300000000 1.0
C      1  0.4684390000000  0.5009820000000  0.4590200000000 1.0
C      1  0.5464730000000  0.4851970000000  0.4740420000000 1.0
C      1  0.4670210000000  0.5043380000000  0.5486340000000 1.0
C      1  0.5444840000000  0.5044580000000  0.5244330000000 1.0
C      1  0.5328520000000  0.5037470000000  0.4485360000000 1.0
C      1  0.4423070000000  0.5096410000000  0.4653040000000 1.0
C      1  0.4609730000000  0.5995270000000  0.5085350000000 1.0
C      1  0.4909520000000  0.5997270000000  0.4608320000000 1.0
C      1  0.5380450000000  0.6006390000000  0.4921380000000 1.0
C      1  0.5080980000000  0.6009420000000  0.5398720000000 1.0
C      1  0.5394750000000  0.3991710000000  0.5079500000000 1.0
C      1  0.5079950000000  0.4006160000000  0.4593620000000 1.0
C      1  0.4591790000000  0.3987260000000  0.4912110000000 1.0
C      1  0.4925130000000  0.3984890000000  0.5423840000000 1.0
C      1  0.4616560000000  0.4518820000000  0.4964410000000 1.0
C      1  0.5010080000000  0.4567220000000  0.4603500000000 1.0
C      1  0.5448420000000  0.4520370000000  0.5016090000000 1.0
C      1  0.4922060000000  0.4520450000000  0.5422840000000 1.0
C      1  0.5452130000000  0.5501090000000  0.4970810000000 1.0
C      1  0.4950950000000  0.5474990000000  0.4555100000000 1.0
C      1  0.4548650000000  0.5473520000000  0.5021110000000 1.0
C      1  0.5042710000000  0.5467820000000  0.5460300000000 1.0
C      1  0.4702080000000  0.4910530000000  0.6007340000000 1.0
C      1  0.3994710000000  0.4906910000000  0.4712980000000 1.0
C      1  0.5309650000000  0.4906470000000  0.4010150000000 1.0
C      1  0.5982360000000  0.4937170000000  0.5291980000000 1.0
C      1  0.5326750000000  0.5060730000000  0.5989490000000 1.0
C      1  0.5963040000000  0.5080560000000  0.4702800000000 1.0
C      1  0.4611420000000  0.5051380000000  0.4010190000000 1.0
C      1  0.4036050000000  0.5047960000000  0.5314480000000 1.0
C      1  0.5191010000000  0.4005750000000  0.5322150000000 1.0
C      1  0.4697930000000  0.3954830000000  0.5187300000000 1.0
C      1  0.4797060000000  0.4016040000000  0.4696590000000 1.0
C      1  0.5283720000000  0.3962770000000  0.4790440000000 1.0
C      1  0.4806790000000  0.5981620000000  0.5300060000000 1.0
C      1  0.5298750000000  0.6010620000000  0.5199290000000 1.0
C      1  0.5189780000000  0.5988690000000  0.4701590000000 1.0
C      1  0.4693470000000  0.5994720000000  0.4806210000000 1.0
C      1  0.5135310000000  0.5040880000000  0.4173020000000 1.0
C      1  0.5750050000000  0.5043050000000  0.5147820000000 1.0
C      1  0.4872880000000  0.5045230000000  0.5830790000000 1.0
C      1  0.4222520000000  0.5030540000000  0.4851170000000 1.0
C      1  0.4863290000000  0.4998640000000  0.4160920000000 1.0
C      1  0.4231960000000  0.4963390000000  0.5126730000000 1.0
C      1  0.5141850000000  0.4973830000000  0.5776900000000 1.0
C      1  0.5737750000000  0.4974670000000  0.4868850000000 1.0
C      1  0.5006100000000  0.5610080000000  0.4996530000000 1.0
C      1  0.4938990000000  0.4508570000000  0.4896600000000 1.0
END
