TITL C-2441164-471-959 0.03626645839508 125000 -24876.5248437632 0 0 171 (C1) n - 1
REM
REM in /home/bkarasulu/work/CARBON/AIRSS/Generating-Clusters/ReaxFF-fromJPCA2015/Units_Real/with-SteepDescent/Higher-Symm
REM
REM
REM
REM
REM
REM ./C.cell (1df0a924f5614ab8850e4351716899ee)
REM
REM compiler GCC version 9.2.1 20190827 (Red Hat 9.2.1-1)
REM options -cpp -mtune=generic -march=x86-64 -g -O0 -fpre-include=/usr/include/finclude/math-vector-fortran.h
REM seed -1112669831 -987374832 1393417204 2052021732 -1492350174 -573306133 -174107389 71302853 -379907665 2145804571 -54999938 1613590390 -836547007 -1341983754 -418845633 1387427495 1582020739 -790021462 -799341901 2020255763 -1914782647 -2042209717 442167826 343078533 701200395 -1658881778 -754892803 -1866847171 -1665798132 1636448867 -1315713355 1583571608 -604526704
REM
CELL 1.54180   50.00000   50.00000   50.00000   90.00000   90.00000   90.00000
LATT -1
SFAC C  
C      1  0.5166590000000  0.4313150000000  0.4126660000000 1.0
C      1  0.5652530000000  0.4336570000000  0.5589350000000 1.0
C      1  0.4195980000000  0.4278630000000  0.5282920000000 1.0
C      1  0.5142850000000  0.5676290000000  0.4122930000000 1.0
C      1  0.5637530000000  0.5645630000000  0.5578010000000 1.0
C      1  0.4175530000000  0.5661500000000  0.5288310000000 1.0
C      1  0.5156270000000  0.4357630000000  0.5864860000000 1.0
C      1  0.5694200000000  0.4297800000000  0.4412700000000 1.0
C      1  0.4172570000000  0.4316740000000  0.4689790000000 1.0
C      1  0.5157020000000  0.5655310000000  0.5880700000000 1.0
C      1  0.5664820000000  0.5688780000000  0.4409510000000 1.0
C      1  0.4151470000000  0.5663080000000  0.4712070000000 1.0
C      1  0.4311980000000  0.4721790000000  0.5650220000000 1.0
C      1  0.4770740000000  0.4730310000000  0.4031890000000 1.0
C      1  0.6002730000000  0.4707360000000  0.5293210000000 1.0
C      1  0.4318230000000  0.5258740000000  0.5697000000000 1.0
C      1  0.4740160000000  0.5283800000000  0.4048260000000 1.0
C      1  0.5965370000000  0.5278460000000  0.5276380000000 1.0
C      1  0.4293020000000  0.4708870000000  0.4313510000000 1.0
C      1  0.4734390000000  0.4754940000000  0.5982820000000 1.0
C      1  0.5960670000000  0.4723190000000  0.4739370000000 1.0
C      1  0.4268340000000  0.5271940000000  0.4282080000000 1.0
C      1  0.4770040000000  0.5291310000000  0.5980360000000 1.0
C      1  0.5938030000000  0.5268810000000  0.4721930000000 1.0
C      1  0.5937980000000  0.4457240000000  0.4860580000000 1.0
C      1  0.4624590000000  0.4487150000000  0.5919030000000 1.0
C      1  0.4409350000000  0.4443760000000  0.4250140000000 1.0
C      1  0.5909680000000  0.5534120000000  0.4847820000000 1.0
C      1  0.4662770000000  0.5548750000000  0.5899160000000 1.0
C      1  0.4388160000000  0.5537010000000  0.4265990000000 1.0
C      1  0.5940340000000  0.4456930000000  0.5162890000000 1.0
C      1  0.4664720000000  0.4466500000000  0.4106950000000 1.0
C      1  0.4394710000000  0.4459900000000  0.5738720000000 1.0
C      1  0.5903530000000  0.5530380000000  0.5139080000000 1.0
C      1  0.4642420000000  0.5549810000000  0.4114880000000 1.0
C      1  0.4418850000000  0.5537370000000  0.5735860000000 1.0
C      1  0.5583810000000  0.5425450000000  0.5779490000000 1.0
C      1  0.4027190000000  0.5441400000000  0.5134290000000 1.0
C      1  0.5343760000000  0.5441690000000  0.4055850000000 1.0
C      1  0.5610260000000  0.4563760000000  0.5777770000000 1.0
C      1  0.4082990000000  0.4514930000000  0.5131960000000 1.0
C      1  0.5361940000000  0.4529630000000  0.4073900000000 1.0
C      1  0.5605810000000  0.5473450000000  0.4198740000000 1.0
C      1  0.4004250000000  0.5439030000000  0.4845700000000 1.0
C      1  0.5331150000000  0.5405280000000  0.5928440000000 1.0
C      1  0.5614960000000  0.4515950000000  0.4216930000000 1.0
C      1  0.4047990000000  0.4555190000000  0.4840400000000 1.0
C      1  0.5362850000000  0.4577710000000  0.5927970000000 1.0
C      1  0.5005600000000  0.5087580000000  0.4726120000000 1.0
C      1  0.5274420000000  0.5210470000000  0.5146870000000 1.0
C      1  0.4763540000000  0.5260170000000  0.5229790000000 1.0
C      1  0.4956020000000  0.4817980000000  0.4760450000000 1.0
C      1  0.5220520000000  0.4745580000000  0.5153760000000 1.0
C      1  0.4727670000000  0.4722350000000  0.5285230000000 1.0
C      1  0.5014710000000  0.5140170000000  0.5291350000000 1.0
C      1  0.5252540000000  0.5210370000000  0.4872470000000 1.0
C      1  0.4763280000000  0.5232260000000  0.4796210000000 1.0
C      1  0.4966080000000  0.4851860000000  0.5236180000000 1.0
C      1  0.5221410000000  0.4718980000000  0.4753240000000 1.0
C      1  0.4678080000000  0.4711360000000  0.4760380000000 1.0
C      1  0.4854440000000  0.4311870000000  0.5862990000000 1.0
C      1  0.4382050000000  0.4272300000000  0.4486050000000 1.0
C      1  0.5754700000000  0.4286970000000  0.4703680000000 1.0
C      1  0.4878220000000  0.5731020000000  0.5808440000000 1.0
C      1  0.4373570000000  0.5698540000000  0.4511550000000 1.0
C      1  0.5735900000000  0.5720480000000  0.4698010000000 1.0
C      1  0.4873860000000  0.4281510000000  0.4197640000000 1.0
C      1  0.4386150000000  0.4265960000000  0.5510140000000 1.0
C      1  0.5742940000000  0.4285990000000  0.5300340000000 1.0
C      1  0.4859250000000  0.5727150000000  0.4202340000000 1.0
C      1  0.4398500000000  0.5680340000000  0.5484080000000 1.0
C      1  0.5649160000000  0.5634250000000  0.5267440000000 1.0
C      1  0.4031060000000  0.5143420000000  0.4388470000000 1.0
C      1  0.5907050000000  0.5140740000000  0.4461880000000 1.0
C      1  0.4968660000000  0.5155290000000  0.6148920000000 1.0
C      1  0.4033910000000  0.4856940000000  0.4301980000000 1.0
C      1  0.5918930000000  0.4849240000000  0.4475540000000 1.0
C      1  0.4868870000000  0.4875630000000  0.6217050000000 1.0
C      1  0.4038900000000  0.5134910000000  0.5704630000000 1.0
C      1  0.6064200000000  0.5141180000000  0.5529560000000 1.0
C      1  0.4959640000000  0.5154820000000  0.3879730000000 1.0
C      1  0.4061280000000  0.4865200000000  0.5583490000000 1.0
C      1  0.6001830000000  0.4853110000000  0.5544070000000 1.0
C      1  0.4999440000000  0.4864430000000  0.3896150000000 1.0
C      1  0.5007450000000  0.4033860000000  0.5239770000000 1.0
C      1  0.4741050000000  0.3999190000000  0.4844880000000 1.0
C      1  0.5299910000000  0.3976480000000  0.4847420000000 1.0
C      1  0.5020990000000  0.5881440000000  0.5308450000000 1.0
C      1  0.4752210000000  0.5942350000000  0.4858340000000 1.0
C      1  0.5273810000000  0.6002900000000  0.4854430000000 1.0
C      1  0.5013570000000  0.4045640000000  0.4713530000000 1.0
C      1  0.4727940000000  0.3992760000000  0.5134350000000 1.0
C      1  0.5283250000000  0.3966890000000  0.5131590000000 1.0
C      1  0.5011560000000  0.5916150000000  0.4700220000000 1.0
C      1  0.4760460000000  0.5939180000000  0.5148530000000 1.0
C      1  0.5272530000000  0.6005350000000  0.5144460000000 1.0
C      1  0.4544990000000  0.5131880000000  0.5578440000000 1.0
C      1  0.4721030000000  0.5150200000000  0.4298060000000 1.0
C      1  0.5748950000000  0.5123880000000  0.5159230000000 1.0
C      1  0.4554800000000  0.4845030000000  0.5514210000000 1.0
C      1  0.4747940000000  0.4870240000000  0.4283220000000 1.0
C      1  0.5728280000000  0.4833860000000  0.5200320000000 1.0
C      1  0.4477250000000  0.5140880000000  0.4468710000000 1.0
C      1  0.4812140000000  0.5185710000000  0.5699290000000 1.0
C      1  0.5748710000000  0.5111080000000  0.4877370000000 1.0
C      1  0.4526710000000  0.4823270000000  0.4468400000000 1.0
C      1  0.4842390000000  0.4873080000000  0.5722290000000 1.0
C      1  0.5725800000000  0.4822780000000  0.4880850000000 1.0
C      1  0.5235710000000  0.4129920000000  0.4322190000000 1.0
C      1  0.5437930000000  0.4170070000000  0.5544970000000 1.0
C      1  0.4356520000000  0.4095920000000  0.5129600000000 1.0
C      1  0.5228800000000  0.5872160000000  0.4305850000000 1.0
C      1  0.5477360000000  0.5870080000000  0.5554880000000 1.0
C      1  0.4285180000000  0.5865180000000  0.5138970000000 1.0
C      1  0.5195210000000  0.4155560000000  0.5672870000000 1.0
C      1  0.5475690000000  0.4134430000000  0.4441890000000 1.0
C      1  0.4293790000000  0.4149440000000  0.4870090000000 1.0
C      1  0.5261690000000  0.5839370000000  0.5710740000000 1.0
C      1  0.5462120000000  0.5866680000000  0.4434100000000 1.0
C      1  0.4271150000000  0.5858640000000  0.4869890000000 1.0
C      1  0.5551300000000  0.5914830000000  0.5156390000000 1.0
C      1  0.4605540000000  0.5888550000000  0.5397740000000 1.0
C      1  0.4837520000000  0.5903810000000  0.4442940000000 1.0
C      1  0.5559660000000  0.4109740000000  0.5151040000000 1.0
C      1  0.4635110000000  0.4119980000000  0.5438940000000 1.0
C      1  0.4845430000000  0.4089930000000  0.4419310000000 1.0
C      1  0.5557700000000  0.5908300000000  0.4852510000000 1.0
C      1  0.4595810000000  0.5878030000000  0.4607630000000 1.0
C      1  0.4846800000000  0.5896600000000  0.5562470000000 1.0
C      1  0.5570200000000  0.4103800000000  0.4852160000000 1.0
C      1  0.4611470000000  0.4095650000000  0.4583920000000 1.0
C      1  0.4842680000000  0.4146040000000  0.5628700000000 1.0
C      1  0.4135080000000  0.4829940000000  0.4781880000000 1.0
C      1  0.5654740000000  0.4748290000000  0.4388020000000 1.0
C      1  0.5261410000000  0.4862890000000  0.5919620000000 1.0
C      1  0.4034590000000  0.5152400000000  0.4695840000000 1.0
C      1  0.5649250000000  0.5221670000000  0.4334370000000 1.0
C      1  0.5239790000000  0.5142990000000  0.6031820000000 1.0
C      1  0.4077500000000  0.4914400000000  0.5287150000000 1.0
C      1  0.5711330000000  0.4835080000000  0.5674590000000 1.0
C      1  0.5254390000000  0.4806110000000  0.4040750000000 1.0
C      1  0.4150200000000  0.5185600000000  0.5204490000000 1.0
C      1  0.5563000000000  0.5153020000000  0.5686100000000 1.0
C      1  0.5221310000000  0.5208910000000  0.3960310000000 1.0
C      1  0.5179620000000  0.5427290000000  0.4442700000000 1.0
C      1  0.5322500000000  0.5149570000000  0.5551890000000 1.0
C      1  0.4362420000000  0.5204510000000  0.4996820000000 1.0
C      1  0.5213000000000  0.4877400000000  0.4320700000000 1.0
C      1  0.5561740000000  0.4792380000000  0.5426610000000 1.0
C      1  0.4277420000000  0.4732260000000  0.5164990000000 1.0
C      1  0.5079620000000  0.5313750000000  0.5533970000000 1.0
C      1  0.5399110000000  0.5250590000000  0.4482260000000 1.0
C      1  0.4321540000000  0.5213320000000  0.4721310000000 1.0
C      1  0.5120780000000  0.4800840000000  0.5676340000000 1.0
C      1  0.5390820000000  0.4784980000000  0.4521840000000 1.0
C      1  0.4394710000000  0.4797890000000  0.4900930000000 1.0
C      1  0.4836420000000  0.5498210000000  0.4850230000000 1.0
C      1  0.5314160000000  0.5488820000000  0.4854050000000 1.0
C      1  0.5079780000000  0.5568420000000  0.5309200000000 1.0
C      1  0.4755630000000  0.4448860000000  0.4877070000000 1.0
C      1  0.5242020000000  0.4461660000000  0.4855910000000 1.0
C      1  0.5009530000000  0.4324320000000  0.5266420000000 1.0
C      1  0.4843560000000  0.5511210000000  0.5140830000000 1.0
C      1  0.5339780000000  0.5497750000000  0.5158120000000 1.0
C      1  0.5079100000000  0.5583420000000  0.4683940000000 1.0
C      1  0.4763950000000  0.4458280000000  0.5169580000000 1.0
C      1  0.5239240000000  0.4458980000000  0.5148620000000 1.0
C      1  0.4996000000000  0.4335090000000  0.4763920000000 1.0
C      1  0.5301130000000  0.4870910000000  0.5447280000000 1.0
C      1  0.5110160000000  0.5141260000000  0.4432560000000 1.0
C      1  0.4628080000000  0.5137970000000  0.5027220000000 1.0
END
