TITL C-2441168-9922-541 0.151314344341483 125000 -23196.3903699019 0 0 176 (C1) n - 1
REM
REM in /home/bkarasulu/work/CARBON/AIRSS/Generating-Clusters/ReaxFF-fromJPCA2015/Units_Real/with-SteepDescent/Higher-Symm
REM
REM
REM
REM
REM
REM ./C.cell (1df0a924f5614ab8850e4351716899ee)
REM
REM compiler GCC version 9.2.1 20190827 (Red Hat 9.2.1-1)
REM options -cpp -mtune=generic -march=x86-64 -g -O0 -fpre-include=/usr/include/finclude/math-vector-fortran.h
REM seed -1904147634 -1099205502 314635101 2136711497 1908081867 -162108233 -2076617783 -296560481 -1458494447 203140415 1642240110 1332033660 1374498470 1261614642 -1680396693 -1829664470 -441058313 1268249815 -1074775951 165181699 -778208694 172064748 -1143027778 2121883317 1257520662 -871546596 -1129797325 -1530318541 -907340168 -1694386980 -1769503095 1903537634 340681989
REM
CELL 1.54180   50.00000   50.00000   50.00000   90.00000   90.00000   90.00000
LATT -1
SFAC C  
C      1  0.5367000000000  0.5074090000000  0.4723380000000 1.0
C      1  0.4936110000000  0.5108570000000  0.5452880000000 1.0
C      1  0.4646960000000  0.5119160000000  0.4679090000000 1.0
C      1  0.4481290000000  0.4159070000000  0.4791980000000 1.0
C      1  0.5408810000000  0.4300450000000  0.4716090000000 1.0
C      1  0.5085760000000  0.4154310000000  0.5564480000000 1.0
C      1  0.4990790000000  0.5761940000000  0.5104590000000 1.0
C      1  0.4775010000000  0.5792520000000  0.4943020000000 1.0
C      1  0.5192780000000  0.5739350000000  0.4930590000000 1.0
C      1  0.4249090000000  0.5445560000000  0.4872030000000 1.0
C      1  0.5484110000000  0.5426450000000  0.4412000000000 1.0
C      1  0.5329780000000  0.5453070000000  0.5560330000000 1.0
C      1  0.5459260000000  0.4387250000000  0.4462630000000 1.0
C      1  0.5244350000000  0.4355140000000  0.5672870000000 1.0
C      1  0.4294730000000  0.4354780000000  0.4878360000000 1.0
C      1  0.4757840000000  0.5623320000000  0.4279800000000 1.0
C      1  0.5797670000000  0.5663570000000  0.5182090000000 1.0
C      1  0.4504990000000  0.5639030000000  0.5590930000000 1.0
C      1  0.5435000000000  0.4446890000000  0.5483080000000 1.0
C      1  0.4359520000000  0.4448810000000  0.5143140000000 1.0
C      1  0.5207950000000  0.4446070000000  0.4354210000000 1.0
C      1  0.5866250000000  0.4658750000000  0.5469910000000 1.0
C      1  0.4190570000000  0.4681150000000  0.5514050000000 1.0
C      1  0.4968590000000  0.4646170000000  0.3996350000000 1.0
C      1  0.5283610000000  0.5900370000000  0.5332120000000 1.0
C      1  0.4580830000000  0.6003320000000  0.5051920000000 1.0
C      1  0.5174350000000  0.6002780000000  0.4606530000000 1.0
C      1  0.5593260000000  0.5762040000000  0.4700510000000 1.0
C      1  0.4997910000000  0.5786480000000  0.5690380000000 1.0
C      1  0.4441610000000  0.5796240000000  0.4641510000000 1.0
C      1  0.4785560000000  0.4196720000000  0.4500970000000 1.0
C      1  0.5600610000000  0.4150030000000  0.5040400000000 1.0
C      1  0.4654460000000  0.4191290000000  0.5511550000000 1.0
C      1  0.5164000000000  0.4005820000000  0.5329330000000 1.0
C      1  0.4660090000000  0.4031900000000  0.4977710000000 1.0
C      1  0.5160970000000  0.4123330000000  0.4661810000000 1.0
C      1  0.4769540000000  0.6061500000000  0.4838830000000 1.0
C      1  0.5258110000000  0.6018720000000  0.4885500000000 1.0
C      1  0.5011000000000  0.6013820000000  0.5274570000000 1.0
C      1  0.5955770000000  0.4961710000000  0.4657700000000 1.0
C      1  0.4795380000000  0.4902850000000  0.5996790000000 1.0
C      1  0.4245920000000  0.4885420000000  0.4317160000000 1.0
C      1  0.5025490000000  0.5039890000000  0.4368270000000 1.0
C      1  0.5517370000000  0.5242180000000  0.5455620000000 1.0
C      1  0.4442310000000  0.5057940000000  0.5279320000000 1.0
C      1  0.5765970000000  0.4976640000000  0.5814860000000 1.0
C      1  0.3911850000000  0.4943290000000  0.5286070000000 1.0
C      1  0.5302150000000  0.4964150000000  0.3903780000000 1.0
C      1  0.4719090000000  0.5838570000000  0.5580730000000 1.0
C      1  0.4675790000000  0.5828970000000  0.4467200000000 1.0
C      1  0.5658710000000  0.5836150000000  0.4975410000000 1.0
C      1  0.5173250000000  0.4889930000000  0.4790970000000 1.0
C      1  0.5122700000000  0.4836710000000  0.5298300000000 1.0
C      1  0.4715320000000  0.4907230000000  0.4852420000000 1.0
C      1  0.5659640000000  0.4409150000000  0.5146330000000 1.0
C      1  0.4612720000000  0.4482900000000  0.5524000000000 1.0
C      1  0.4739110000000  0.4494270000000  0.4402410000000 1.0
C      1  0.4143020000000  0.4568530000000  0.5270730000000 1.0
C      1  0.5213150000000  0.4541690000000  0.4084640000000 1.0
C      1  0.5653200000000  0.4562870000000  0.5616320000000 1.0
C      1  0.5676530000000  0.5310880000000  0.4901190000000 1.0
C      1  0.4871780000000  0.5335510000000  0.5753190000000 1.0
C      1  0.4348470000000  0.5355910000000  0.4442300000000 1.0
C      1  0.5213750000000  0.5514870000000  0.4769060000000 1.0
C      1  0.4983450000000  0.5494660000000  0.5270240000000 1.0
C      1  0.4729240000000  0.5506550000000  0.4846770000000 1.0
C      1  0.4862370000000  0.5231100000000  0.4518910000000 1.0
C      1  0.5459960000000  0.5347250000000  0.5163040000000 1.0
C      1  0.4528560000000  0.5340450000000  0.5293730000000 1.0
C      1  0.5041340000000  0.5581300000000  0.4189280000000 1.0
C      1  0.5735600000000  0.5635310000000  0.5467480000000 1.0
C      1  0.4301320000000  0.5551790000000  0.5346310000000 1.0
C      1  0.4488720000000  0.4678170000000  0.4064850000000 1.0
C      1  0.6018970000000  0.4599060000000  0.4977730000000 1.0
C      1  0.4463000000000  0.4688060000000  0.5907260000000 1.0
C      1  0.5383790000000  0.5236700000000  0.5969890000000 1.0
C      1  0.3898790000000  0.5205310000000  0.4884670000000 1.0
C      1  0.5655470000000  0.5220190000000  0.4100380000000 1.0
C      1  0.3926070000000  0.5208290000000  0.5185910000000 1.0
C      1  0.5379420000000  0.5226050000000  0.3981020000000 1.0
C      1  0.5650110000000  0.5233230000000  0.5848460000000 1.0
C      1  0.4673110000000  0.4643290000000  0.4824670000000 1.0
C      1  0.5372930000000  0.4603770000000  0.4881960000000 1.0
C      1  0.5031360000000  0.4586400000000  0.5376320000000 1.0
C      1  0.4094480000000  0.5222520000000  0.4496530000000 1.0
C      1  0.5931400000000  0.5136340000000  0.4404140000000 1.0
C      1  0.5007480000000  0.5111290000000  0.6115740000000 1.0
C      1  0.4023060000000  0.5408390000000  0.4718860000000 1.0
C      1  0.5764610000000  0.5370640000000  0.4324330000000 1.0
C      1  0.5089050000000  0.5337120000000  0.5962310000000 1.0
C      1  0.4431980000000  0.5507410000000  0.4677970000000 1.0
C      1  0.5503950000000  0.5481820000000  0.4692510000000 1.0
C      1  0.4996620000000  0.5511860000000  0.5582310000000 1.0
C      1  0.5272870000000  0.4994190000000  0.6109340000000 1.0
C      1  0.3950640000000  0.5011520000000  0.4670600000000 1.0
C      1  0.5827690000000  0.4983280000000  0.4181980000000 1.0
C      1  0.5295620000000  0.4962830000000  0.4317770000000 1.0
C      1  0.5420190000000  0.4974160000000  0.5541550000000 1.0
C      1  0.4299650000000  0.4974230000000  0.5039380000000 1.0
C      1  0.4535730000000  0.4638430000000  0.4585710000000 1.0
C      1  0.5602870000000  0.4754590000000  0.4823410000000 1.0
C      1  0.4874850000000  0.4631240000000  0.5600180000000 1.0
C      1  0.4582660000000  0.5421120000000  0.5758690000000 1.0
C      1  0.4554840000000  0.5411710000000  0.4246970000000 1.0
C      1  0.5906910000000  0.5431590000000  0.5041630000000 1.0
C      1  0.4061270000000  0.4773690000000  0.5086660000000 1.0
C      1  0.5402280000000  0.4771520000000  0.4113460000000 1.0
C      1  0.5551740000000  0.4766110000000  0.5794550000000 1.0
C      1  0.4375490000000  0.5860780000000  0.4916240000000 1.0
C      1  0.5389360000000  0.5840470000000  0.4504110000000 1.0
C      1  0.5270350000000  0.5872520000000  0.5633830000000 1.0
C      1  0.4979680000000  0.4820460000000  0.5784150000000 1.0
C      1  0.4319280000000  0.4839450000000  0.4603830000000 1.0
C      1  0.5694560000000  0.4846230000000  0.4563500000000 1.0
C      1  0.4600700000000  0.4581000000000  0.5233670000000 1.0
C      1  0.4996110000000  0.4578180000000  0.4493450000000 1.0
C      1  0.5423350000000  0.4571240000000  0.5200820000000 1.0
C      1  0.4828690000000  0.4974840000000  0.5066480000000 1.0
C      1  0.5065150000000  0.5106460000000  0.4975610000000 1.0
C      1  0.5320610000000  0.5104170000000  0.5089050000000 1.0
C      1  0.4530500000000  0.4965680000000  0.5884620000000 1.0
C      1  0.4477010000000  0.4944490000000  0.4150360000000 1.0
C      1  0.5804720000000  0.5042360000000  0.4908020000000 1.0
C      1  0.4732110000000  0.4544210000000  0.4105800000000 1.0
C      1  0.5919480000000  0.4522030000000  0.5222290000000 1.0
C      1  0.4371900000000  0.4561410000000  0.5673750000000 1.0
C      1  0.4894370000000  0.5163100000000  0.3976320000000 1.0
C      1  0.5954650000000  0.5152490000000  0.5414490000000 1.0
C      1  0.4153530000000  0.5178090000000  0.5616600000000 1.0
C      1  0.4844840000000  0.4183080000000  0.5720320000000 1.0
C      1  0.4496010000000  0.4187740000000  0.4507560000000 1.0
C      1  0.5689330000000  0.4215010000000  0.4776700000000 1.0
C      1  0.5004790000000  0.4835020000000  0.4570540000000 1.0
C      1  0.5404240000000  0.4874880000000  0.5261420000000 1.0
C      1  0.4653730000000  0.4859010000000  0.5267740000000 1.0
C      1  0.5332410000000  0.4033760000000  0.5093830000000 1.0
C      1  0.4717420000000  0.4067600000000  0.5259230000000 1.0
C      1  0.4924340000000  0.4256710000000  0.4743460000000 1.0
C      1  0.4266370000000  0.4601900000000  0.4232690000000 1.0
C      1  0.6035530000000  0.4645570000000  0.4716520000000 1.0
C      1  0.4714320000000  0.4604180000000  0.6021090000000 1.0
C      1  0.4041080000000  0.4920000000000  0.5542920000000 1.0
C      1  0.5018340000000  0.4912080000000  0.3898920000000 1.0
C      1  0.5927590000000  0.4918280000000  0.5572840000000 1.0
C      1  0.4962520000000  0.5440810000000  0.4676680000000 1.0
C      1  0.5274600000000  0.5543370000000  0.5281540000000 1.0
C      1  0.4749410000000  0.5394680000000  0.5119820000000 1.0
C      1  0.4929960000000  0.3888340000000  0.5238740000000 1.0
C      1  0.4895000000000  0.3853210000000  0.4959230000000 1.0
C      1  0.5169920000000  0.3931450000000  0.4875610000000 1.0
C      1  0.5137530000000  0.5014210000000  0.5637420000000 1.0
C      1  0.4374830000000  0.5083300000000  0.4780750000000 1.0
C      1  0.5491540000000  0.5055720000000  0.4492140000000 1.0
C      1  0.4632660000000  0.5178170000000  0.4098000000000 1.0
C      1  0.5980010000000  0.5161190000000  0.5127700000000 1.0
C      1  0.4405630000000  0.5191360000000  0.5774340000000 1.0
C      1  0.5783160000000  0.5352650000000  0.5573910000000 1.0
C      1  0.4083670000000  0.5343820000000  0.5394910000000 1.0
C      1  0.5109770000000  0.5352090000000  0.4026330000000 1.0
C      1  0.4737460000000  0.5999020000000  0.5341930000000 1.0
C      1  0.4879770000000  0.6006820000000  0.4580960000000 1.0
C      1  0.5457140000000  0.5999230000000  0.5095080000000 1.0
C      1  0.4270020000000  0.4376750000000  0.4429390000000 1.0
C      1  0.5872270000000  0.4402400000000  0.4639950000000 1.0
C      1  0.4882830000000  0.4385630000000  0.5940380000000 1.0
C      1  0.4134070000000  0.4468760000000  0.4673030000000 1.0
C      1  0.5720830000000  0.4468600000000  0.4396360000000 1.0
C      1  0.5168370000000  0.4457120000000  0.5932030000000 1.0
C      1  0.5501030000000  0.5689950000000  0.5634140000000 1.0
C      1  0.4255860000000  0.5652350000000  0.5063000000000 1.0
C      1  0.5301850000000  0.5638310000000  0.4313830000000 1.0
C      1  0.4027370000000  0.4734150000000  0.4752360000000 1.0
C      1  0.5709050000000  0.4713540000000  0.4233920000000 1.0
C      1  0.5297830000000  0.4724660000000  0.5973260000000 1.0
C      1  0.5030120000000  0.4651580000000  0.5098220000000 1.0
C      1  0.4856970000000  0.4456570000000  0.4959260000000 1.0
END
