TITL C-2441167-4473-1147 0.0264785493697943 125000 -14379.4062996188 0 0 100 (C1) n - 1
REM
REM in /home/bkarasulu/work/CARBON/AIRSS/Generating-Clusters/ReaxFF-fromJPCA2015/Units_Real/with-SteepDescent/Higher-Symm
REM
REM
REM
REM
REM
REM ./C.cell (1df0a924f5614ab8850e4351716899ee)
REM
REM compiler GCC version 9.2.1 20190827 (Red Hat 9.2.1-1)
REM options -cpp -mtune=generic -march=x86-64 -g -O0 -fpre-include=/usr/include/finclude/math-vector-fortran.h
REM seed -510255976 -315989784 221076384 325630664 2091061180 2088044885 439774978 -2091687263 1103444904 -2032049446 -1408013578 1542713341 1475090722 -1383479598 2102219600 492859825 1851987828 -957246692 637491743 -827881212 -1684865851 1322047305 -823855738 -526393451 222579243 1803091724 1773009268 -709857560 -839748633 -1315533414 -1190220562 1481322539 -1469289197
REM
CELL 1.54180   50.00000   50.00000   50.00000   90.00000   90.00000   90.00000
LATT -1
SFAC C  
C      1  0.5176300000000  0.5136830000000  0.4300680000000 1.0
C      1  0.5134780000000  0.4819050000000  0.4339460000000 1.0
C      1  0.4809640000000  0.4822870000000  0.4313240000000 1.0
C      1  0.4850610000000  0.5224080000000  0.4313410000000 1.0
C      1  0.4349210000000  0.5158180000000  0.4538870000000 1.0
C      1  0.5215400000000  0.5636630000000  0.4552380000000 1.0
C      1  0.5625900000000  0.4854290000000  0.4543080000000 1.0
C      1  0.4841040000000  0.4328350000000  0.4537260000000 1.0
C      1  0.5048850000000  0.4659930000000  0.4947240000000 1.0
C      1  0.4634020000000  0.4919620000000  0.4900160000000 1.0
C      1  0.4925750000000  0.5353530000000  0.4907260000000 1.0
C      1  0.5320880000000  0.5056020000000  0.4928380000000 1.0
C      1  0.5148270000000  0.4135770000000  0.4907300000000 1.0
C      1  0.4126130000000  0.4859710000000  0.4911020000000 1.0
C      1  0.4869030000000  0.5871150000000  0.4911380000000 1.0
C      1  0.5854680000000  0.5157670000000  0.4900650000000 1.0
C      1  0.4650470000000  0.5526810000000  0.5591400000000 1.0
C      1  0.5529280000000  0.5347160000000  0.5590210000000 1.0
C      1  0.5346220000000  0.4475220000000  0.5589040000000 1.0
C      1  0.4470170000000  0.4652590000000  0.5590660000000 1.0
C      1  0.5338210000000  0.4168160000000  0.4686240000000 1.0
C      1  0.4176550000000  0.4673680000000  0.4690870000000 1.0
C      1  0.4679300000000  0.5828720000000  0.4692120000000 1.0
C      1  0.5811390000000  0.5356650000000  0.4689610000000 1.0
C      1  0.4363530000000  0.4464800000000  0.4689030000000 1.0
C      1  0.4473600000000  0.5636690000000  0.4688300000000 1.0
C      1  0.5600000000000  0.5561910000000  0.4663950000000 1.0
C      1  0.5557400000000  0.4343850000000  0.4679370000000 1.0
C      1  0.5130180000000  0.5789700000000  0.4817910000000 1.0
C      1  0.5784970000000  0.4893200000000  0.4812560000000 1.0
C      1  0.4883320000000  0.4200990000000  0.4815020000000 1.0
C      1  0.4204990000000  0.5120040000000  0.4811750000000 1.0
C      1  0.5725310000000  0.5180600000000  0.5439630000000 1.0
C      1  0.5177640000000  0.4279450000000  0.5441460000000 1.0
C      1  0.4275620000000  0.4820490000000  0.5440850000000 1.0
C      1  0.4819190000000  0.5721970000000  0.5443920000000 1.0
C      1  0.5544650000000  0.4506630000000  0.5383160000000 1.0
C      1  0.4494030000000  0.4445270000000  0.5391670000000 1.0
C      1  0.4454510000000  0.5498310000000  0.5385510000000 1.0
C      1  0.5506290000000  0.5553700000000  0.5392320000000 1.0
C      1  0.4693850000000  0.4244280000000  0.5022580000000 1.0
C      1  0.4245390000000  0.5308450000000  0.5020040000000 1.0
C      1  0.5310240000000  0.5764390000000  0.5032870000000 1.0
C      1  0.5751740000000  0.4698820000000  0.5015580000000 1.0
C      1  0.4988160000000  0.4323340000000  0.4297480000000 1.0
C      1  0.4321480000000  0.5016640000000  0.4297100000000 1.0
C      1  0.5061300000000  0.5692440000000  0.4301470000000 1.0
C      1  0.5680530000000  0.4964400000000  0.4285680000000 1.0
C      1  0.5277620000000  0.5710900000000  0.5330860000000 1.0
C      1  0.5702710000000  0.4727310000000  0.5311390000000 1.0
C      1  0.4724290000000  0.4291690000000  0.5320020000000 1.0
C      1  0.4298140000000  0.5273800000000  0.5313860000000 1.0
C      1  0.5279580000000  0.4789250000000  0.4837830000000 1.0
C      1  0.4823600000000  0.4722770000000  0.4789640000000 1.0
C      1  0.4718120000000  0.5183480000000  0.4801230000000 1.0
C      1  0.5174430000000  0.5257040000000  0.4786260000000 1.0
C      1  0.4354180000000  0.5562840000000  0.4932930000000 1.0
C      1  0.5549960000000  0.5640810000000  0.4935490000000 1.0
C      1  0.5642850000000  0.4444360000000  0.4929330000000 1.0
C      1  0.4438900000000  0.4350260000000  0.4935790000000 1.0
C      1  0.5199230000000  0.4509530000000  0.4295090000000 1.0
C      1  0.4516150000000  0.4810480000000  0.4344190000000 1.0
C      1  0.4824350000000  0.5507890000000  0.4346570000000 1.0
C      1  0.5495450000000  0.5178010000000  0.4291410000000 1.0
C      1  0.4782570000000  0.5022190000000  0.5427690000000 1.0
C      1  0.4954750000000  0.5244720000000  0.5425250000000 1.0
C      1  0.5246590000000  0.4953190000000  0.5422070000000 1.0
C      1  0.5006280000000  0.4807560000000  0.5446250000000 1.0
C      1  0.4652220000000  0.5169340000000  0.4526890000000 1.0
C      1  0.5187180000000  0.5335100000000  0.4522210000000 1.0
C      1  0.5335350000000  0.4811300000000  0.4561900000000 1.0
C      1  0.4827160000000  0.4628660000000  0.4530840000000 1.0
C      1  0.4918970000000  0.4712050000000  0.5190670000000 1.0
C      1  0.4698550000000  0.4879080000000  0.5180530000000 1.0
C      1  0.5047410000000  0.5305440000000  0.5171720000000 1.0
C      1  0.5266620000000  0.5123000000000  0.5196730000000 1.0
C      1  0.4498000000000  0.5657820000000  0.5158510000000 1.0
C      1  0.5658220000000  0.5509810000000  0.5159110000000 1.0
C      1  0.5502860000000  0.4349630000000  0.5156700000000 1.0
C      1  0.4336570000000  0.4490340000000  0.5161400000000 1.0
C      1  0.4606930000000  0.5053670000000  0.5700710000000 1.0
C      1  0.5050940000000  0.5376920000000  0.5690500000000 1.0
C      1  0.5385020000000  0.4943040000000  0.5688700000000 1.0
C      1  0.4942300000000  0.4613310000000  0.5707060000000 1.0
C      1  0.5594590000000  0.5323380000000  0.4525260000000 1.0
C      1  0.5339710000000  0.4397250000000  0.4522060000000 1.0
C      1  0.4446870000000  0.4714770000000  0.4620760000000 1.0
C      1  0.4729110000000  0.5558520000000  0.4630630000000 1.0
C      1  0.4743480000000  0.5799410000000  0.5168400000000 1.0
C      1  0.5800150000000  0.5266440000000  0.5167680000000 1.0
C      1  0.5261080000000  0.4203030000000  0.5168260000000 1.0
C      1  0.4196900000000  0.4738030000000  0.5168890000000 1.0
C      1  0.4920570000000  0.4351810000000  0.5517920000000 1.0
C      1  0.4348660000000  0.5078140000000  0.5513740000000 1.0
C      1  0.5077300000000  0.5651400000000  0.5521670000000 1.0
C      1  0.5659270000000  0.4921930000000  0.5510320000000 1.0
C      1  0.4678380000000  0.4762460000000  0.5745730000000 1.0
C      1  0.4750350000000  0.5318510000000  0.5760610000000 1.0
C      1  0.5317520000000  0.5239150000000  0.5740100000000 1.0
C      1  0.5231990000000  0.4676080000000  0.5749500000000 1.0
END
