TITL C-2441159-1093-1333 0.159280175415796 125000 -26673.1699297255 0 0 200 (C1) n - 1
REM
REM in /home/bkarasulu/work/CARBON/AIRSS/Generating-Clusters/ReaxFF-fromJPCA2015/Units_Real/with-SteepDescent/Higher-Symm
REM
REM
REM
REM
REM
REM ./C.cell (1df0a924f5614ab8850e4351716899ee)
REM
REM compiler GCC version 9.2.1 20190827 (Red Hat 9.2.1-1)
REM options -cpp -mtune=generic -march=x86-64 -g -O0 -fpre-include=/usr/include/finclude/math-vector-fortran.h
REM seed -720494760 -153519829 -1772010108 -680072868 -433780616 2001237344 1124995493 -1978412176 1082502615 -232031834 -288435288 722857697 -1629874097 1100428379 -1361969700 -1507781820 -1140043046 6335246 -53698626 597164023 750736212 -1153604546 40139658 843365529 945299121 1570832966 542351135 -1101100907 -1085002229 1638467723 -2092669964 485429679 -1628709634
REM
CELL 1.54180   50.00000   50.00000   50.00000   90.00000   90.00000   90.00000
LATT -1
SFAC C  
C      1  0.5064730000000  0.4722960000000  0.4935450000000 1.0
C      1  0.4906670000000  0.5148740000000  0.4678370000000 1.0
C      1  0.4481840000000  0.4866340000000  0.5285380000000 1.0
C      1  0.4749390000000  0.5258220000000  0.4898940000000 1.0
C      1  0.4714880000000  0.4417760000000  0.5252270000000 1.0
C      1  0.5259540000000  0.5526930000000  0.5163580000000 1.0
C      1  0.5173670000000  0.4778590000000  0.4509030000000 1.0
C      1  0.5198650000000  0.5268620000000  0.5498730000000 1.0
C      1  0.4876350000000  0.4778430000000  0.5483320000000 1.0
C      1  0.5481020000000  0.5154650000000  0.5077830000000 1.0
C      1  0.5261350000000  0.4836710000000  0.4763180000000 1.0
C      1  0.4485690000000  0.5144170000000  0.4758360000000 1.0
C      1  0.5241180000000  0.4570810000000  0.5124310000000 1.0
C      1  0.4929390000000  0.5207760000000  0.5416790000000 1.0
C      1  0.4531340000000  0.4854670000000  0.4754100000000 1.0
C      1  0.4788990000000  0.5194470000000  0.5189370000000 1.0
C      1  0.4785620000000  0.4717570000000  0.4893570000000 1.0
C      1  0.5233600000000  0.5505380000000  0.4871990000000 1.0
C      1  0.5126350000000  0.4836990000000  0.5493460000000 1.0
C      1  0.5174800000000  0.5267240000000  0.4725680000000 1.0
C      1  0.4898090000000  0.4825220000000  0.4513970000000 1.0
C      1  0.5363970000000  0.5088200000000  0.4807700000000 1.0
C      1  0.5305110000000  0.4757040000000  0.5326690000000 1.0
C      1  0.4512410000000  0.5147050000000  0.5274550000000 1.0
C      1  0.4664540000000  0.5969380000000  0.5582450000000 1.0
C      1  0.5546400000000  0.4699130000000  0.5916570000000 1.0
C      1  0.5956030000000  0.5581730000000  0.4653370000000 1.0
C      1  0.5314780000000  0.4054480000000  0.5595930000000 1.0
C      1  0.5282210000000  0.5921820000000  0.4414110000000 1.0
C      1  0.4677200000000  0.4095260000000  0.4462340000000 1.0
C      1  0.4416910000000  0.5330370000000  0.5953690000000 1.0
C      1  0.4409500000000  0.4675300000000  0.4050480000000 1.0
C      1  0.5553910000000  0.5306240000000  0.4087620000000 1.0
C      1  0.4075830000000  0.4410390000000  0.4713580000000 1.0
C      1  0.4057340000000  0.5598330000000  0.5313710000000 1.0
C      1  0.5931340000000  0.4430480000000  0.5343210000000 1.0
C      1  0.4717550000000  0.5904230000000  0.4445300000000 1.0
C      1  0.5577180000000  0.4701210000000  0.4087140000000 1.0
C      1  0.5937810000000  0.5529350000000  0.5340690000000 1.0
C      1  0.5325600000000  0.4053250000000  0.4408750000000 1.0
C      1  0.5327550000000  0.5942550000000  0.5590940000000 1.0
C      1  0.4705840000000  0.4097310000000  0.5562410000000 1.0
C      1  0.4463300000000  0.5332560000000  0.4062150000000 1.0
C      1  0.4433660000000  0.4654190000000  0.5940420000000 1.0
C      1  0.5579430000000  0.5271170000000  0.5930550000000 1.0
C      1  0.4069700000000  0.4414510000000  0.5295070000000 1.0
C      1  0.4075200000000  0.5586590000000  0.4691470000000 1.0
C      1  0.5938890000000  0.4436270000000  0.4686270000000 1.0
C      1  0.5483090000000  0.4426980000000  0.4137920000000 1.0
C      1  0.4147520000000  0.5506760000000  0.4415650000000 1.0
C      1  0.4437400000000  0.4150420000000  0.5433550000000 1.0
C      1  0.4595840000000  0.5572740000000  0.4164410000000 1.0
C      1  0.4574220000000  0.4400280000000  0.5835750000000 1.0
C      1  0.5493740000000  0.5553280000000  0.5875360000000 1.0
C      1  0.5865970000000  0.4539360000000  0.4423370000000 1.0
C      1  0.5835290000000  0.5388990000000  0.5584540000000 1.0
C      1  0.4132910000000  0.4491620000000  0.5571530000000 1.0
C      1  0.5598070000000  0.5856420000000  0.5514310000000 1.0
C      1  0.5599740000000  0.4121090000000  0.4496700000000 1.0
C      1  0.4451450000000  0.5837900000000  0.4558370000000 1.0
C      1  0.5441000000000  0.4442730000000  0.5847020000000 1.0
C      1  0.4117820000000  0.5503210000000  0.5587400000000 1.0
C      1  0.4408600000000  0.4150530000000  0.4584910000000 1.0
C      1  0.4509920000000  0.5597980000000  0.5874880000000 1.0
C      1  0.4505080000000  0.4414090000000  0.4147310000000 1.0
C      1  0.5396840000000  0.5554060000000  0.4175590000000 1.0
C      1  0.5842820000000  0.4577040000000  0.5588850000000 1.0
C      1  0.5846080000000  0.5466290000000  0.4403170000000 1.0
C      1  0.4135910000000  0.4511080000000  0.4432620000000 1.0
C      1  0.5568380000000  0.5868850000000  0.4487850000000 1.0
C      1  0.5576830000000  0.4148810000000  0.5496700000000 1.0
C      1  0.4405770000000  0.5878320000000  0.5469640000000 1.0
C      1  0.3898740000000  0.4608150000000  0.5154960000000 1.0
C      1  0.5151750000000  0.3906100000000  0.4596700000000 1.0
C      1  0.4597470000000  0.5141520000000  0.3879600000000 1.0
C      1  0.6101520000000  0.5389300000000  0.5142910000000 1.0
C      1  0.6117530000000  0.4596260000000  0.4858930000000 1.0
C      1  0.3904120000000  0.5407360000000  0.4856240000000 1.0
C      1  0.4848520000000  0.6101210000000  0.4613320000000 1.0
C      1  0.4874280000000  0.3900080000000  0.5401050000000 1.0
C      1  0.5149680000000  0.6097800000000  0.5410070000000 1.0
C      1  0.5405360000000  0.4849470000000  0.3898650000000 1.0
C      1  0.5394840000000  0.5140390000000  0.6117780000000 1.0
C      1  0.4597560000000  0.4848080000000  0.6094500000000 1.0
C      1  0.3902560000000  0.4604100000000  0.4859460000000 1.0
C      1  0.5169430000000  0.3899820000000  0.5392450000000 1.0
C      1  0.4609500000000  0.5146490000000  0.6086150000000 1.0
C      1  0.6118030000000  0.5420850000000  0.4847460000000 1.0
C      1  0.6108560000000  0.4583040000000  0.5152690000000 1.0
C      1  0.3902630000000  0.5406910000000  0.5149260000000 1.0
C      1  0.4852730000000  0.6119020000000  0.5406490000000 1.0
C      1  0.4856920000000  0.3907350000000  0.4593950000000 1.0
C      1  0.5140480000000  0.6106110000000  0.4596300000000 1.0
C      1  0.5385890000000  0.4848260000000  0.6117440000000 1.0
C      1  0.5413580000000  0.5146170000000  0.3887160000000 1.0
C      1  0.4602700000000  0.4844800000000  0.3900020000000 1.0
C      1  0.5740020000000  0.4788080000000  0.4321900000000 1.0
C      1  0.4293340000000  0.5750510000000  0.4795500000000 1.0
C      1  0.4818040000000  0.4267590000000  0.5770630000000 1.0
C      1  0.4264620000000  0.5272290000000  0.4284800000000 1.0
C      1  0.4249070000000  0.4714170000000  0.5722480000000 1.0
C      1  0.5757700000000  0.5148880000000  0.5732700000000 1.0
C      1  0.5708340000000  0.4251830000000  0.4736220000000 1.0
C      1  0.5728250000000  0.5737840000000  0.5281130000000 1.0
C      1  0.4286880000000  0.4239950000000  0.5163960000000 1.0
C      1  0.5269590000000  0.5701570000000  0.5754040000000 1.0
C      1  0.5253070000000  0.4295540000000  0.4263030000000 1.0
C      1  0.4849020000000  0.5715510000000  0.4254100000000 1.0
C      1  0.5719800000000  0.4836740000000  0.5679600000000 1.0
C      1  0.4277160000000  0.5775070000000  0.5225310000000 1.0
C      1  0.4739820000000  0.4337210000000  0.4304620000000 1.0
C      1  0.4247990000000  0.5276320000000  0.5720470000000 1.0
C      1  0.4258470000000  0.4737990000000  0.4294410000000 1.0
C      1  0.5714790000000  0.5218360000000  0.4315390000000 1.0
C      1  0.5693850000000  0.4276500000000  0.5265670000000 1.0
C      1  0.5727070000000  0.5758890000000  0.4711150000000 1.0
C      1  0.4258640000000  0.4221800000000  0.4824070000000 1.0
C      1  0.5153170000000  0.5727540000000  0.4241090000000 1.0
C      1  0.5168990000000  0.4275050000000  0.5753690000000 1.0
C      1  0.4736950000000  0.5733940000000  0.5745670000000 1.0
C      1  0.4008910000000  0.4853250000000  0.4747570000000 1.0
C      1  0.4753780000000  0.3965520000000  0.4863180000000 1.0
C      1  0.4855800000000  0.4757570000000  0.4013050000000 1.0
C      1  0.6060690000000  0.5163270000000  0.4726430000000 1.0
C      1  0.5995460000000  0.4834420000000  0.5241610000000 1.0
C      1  0.4017760000000  0.5152300000000  0.5245680000000 1.0
C      1  0.5222890000000  0.5989280000000  0.4851260000000 1.0
C      1  0.5268640000000  0.4010820000000  0.5140180000000 1.0
C      1  0.4735670000000  0.6006440000000  0.5159180000000 1.0
C      1  0.5151670000000  0.5255500000000  0.3955570000000 1.0
C      1  0.5133420000000  0.4743870000000  0.6001550000000 1.0
C      1  0.4855040000000  0.5244190000000  0.5965240000000 1.0
C      1  0.4006130000000  0.4865040000000  0.5247700000000 1.0
C      1  0.4756810000000  0.3911720000000  0.5140880000000 1.0
C      1  0.4843220000000  0.4746310000000  0.5978900000000 1.0
C      1  0.5987280000000  0.5127690000000  0.5218780000000 1.0
C      1  0.6048790000000  0.4875540000000  0.4768400000000 1.0
C      1  0.3995860000000  0.5147580000000  0.4755190000000 1.0
C      1  0.5246120000000  0.6023180000000  0.5143350000000 1.0
C      1  0.5252840000000  0.4009250000000  0.4851870000000 1.0
C      1  0.4723910000000  0.6027670000000  0.4870200000000 1.0
C      1  0.5140080000000  0.5263550000000  0.6023180000000 1.0
C      1  0.5143860000000  0.4767750000000  0.4017310000000 1.0
C      1  0.4860590000000  0.5266450000000  0.3928550000000 1.0
C      1  0.4487120000000  0.4865380000000  0.4439530000000 1.0
C      1  0.4661250000000  0.4463080000000  0.4842140000000 1.0
C      1  0.4852540000000  0.4531400000000  0.4494720000000 1.0
C      1  0.5590610000000  0.5116400000000  0.4581180000000 1.0
C      1  0.5553690000000  0.4887860000000  0.5388260000000 1.0
C      1  0.4479620000000  0.5170860000000  0.5571880000000 1.0
C      1  0.5576350000000  0.5537990000000  0.4832670000000 1.0
C      1  0.5548670000000  0.4490880000000  0.5100680000000 1.0
C      1  0.4410970000000  0.5589370000000  0.5027090000000 1.0
C      1  0.5176290000000  0.5365350000000  0.4439370000000 1.0
C      1  0.5105530000000  0.4385050000000  0.5491610000000 1.0
C      1  0.4865740000000  0.5620850000000  0.5508920000000 1.0
C      1  0.4461700000000  0.4862280000000  0.5569650000000 1.0
C      1  0.4489260000000  0.4458270000000  0.5089410000000 1.0
C      1  0.4865320000000  0.4527460000000  0.5434120000000 1.0
C      1  0.5437400000000  0.5151900000000  0.5352630000000 1.0
C      1  0.5619920000000  0.4827300000000  0.4590650000000 1.0
C      1  0.4427730000000  0.5140810000000  0.4477630000000 1.0
C      1  0.5533950000000  0.5596290000000  0.5117330000000 1.0
C      1  0.5475090000000  0.4374040000000  0.4845660000000 1.0
C      1  0.4670510000000  0.5535240000000  0.4902880000000 1.0
C      1  0.5140960000000  0.5552050000000  0.5540900000000 1.0
C      1  0.5140290000000  0.4442380000000  0.4497560000000 1.0
C      1  0.4876380000000  0.5351590000000  0.4450970000000 1.0
C      1  0.4254590000000  0.5206110000000  0.4872470000000 1.0
C      1  0.4872970000000  0.4218740000000  0.5136200000000 1.0
C      1  0.5236460000000  0.4905910000000  0.4262070000000 1.0
C      1  0.5769070000000  0.4811710000000  0.4836200000000 1.0
C      1  0.5748870000000  0.5182910000000  0.5047620000000 1.0
C      1  0.4276780000000  0.4756830000000  0.5134870000000 1.0
C      1  0.5118550000000  0.5762050000000  0.5199980000000 1.0
C      1  0.5201830000000  0.4297120000000  0.4773370000000 1.0
C      1  0.4811410000000  0.5749000000000  0.4809250000000 1.0
C      1  0.4813760000000  0.5198790000000  0.4211220000000 1.0
C      1  0.4745790000000  0.4863230000000  0.5707580000000 1.0
C      1  0.5220700000000  0.5164470000000  0.5762680000000 1.0
C      1  0.4280860000000  0.5264090000000  0.5137470000000 1.0
C      1  0.4856180000000  0.4245910000000  0.4857070000000 1.0
C      1  0.5213170000000  0.4897530000000  0.5756780000000 1.0
C      1  0.5720300000000  0.4763730000000  0.5124520000000 1.0
C      1  0.5770480000000  0.5246530000000  0.4772990000000 1.0
C      1  0.4271860000000  0.4774850000000  0.4846950000000 1.0
C      1  0.5089760000000  0.5736460000000  0.4785380000000 1.0
C      1  0.5156920000000  0.4282070000000  0.5224080000000 1.0
C      1  0.4837640000000  0.5740700000000  0.5245820000000 1.0
C      1  0.4778280000000  0.5187910000000  0.5670680000000 1.0
C      1  0.4773810000000  0.4913580000000  0.4268410000000 1.0
C      1  0.5209030000000  0.5177230000000  0.4233120000000 1.0
C      1  0.4317790000000  0.5692960000000  0.5676850000000 1.0
C      1  0.5662870000000  0.4366760000000  0.5683570000000 1.0
C      1  0.5638030000000  0.5655030000000  0.4313200000000 1.0
C      1  0.4320470000000  0.4311320000000  0.4350770000000 1.0
C      1  0.4376160000000  0.5669850000000  0.4335750000000 1.0
C      1  0.5690670000000  0.4330820000000  0.4319040000000 1.0
C      1  0.5689470000000  0.5630470000000  0.5680890000000 1.0
C      1  0.4352410000000  0.4308380000000  0.5646760000000 1.0
END
