TITL C-2441157-2117-512 0.0204862890146119 125000 -6810.18176977259 0 0 54 (C1) n - 1
REM
REM in /home/bkarasulu/work/CARBON/AIRSS/Generating-Clusters/ReaxFF-fromJPCA2015/Units_Real/with-SteepDescent/Higher-Symm
REM
REM
REM
REM
REM
REM ./C.cell (1df0a924f5614ab8850e4351716899ee)
REM
REM compiler GCC version 9.2.1 20190827 (Red Hat 9.2.1-1)
REM options -cpp -mtune=generic -march=x86-64 -g -O0 -fpre-include=/usr/include/finclude/math-vector-fortran.h
REM seed -653341612 1529587701 601324797 212465001 -1555163398 -305321298 134894297 435753604 -757507098 -1813955155 -1627094038 -1322090168 -1917610024 1509305173 1314021643 1485041586 1620608444 -1785605890 -1951377400 -1311108961 1716823721 -1964433545 1601534355 2096137495 -1442226447 -1579175144 1377070558 1320249205 609818023 -875648815 1680250023 -2093867523 -1675433494
REM
CELL 1.54180   50.00000   50.00000   50.00000   90.00000   90.00000   90.00000
LATT -1
SFAC C  
C      1  0.5279860000000  0.5108470000000  0.4808240000000 1.0
C      1  0.5023050000000  0.5104460000000  0.5321770000000 1.0
C      1  0.4710020000000  0.5095000000000  0.4837970000000 1.0
C      1  0.5444900000000  0.4652250000000  0.4684570000000 1.0
C      1  0.5048260000000  0.4641280000000  0.5511590000000 1.0
C      1  0.4515330000000  0.4644600000000  0.4764780000000 1.0
C      1  0.4704150000000  0.4446220000000  0.4866510000000 1.0
C      1  0.5277170000000  0.4446060000000  0.4802990000000 1.0
C      1  0.5067740000000  0.4426060000000  0.5307270000000 1.0
C      1  0.5138660000000  0.5164920000000  0.4541090000000 1.0
C      1  0.5320840000000  0.5162280000000  0.5323870000000 1.0
C      1  0.4550760000000  0.5165400000000  0.5090840000000 1.0
C      1  0.5213630000000  0.4963490000000  0.5709180000000 1.0
C      1  0.4266420000000  0.4977160000000  0.4817030000000 1.0
C      1  0.5524180000000  0.4974570000000  0.4439510000000 1.0
C      1  0.4421470000000  0.4814970000000  0.5286060000000 1.0
C      1  0.5030900000000  0.4809900000000  0.4346540000000 1.0
C      1  0.5537960000000  0.4802470000000  0.5326630000000 1.0
C      1  0.5483090000000  0.4642270000000  0.5092790000000 1.0
C      1  0.4656800000000  0.4660070000000  0.5360830000000 1.0
C      1  0.4854950000000  0.4642920000000  0.4514410000000 1.0
C      1  0.5276640000000  0.5434460000000  0.5414790000000 1.0
C      1  0.4503620000000  0.5437490000000  0.5000470000000 1.0
C      1  0.5231730000000  0.5441030000000  0.4545530000000 1.0
C      1  0.5498440000000  0.4874020000000  0.4889790000000 1.0
C      1  0.4854770000000  0.4859730000000  0.5467400000000 1.0
C      1  0.4665710000000  0.4869650000000  0.4621440000000 1.0
C      1  0.5340670000000  0.4790640000000  0.4423820000000 1.0
C      1  0.5328410000000  0.4780330000000  0.5559390000000 1.0
C      1  0.4335160000000  0.4789040000000  0.4983190000000 1.0
C      1  0.5048880000000  0.4610520000000  0.4739180000000 1.0
C      1  0.5206480000000  0.4624840000000  0.5153500000000 1.0
C      1  0.4758790000000  0.4621430000000  0.5086560000000 1.0
C      1  0.4558230000000  0.5644940000000  0.5224190000000 1.0
C      1  0.5011250000000  0.5650780000000  0.4495930000000 1.0
C      1  0.5428340000000  0.5646710000000  0.5254460000000 1.0
C      1  0.4836840000000  0.5601180000000  0.5297140000000 1.0
C      1  0.4811070000000  0.5603960000000  0.4704020000000 1.0
C      1  0.5333220000000  0.5618640000000  0.4976870000000 1.0
C      1  0.4635710000000  0.5377000000000  0.4744590000000 1.0
C      1  0.5381180000000  0.5393730000000  0.4792230000000 1.0
C      1  0.4985630000000  0.5386400000000  0.5427330000000 1.0
C      1  0.5538530000000  0.5037490000000  0.5171740000000 1.0
C      1  0.4561940000000  0.5048710000000  0.5352330000000 1.0
C      1  0.4895730000000  0.5041240000000  0.4435970000000 1.0
C      1  0.4972960000000  0.5633580000000  0.4994970000000 1.0
C      1  0.5005370000000  0.4058280000000  0.4996380000000 1.0
C      1  0.5065060000000  0.5910440000000  0.4979960000000 1.0
C      1  0.5001100000000  0.3815740000000  0.4984170000000 1.0
C      1  0.5009610000000  0.4319100000000  0.5009650000000 1.0
C      1  0.5014800000000  0.5100080000000  0.4987620000000 1.0
C      1  0.5013240000000  0.6143660000000  0.4987320000000 1.0
C      1  0.5008130000000  0.4714660000000  0.4995110000000 1.0
C      1  0.4994800000000  0.5359150000000  0.4991290000000 1.0
END
