TITL C-2441154-10-531 0.0100066916761066 125000 -11107.1897166149 0 0 77 (C1) n - 1
REM
REM in /home/bkarasulu/work/CARBON/AIRSS/Generating-Clusters/ReaxFF-fromJPCA2015/Units_Real/with-SteepDescent/Higher-Symm
REM
REM
REM
REM
REM
REM ./C.cell (1df0a924f5614ab8850e4351716899ee)
REM
REM compiler GCC version 9.2.1 20190827 (Red Hat 9.2.1-1)
REM options -cpp -mtune=generic -march=x86-64 -g -O0 -fpre-include=/usr/include/finclude/math-vector-fortran.h
REM seed 851507838 -1417622930 1113725542 646585712 106833154 1823507145 -176827532 535263981 624179664 -1033535088 -1035773461 -1172540352 474920958 1573762089 771068947 1285487022 -19854767 753091926 532558193 -1751952250 -530193264 -1848042785 1540145639 1217422842 1827797553 1893009468 -1592070354 454621495 361891416 -1488026744 616784560 -1255840616 592472030
REM
CELL 1.54180   50.00000   50.00000   50.00000   90.00000   90.00000   90.00000
LATT -1
SFAC C  
C      1  0.5003700000000  0.5864880000000  0.4708690000000 1.0
C      1  0.4763940000000  0.5845300000000  0.4870260000000 1.0
C      1  0.4828830000000  0.5887470000000  0.5148790000000 1.0
C      1  0.5120480000000  0.5870680000000  0.5162920000000 1.0
C      1  0.5227380000000  0.5869240000000  0.4896970000000 1.0
C      1  0.5017620000000  0.4168810000000  0.5256520000000 1.0
C      1  0.4754130000000  0.4205150000000  0.5128010000000 1.0
C      1  0.4810450000000  0.4210070000000  0.4838260000000 1.0
C      1  0.5101190000000  0.4214660000000  0.4787610000000 1.0
C      1  0.5224600000000  0.4168640000000  0.5050350000000 1.0
C      1  0.5393510000000  0.4896370000000  0.5229550000000 1.0
C      1  0.5254060000000  0.4821790000000  0.4977500000000 1.0
C      1  0.4919820000000  0.4991760000000  0.4651270000000 1.0
C      1  0.4791370000000  0.4825390000000  0.4863850000000 1.0
C      1  0.4791180000000  0.5052570000000  0.5322300000000 1.0
C      1  0.5147490000000  0.5057890000000  0.4817780000000 1.0
C      1  0.5290490000000  0.5114390000000  0.5366890000000 1.0
C      1  0.5022380000000  0.5219370000000  0.5320810000000 1.0
C      1  0.4704840000000  0.5064370000000  0.5048560000000 1.0
C      1  0.4803670000000  0.5211890000000  0.4496060000000 1.0
C      1  0.4544160000000  0.4374880000000  0.5257320000000 1.0
C      1  0.5106730000000  0.4320780000000  0.5505730000000 1.0
C      1  0.5688750000000  0.4412740000000  0.4997640000000 1.0
C      1  0.5211120000000  0.4381270000000  0.4561170000000 1.0
C      1  0.4608810000000  0.4337010000000  0.4655960000000 1.0
C      1  0.4616190000000  0.5605370000000  0.4794010000000 1.0
C      1  0.5224640000000  0.5556490000000  0.4413050000000 1.0
C      1  0.5481360000000  0.5692650000000  0.4910270000000 1.0
C      1  0.5176210000000  0.5597200000000  0.5596970000000 1.0
C      1  0.4633050000000  0.5786320000000  0.5328770000000 1.0
C      1  0.4973630000000  0.5674630000000  0.4484590000000 1.0
C      1  0.4466770000000  0.5469190000000  0.4990700000000 1.0
C      1  0.4667720000000  0.5558200000000  0.5479630000000 1.0
C      1  0.5303070000000  0.5690120000000  0.5325720000000 1.0
C      1  0.5580390000000  0.5457800000000  0.4754710000000 1.0
C      1  0.4907050000000  0.4524420000000  0.5620870000000 1.0
C      1  0.4335560000000  0.4533500000000  0.5079340000000 1.0
C      1  0.4710660000000  0.4505260000000  0.4415120000000 1.0
C      1  0.5475300000000  0.4542840000000  0.4555450000000 1.0
C      1  0.5489650000000  0.4277100000000  0.5163570000000 1.0
C      1  0.4291700000000  0.4985000000000  0.4645760000000 1.0
C      1  0.4418390000000  0.4948060000000  0.5590380000000 1.0
C      1  0.5437530000000  0.4994170000000  0.5791290000000 1.0
C      1  0.5880670000000  0.4991550000000  0.4828880000000 1.0
C      1  0.5103680000000  0.5020870000000  0.4197980000000 1.0
C      1  0.4286920000000  0.4876940000000  0.5390960000000 1.0
C      1  0.4361410000000  0.4936630000000  0.4379870000000 1.0
C      1  0.5319700000000  0.4917890000000  0.4274500000000 1.0
C      1  0.5819130000000  0.4928640000000  0.5085350000000 1.0
C      1  0.5173900000000  0.4900390000000  0.5805410000000 1.0
C      1  0.4459550000000  0.5191580000000  0.4959370000000 1.0
C      1  0.4659980000000  0.5066000000000  0.5574820000000 1.0
C      1  0.5461070000000  0.5174360000000  0.5579110000000 1.0
C      1  0.5630290000000  0.5162460000000  0.4798550000000 1.0
C      1  0.4845190000000  0.5135060000000  0.4211490000000 1.0
C      1  0.4209720000000  0.4798810000000  0.5131690000000 1.0
C      1  0.4547960000000  0.4718970000000  0.4280200000000 1.0
C      1  0.5532060000000  0.4805740000000  0.4424510000000 1.0
C      1  0.5675750000000  0.4867610000000  0.5321460000000 1.0
C      1  0.4946040000000  0.4773430000000  0.5800340000000 1.0
C      1  0.4759340000000  0.5491570000000  0.4567580000000 1.0
C      1  0.4479360000000  0.5562870000000  0.5255660000000 1.0
C      1  0.4938320000000  0.5451300000000  0.5519560000000 1.0
C      1  0.5469270000000  0.5569660000000  0.5141710000000 1.0
C      1  0.5415150000000  0.5489510000000  0.4524390000000 1.0
C      1  0.4705950000000  0.4475500000000  0.5456290000000 1.0
C      1  0.4447480000000  0.4451160000000  0.4850830000000 1.0
C      1  0.4972190000000  0.4462460000000  0.4462750000000 1.0
C      1  0.5612460000000  0.4489470000000  0.4777440000000 1.0
C      1  0.5362180000000  0.4350990000000  0.5397990000000 1.0
C      1  0.4227780000000  0.5012170000000  0.4916110000000 1.0
C      1  0.4767070000000  0.4954010000000  0.5770950000000 1.0
C      1  0.5700280000000  0.4993110000000  0.4576610000000 1.0
C      1  0.5658540000000  0.4987570000000  0.5591350000000 1.0
C      1  0.4598150000000  0.4977720000000  0.4182530000000 1.0
C      1  0.5008750000000  0.4687450000000  0.4976850000000 1.0
C      1  0.4987690000000  0.5266530000000  0.4987240000000 1.0
END
