TITL C-2441163-1170-622 0.0234193905307712 125000 -13133.2547167959 0 0 93 (C1) n - 1
REM
REM in /home/bkarasulu/work/CARBON/AIRSS/Generating-Clusters/ReaxFF-fromJPCA2015/Units_Real/with-SteepDescent/Higher-Symm
REM
REM
REM
REM
REM
REM ./C.cell (1df0a924f5614ab8850e4351716899ee)
REM
REM compiler GCC version 9.2.1 20190827 (Red Hat 9.2.1-1)
REM options -cpp -mtune=generic -march=x86-64 -g -O0 -fpre-include=/usr/include/finclude/math-vector-fortran.h
REM seed -806234523 -1593333592 -1873520398 -131279532 -310144227 1999787023 -2050728015 -414347559 1259423980 385484447 823073070 -1639186920 1846311186 -1920426891 1657223609 1599296385 -1641547849 1765696940 -1249929040 -2125164195 -1565409853 -1521664326 -1760933135 1168081335 674673043 -1502998583 1970176068 -1377591563 1053150508 -81938349 -548490596 -1050073722 1696585414
REM
CELL 1.54180   50.00000   50.00000   50.00000   90.00000   90.00000   90.00000
LATT -1
SFAC C  
C      1  0.4980940000000  0.5030800000000  0.5331270000000 1.0
C      1  0.4652840000000  0.5083570000000  0.4800950000000 1.0
C      1  0.5403950000000  0.4948760000000  0.4748940000000 1.0
C      1  0.4982460000000  0.5191920000000  0.5727890000000 1.0
C      1  0.4425800000000  0.5177050000000  0.4642370000000 1.0
C      1  0.5548280000000  0.5211820000000  0.4781540000000 1.0
C      1  0.5290270000000  0.5805520000000  0.4788820000000 1.0
C      1  0.4908770000000  0.5828080000000  0.5501960000000 1.0
C      1  0.4658520000000  0.5859450000000  0.4751680000000 1.0
C      1  0.4336830000000  0.4858290000000  0.4362950000000 1.0
C      1  0.5892040000000  0.4855540000000  0.4745770000000 1.0
C      1  0.4777480000000  0.4991040000000  0.5833100000000 1.0
C      1  0.4226300000000  0.4683840000000  0.4569020000000 1.0
C      1  0.5621640000000  0.4755910000000  0.4576160000000 1.0
C      1  0.5056260000000  0.4700840000000  0.5908000000000 1.0
C      1  0.5070710000000  0.4313610000000  0.4601670000000 1.0
C      1  0.5196680000000  0.4371570000000  0.5246850000000 1.0
C      1  0.4675720000000  0.4430590000000  0.5140700000000 1.0
C      1  0.4325070000000  0.5071700000000  0.5136450000000 1.0
C      1  0.5222120000000  0.5074310000000  0.4339960000000 1.0
C      1  0.5442850000000  0.5086170000000  0.5482650000000 1.0
C      1  0.4710390000000  0.5859450000000  0.5047320000000 1.0
C      1  0.4906990000000  0.5824130000000  0.4629090000000 1.0
C      1  0.5218250000000  0.5843890000000  0.5088740000000 1.0
C      1  0.5462940000000  0.4541410000000  0.4524120000000 1.0
C      1  0.5193750000000  0.4631550000000  0.5728900000000 1.0
C      1  0.4289010000000  0.4634080000000  0.4851430000000 1.0
C      1  0.4396880000000  0.4573620000000  0.4356450000000 1.0
C      1  0.5808860000000  0.4586120000000  0.4722360000000 1.0
C      1  0.4792420000000  0.4690540000000  0.5826060000000 1.0
C      1  0.4903650000000  0.4396640000000  0.4383560000000 1.0
C      1  0.5553610000000  0.4418990000000  0.5191750000000 1.0
C      1  0.4522910000000  0.4461870000000  0.5395340000000 1.0
C      1  0.4453420000000  0.5458780000000  0.5250360000000 1.0
C      1  0.5080390000000  0.5524060000000  0.4395460000000 1.0
C      1  0.5534370000000  0.5553020000000  0.5413850000000 1.0
C      1  0.5666780000000  0.4389230000000  0.4927600000000 1.0
C      1  0.4718220000000  0.4456050000000  0.5618530000000 1.0
C      1  0.4618110000000  0.4393610000000  0.4420840000000 1.0
C      1  0.5572780000000  0.4604280000000  0.5408920000000 1.0
C      1  0.4238560000000  0.4788300000000  0.5093870000000 1.0
C      1  0.5112100000000  0.4598950000000  0.4313050000000 1.0
C      1  0.5226890000000  0.4537770000000  0.4560850000000 1.0
C      1  0.5289490000000  0.4554330000000  0.5485190000000 1.0
C      1  0.4518250000000  0.4453940000000  0.4893240000000 1.0
C      1  0.5037330000000  0.4125570000000  0.5298080000000 1.0
C      1  0.4782970000000  0.4109110000000  0.4839990000000 1.0
C      1  0.5196730000000  0.4116380000000  0.4789040000000 1.0
C      1  0.4565560000000  0.4878580000000  0.5455580000000 1.0
C      1  0.4788950000000  0.4910790000000  0.4435360000000 1.0
C      1  0.5624560000000  0.4905390000000  0.5109920000000 1.0
C      1  0.4867940000000  0.4254270000000  0.5491780000000 1.0
C      1  0.4596150000000  0.4256190000000  0.4684230000000 1.0
C      1  0.5448320000000  0.4248900000000  0.4821470000000 1.0
C      1  0.5409810000000  0.5345420000000  0.5022600000000 1.0
C      1  0.4902550000000  0.5274560000000  0.5453190000000 1.0
C      1  0.4829260000000  0.5291410000000  0.4713740000000 1.0
C      1  0.4613850000000  0.5376490000000  0.5512300000000 1.0
C      1  0.4809420000000  0.5385030000000  0.4433500000000 1.0
C      1  0.5658540000000  0.5460260000000  0.5145070000000 1.0
C      1  0.5431800000000  0.5346630000000  0.5607580000000 1.0
C      1  0.4271860000000  0.5352870000000  0.5051060000000 1.0
C      1  0.5314810000000  0.5355330000000  0.4364620000000 1.0
C      1  0.5788800000000  0.5051810000000  0.4918660000000 1.0
C      1  0.4571890000000  0.5089770000000  0.5651070000000 1.0
C      1  0.4539040000000  0.5069970000000  0.4395930000000 1.0
C      1  0.4597040000000  0.5576470000000  0.4448590000000 1.0
C      1  0.5705210000000  0.5593670000000  0.4894440000000 1.0
C      1  0.4748530000000  0.5631600000000  0.5637980000000 1.0
C      1  0.5339040000000  0.4868740000000  0.5025190000000 1.0
C      1  0.4789240000000  0.4896830000000  0.5209840000000 1.0
C      1  0.4921430000000  0.4865620000000  0.4700270000000 1.0
C      1  0.4676010000000  0.5572770000000  0.5099800000000 1.0
C      1  0.5106090000000  0.5695330000000  0.4621720000000 1.0
C      1  0.5358430000000  0.5714950000000  0.5280630000000 1.0
C      1  0.4322090000000  0.5416520000000  0.4763680000000 1.0
C      1  0.5526510000000  0.5421100000000  0.4554230000000 1.0
C      1  0.5183620000000  0.5404600000000  0.5759080000000 1.0
C      1  0.5024680000000  0.5651990000000  0.5720060000000 1.0
C      1  0.4434630000000  0.5673360000000  0.4648280000000 1.0
C      1  0.5546160000000  0.5687720000000  0.4679440000000 1.0
C      1  0.4611890000000  0.5055410000000  0.5072400000000 1.0
C      1  0.5168980000000  0.4994870000000  0.4613000000000 1.0
C      1  0.5237010000000  0.5051110000000  0.5249410000000 1.0
C      1  0.5013340000000  0.4886280000000  0.4253630000000 1.0
C      1  0.5645060000000  0.4895490000000  0.5401540000000 1.0
C      1  0.4351560000000  0.4707700000000  0.5354660000000 1.0
C      1  0.4902010000000  0.5410520000000  0.4966480000000 1.0
C      1  0.4965770000000  0.4495200000000  0.5090520000000 1.0
C      1  0.4950260000000  0.5897050000000  0.5213450000000 1.0
C      1  0.5002590000000  0.4758400000000  0.4981840000000 1.0
C      1  0.5139340000000  0.5340110000000  0.5121860000000 1.0
C      1  0.4992530000000  0.4034390000000  0.5006390000000 1.0
END
