TITL C-2441157-2117-1053 0.0240179535990348 125000 -7399.61224886037 0 0 56 (C1) n - 1
REM
REM in /home/bkarasulu/work/CARBON/AIRSS/Generating-Clusters/ReaxFF-fromJPCA2015/Units_Real/with-SteepDescent/Higher-Symm
REM
REM
REM
REM
REM
REM ./C.cell (1df0a924f5614ab8850e4351716899ee)
REM
REM compiler GCC version 9.2.1 20190827 (Red Hat 9.2.1-1)
REM options -cpp -mtune=generic -march=x86-64 -g -O0 -fpre-include=/usr/include/finclude/math-vector-fortran.h
REM seed 1529445762 885402244 637358968 -339721644 2042368299 776705193 131387263 284901015 745902551 -724516139 1034021492 2061671933 1986538703 -1101253600 702807824 416435036 44930303 -1171414937 2143503212 841941206 -754806377 -904832434 -1645606798 962461530 271148170 1151527544 1642384153 -1527619325 -16231088 1525793360 483185919 -985707474 1132184614
REM
CELL 1.54180   50.00000   50.00000   50.00000   90.00000   90.00000   90.00000
LATT -1
SFAC C  
C      1  0.4578760000000  0.5621690000000  0.5051720000000 1.0
C      1  0.5461420000000  0.5546770000000  0.5066860000000 1.0
C      1  0.5658450000000  0.4712090000000  0.5052020000000 1.0
C      1  0.4943500000000  0.4275880000000  0.5061220000000 1.0
C      1  0.4299260000000  0.4837720000000  0.5062910000000 1.0
C      1  0.5132680000000  0.4863340000000  0.5658080000000 1.0
C      1  0.4912890000000  0.4735880000000  0.5518090000000 1.0
C      1  0.4648150000000  0.5057050000000  0.5661720000000 1.0
C      1  0.4866510000000  0.5260400000000  0.5549830000000 1.0
C      1  0.5270800000000  0.5116020000000  0.5595080000000 1.0
C      1  0.5131560000000  0.4376310000000  0.4573120000000 1.0
C      1  0.4483070000000  0.4709130000000  0.4580120000000 1.0
C      1  0.4679710000000  0.5380750000000  0.4618850000000 1.0
C      1  0.5190610000000  0.5536940000000  0.4617400000000 1.0
C      1  0.5613090000000  0.4937710000000  0.4573680000000 1.0
C      1  0.4506610000000  0.4816300000000  0.5536560000000 1.0
C      1  0.4631740000000  0.5448810000000  0.5500560000000 1.0
C      1  0.5298100000000  0.5408430000000  0.5526900000000 1.0
C      1  0.5528840000000  0.4798170000000  0.5502680000000 1.0
C      1  0.5070030000000  0.4489140000000  0.5498210000000 1.0
C      1  0.5466860000000  0.5185550000000  0.4652410000000 1.0
C      1  0.5314100000000  0.4601110000000  0.4644640000000 1.0
C      1  0.4724190000000  0.4560610000000  0.4649550000000 1.0
C      1  0.4517420000000  0.5139420000000  0.4672850000000 1.0
C      1  0.4964520000000  0.5446200000000  0.4792910000000 1.0
C      1  0.5529880000000  0.4554420000000  0.4838780000000 1.0
C      1  0.4745810000000  0.4347270000000  0.4850430000000 1.0
C      1  0.4313610000000  0.5052470000000  0.4858390000000 1.0
C      1  0.4826400000000  0.5681110000000  0.4903780000000 1.0
C      1  0.5572640000000  0.5378590000000  0.4847470000000 1.0
C      1  0.5080350000000  0.4484840000000  0.5202040000000 1.0
C      1  0.4526680000000  0.4774500000000  0.5231480000000 1.0
C      1  0.4600440000000  0.5376800000000  0.5206500000000 1.0
C      1  0.5245460000000  0.5452210000000  0.5231870000000 1.0
C      1  0.5496370000000  0.4894070000000  0.5211970000000 1.0
C      1  0.5731800000000  0.4752590000000  0.4773220000000 1.0
C      1  0.4991730000000  0.4213320000000  0.4779190000000 1.0
C      1  0.4275030000000  0.4776640000000  0.4776940000000 1.0
C      1  0.4582500000000  0.5630010000000  0.4757680000000 1.0
C      1  0.5424710000000  0.5618210000000  0.4784740000000 1.0
C      1  0.5028340000000  0.5482700000000  0.5577820000000 1.0
C      1  0.5542880000000  0.5072810000000  0.5573060000000 1.0
C      1  0.5296250000000  0.4641390000000  0.5608540000000 1.0
C      1  0.4677420000000  0.4590610000000  0.5567270000000 1.0
C      1  0.4455050000000  0.5230850000000  0.5570120000000 1.0
C      1  0.5091500000000  0.5242150000000  0.5068060000000 1.0
C      1  0.5231220000000  0.4969700000000  0.5096920000000 1.0
C      1  0.5040830000000  0.4759490000000  0.5090540000000 1.0
C      1  0.4773040000000  0.4891000000000  0.5109600000000 1.0
C      1  0.4802060000000  0.5175130000000  0.5117510000000 1.0
C      1  0.5281970000000  0.5311450000000  0.4444770000000 1.0
C      1  0.5393330000000  0.4799270000000  0.4426060000000 1.0
C      1  0.4933810000000  0.4542050000000  0.4424540000000 1.0
C      1  0.4599030000000  0.4956270000000  0.4473940000000 1.0
C      1  0.4783290000000  0.5313290000000  0.4321810000000 1.0
C      1  0.4859400000000  0.5033850000000  0.4312890000000 1.0
END
