TITL C-2441154-10-434 0.1279573850613 125000 -19651.9074835938 0 0 159 (C1) n - 1
REM
REM in /home/bkarasulu/work/CARBON/AIRSS/Generating-Clusters/ReaxFF-fromJPCA2015/Units_Real/with-SteepDescent/Higher-Symm
REM
REM
REM
REM
REM
REM ./C.cell (1df0a924f5614ab8850e4351716899ee)
REM
REM compiler GCC version 9.2.1 20190827 (Red Hat 9.2.1-1)
REM options -cpp -mtune=generic -march=x86-64 -g -O0 -fpre-include=/usr/include/finclude/math-vector-fortran.h
REM seed 22031007 -619584300 1816507136 -1940183190 338145843 -96345576 954998728 1935466343 428926756 -2128208240 -335275684 581587871 265417135 -555564711 -960962926 1771004856 -415463509 -174609700 -798259425 1218296427 -951979731 -2046209699 -603972958 379865205 -217421085 1982696862 -788074540 -449872027 -808085320 -1754743780 -362692756 -757037623 -690624994
REM
CELL 1.54180   50.00000   50.00000   50.00000   90.00000   90.00000   90.00000
LATT -1
SFAC C  
C      1  0.4881930000000  0.4675160000000  0.4365970000000 1.0
C      1  0.4861270000000  0.4319110000000  0.5107820000000 1.0
C      1  0.4844010000000  0.4942340000000  0.5730260000000 1.0
C      1  0.4858610000000  0.5656490000000  0.5320850000000 1.0
C      1  0.4879310000000  0.5547070000000  0.4429730000000 1.0
C      1  0.5109920000000  0.4580850000000  0.5723570000000 1.0
C      1  0.5067510000000  0.4278030000000  0.4918190000000 1.0
C      1  0.5075830000000  0.4858340000000  0.4306720000000 1.0
C      1  0.5145690000000  0.5657100000000  0.4686400000000 1.0
C      1  0.5155370000000  0.5523180000000  0.5560520000000 1.0
C      1  0.5044540000000  0.3943850000000  0.5146790000000 1.0
C      1  0.5065560000000  0.4805310000000  0.6085910000000 1.0
C      1  0.5060360000000  0.5964720000000  0.5518600000000 1.0
C      1  0.5048680000000  0.5777030000000  0.4304410000000 1.0
C      1  0.5030990000000  0.4524160000000  0.4059040000000 1.0
C      1  0.4967120000000  0.3939410000000  0.4864430000000 1.0
C      1  0.5004570000000  0.4830370000000  0.3965980000000 1.0
C      1  0.4973880000000  0.5958670000000  0.4522160000000 1.0
C      1  0.4956740000000  0.5782850000000  0.5717730000000 1.0
C      1  0.4940230000000  0.4571720000000  0.5971260000000 1.0
C      1  0.4936190000000  0.5077580000000  0.4434070000000 1.0
C      1  0.5004200000000  0.4489220000000  0.4761330000000 1.0
C      1  0.4915850000000  0.4610340000000  0.5499720000000 1.0
C      1  0.4965280000000  0.5317990000000  0.5585770000000 1.0
C      1  0.4939280000000  0.5593310000000  0.4873250000000 1.0
C      1  0.5006440000000  0.5046720000000  0.5511400000000 1.0
C      1  0.5019560000000  0.4486930000000  0.5278720000000 1.0
C      1  0.4944060000000  0.4684650000000  0.4627050000000 1.0
C      1  0.5085310000000  0.5314760000000  0.4464120000000 1.0
C      1  0.5058420000000  0.5596830000000  0.5135360000000 1.0
C      1  0.4850070000000  0.5207130000000  0.4843830000000 1.0
C      1  0.4808420000000  0.4918280000000  0.4775020000000 1.0
C      1  0.4868900000000  0.4784710000000  0.5040800000000 1.0
C      1  0.4817000000000  0.4973750000000  0.5259530000000 1.0
C      1  0.4867410000000  0.5207310000000  0.5125590000000 1.0
C      1  0.5156090000000  0.5229870000000  0.5131830000000 1.0
C      1  0.5235260000000  0.4960580000000  0.5226870000000 1.0
C      1  0.5165390000000  0.4787260000000  0.4994720000000 1.0
C      1  0.5240560000000  0.4962450000000  0.4764410000000 1.0
C      1  0.5148290000000  0.5216950000000  0.4840360000000 1.0
C      1  0.5796990000000  0.4861240000000  0.5665430000000 1.0
C      1  0.5789080000000  0.5599220000000  0.5342900000000 1.0
C      1  0.5799100000000  0.5519320000000  0.4512970000000 1.0
C      1  0.5781200000000  0.4727230000000  0.4369910000000 1.0
C      1  0.5775890000000  0.4352590000000  0.5064930000000 1.0
C      1  0.4214430000000  0.4876650000000  0.4305010000000 1.0
C      1  0.4213090000000  0.5608480000000  0.4653050000000 1.0
C      1  0.4226870000000  0.5503730000000  0.5445430000000 1.0
C      1  0.4223830000000  0.4731040000000  0.5635030000000 1.0
C      1  0.4218700000000  0.4318020000000  0.4940260000000 1.0
C      1  0.5843810000000  0.5078430000000  0.5451020000000 1.0
C      1  0.5816320000000  0.5537510000000  0.5047250000000 1.0
C      1  0.5844720000000  0.5215400000000  0.4476170000000 1.0
C      1  0.5826430000000  0.4625950000000  0.4647710000000 1.0
C      1  0.5840840000000  0.4607510000000  0.5231630000000 1.0
C      1  0.4185850000000  0.5128430000000  0.4458230000000 1.0
C      1  0.4159750000000  0.5538050000000  0.4934090000000 1.0
C      1  0.4179600000000  0.5211140000000  0.5439010000000 1.0
C      1  0.4163550000000  0.4641950000000  0.5359050000000 1.0
C      1  0.4186090000000  0.4619580000000  0.4797010000000 1.0
C      1  0.5432650000000  0.5533210000000  0.4912310000000 1.0
C      1  0.5410620000000  0.5032000000000  0.4531550000000 1.0
C      1  0.5413760000000  0.4535810000000  0.4764680000000 1.0
C      1  0.5419710000000  0.4606220000000  0.5405040000000 1.0
C      1  0.5496960000000  0.5287710000000  0.5515900000000 1.0
C      1  0.4570210000000  0.5494430000000  0.5081690000000 1.0
C      1  0.4585130000000  0.5191840000000  0.5470290000000 1.0
C      1  0.4514790000000  0.4470070000000  0.5261580000000 1.0
C      1  0.4479020000000  0.4574290000000  0.4532650000000 1.0
C      1  0.4581040000000  0.5265590000000  0.4496940000000 1.0
C      1  0.4486940000000  0.5155910000000  0.5737030000000 1.0
C      1  0.4507760000000  0.5773730000000  0.5122170000000 1.0
C      1  0.4488860000000  0.5386680000000  0.4245060000000 1.0
C      1  0.4610980000000  0.4323020000000  0.4365870000000 1.0
C      1  0.4571580000000  0.4223510000000  0.5426510000000 1.0
C      1  0.5458710000000  0.5122210000000  0.4143570000000 1.0
C      1  0.5441660000000  0.5828710000000  0.4878350000000 1.0
C      1  0.5460850000000  0.5363750000000  0.5799120000000 1.0
C      1  0.5560480000000  0.4400210000000  0.5569820000000 1.0
C      1  0.5518070000000  0.4306450000000  0.4610140000000 1.0
C      1  0.5587720000000  0.5000760000000  0.5333400000000 1.0
C      1  0.5588050000000  0.5352140000000  0.5075460000000 1.0
C      1  0.5641460000000  0.5139520000000  0.4664810000000 1.0
C      1  0.5618010000000  0.4742130000000  0.4814690000000 1.0
C      1  0.5566160000000  0.4742350000000  0.5206960000000 1.0
C      1  0.4432320000000  0.5043360000000  0.4610790000000 1.0
C      1  0.4359760000000  0.5332070000000  0.4978790000000 1.0
C      1  0.4397050000000  0.5065300000000  0.5300570000000 1.0
C      1  0.4386300000000  0.4786550000000  0.5243130000000 1.0
C      1  0.4479130000000  0.4606770000000  0.4818490000000 1.0
C      1  0.4458100000000  0.5646900000000  0.5549400000000 1.0
C      1  0.4470500000000  0.5744130000000  0.4566250000000 1.0
C      1  0.4476180000000  0.4829800000000  0.4144460000000 1.0
C      1  0.4457060000000  0.4153590000000  0.4902690000000 1.0
C      1  0.4468820000000  0.4646720000000  0.5768060000000 1.0
C      1  0.5535430000000  0.5639670000000  0.4446930000000 1.0
C      1  0.5538750000000  0.5740190000000  0.5421530000000 1.0
C      1  0.5541960000000  0.4813680000000  0.5819370000000 1.0
C      1  0.5533080000000  0.4183420000000  0.5076520000000 1.0
C      1  0.5529400000000  0.4658650000000  0.4214160000000 1.0
C      1  0.5314600000000  0.5657160000000  0.4248970000000 1.0
C      1  0.5314890000000  0.4460750000000  0.4150510000000 1.0
C      1  0.5300550000000  0.4053030000000  0.5237010000000 1.0
C      1  0.5337850000000  0.4904990000000  0.6019940000000 1.0
C      1  0.5326880000000  0.5941590000000  0.5393180000000 1.0
C      1  0.4688530000000  0.5663920000000  0.5737900000000 1.0
C      1  0.4674150000000  0.4470090000000  0.5890110000000 1.0
C      1  0.4685460000000  0.4032930000000  0.4766300000000 1.0
C      1  0.4709310000000  0.4923830000000  0.3994350000000 1.0
C      1  0.4694840000000  0.5936090000000  0.4621990000000 1.0
C      1  0.5777570000000  0.4350010000000  0.4768170000000 1.0
C      1  0.5802650000000  0.4604690000000  0.5538800000000 1.0
C      1  0.5770560000000  0.5363370000000  0.5523990000000 1.0
C      1  0.5791360000000  0.5635730000000  0.4772930000000 1.0
C      1  0.5747250000000  0.5009600000000  0.4293320000000 1.0
C      1  0.4225900000000  0.4380910000000  0.5227890000000 1.0
C      1  0.4198600000000  0.4664410000000  0.4501140000000 1.0
C      1  0.4223050000000  0.5419650000000  0.4425090000000 1.0
C      1  0.4233580000000  0.5679620000000  0.5191880000000 1.0
C      1  0.4235930000000  0.5030850000000  0.5671260000000 1.0
C      1  0.4798800000000  0.5140670000000  0.4170160000000 1.0
C      1  0.4780790000000  0.4164120000000  0.4532370000000 1.0
C      1  0.4720980000000  0.4276930000000  0.5668060000000 1.0
C      1  0.4767110000000  0.5373850000000  0.5794100000000 1.0
C      1  0.4750300000000  0.5861990000000  0.4905240000000 1.0
C      1  0.5273870000000  0.5178190000000  0.5955400000000 1.0
C      1  0.5193410000000  0.4249140000000  0.5430700000000 1.0
C      1  0.5328580000000  0.4292170000000  0.4377080000000 1.0
C      1  0.5233300000000  0.5379160000000  0.4178100000000 1.0
C      1  0.5233930000000  0.5894260000000  0.5112080000000 1.0
C      1  0.4879880000000  0.5023590000000  0.6010300000000 1.0
C      1  0.4835360000000  0.5952450000000  0.5307550000000 1.0
C      1  0.4734150000000  0.5537830000000  0.4152020000000 1.0
C      1  0.4777510000000  0.4374530000000  0.4138970000000 1.0
C      1  0.4804940000000  0.4041790000000  0.5317180000000 1.0
C      1  0.5264620000000  0.4992630000000  0.3982890000000 1.0
C      1  0.5233380000000  0.5936200000000  0.4692160000000 1.0
C      1  0.5260360000000  0.5566800000000  0.5834170000000 1.0
C      1  0.5358210000000  0.4328920000000  0.5768450000000 1.0
C      1  0.5215310000000  0.3976290000000  0.4653180000000 1.0
C      1  0.5348960000000  0.4810910000000  0.4373610000000 1.0
C      1  0.5338140000000  0.4357790000000  0.4966460000000 1.0
C      1  0.5333850000000  0.4753610000000  0.5628900000000 1.0
C      1  0.5388840000000  0.5494470000000  0.5382180000000 1.0
C      1  0.5363720000000  0.5492080000000  0.4644710000000 1.0
C      1  0.4684650000000  0.4753160000000  0.5596880000000 1.0
C      1  0.4611600000000  0.4411510000000  0.4994090000000 1.0
C      1  0.4617620000000  0.4775340000000  0.4389300000000 1.0
C      1  0.4641960000000  0.5513120000000  0.4592090000000 1.0
C      1  0.4641400000000  0.5480510000000  0.5361680000000 1.0
C      1  0.4950380000000  0.5368530000000  0.4055730000000 1.0
C      1  0.4996760000000  0.5286920000000  0.5990900000000 1.0
C      1  0.5081280000000  0.4127790000000  0.4455270000000 1.0
C      1  0.4951790000000  0.4126980000000  0.5562870000000 1.0
C      1  0.4961100000000  0.6015330000000  0.5056030000000 1.0
C      1  0.4119470000000  0.4897460000000  0.4977760000000 1.0
C      1  0.5907290000000  0.4930200000000  0.5097540000000 1.0
C      1  0.4356880000000  0.5054650000000  0.4898120000000 1.0
C      1  0.5671230000000  0.5036430000000  0.4935220000000 1.0
END
