TITL C-2441163-1170-1428 0.0376171994680887 125000 -11034.126331324 0 0 85 (C1) n - 1
REM
REM in /home/bkarasulu/work/CARBON/AIRSS/Generating-Clusters/ReaxFF-fromJPCA2015/Units_Real/with-SteepDescent/Higher-Symm
REM
REM
REM
REM
REM
REM ./C.cell (1df0a924f5614ab8850e4351716899ee)
REM
REM compiler GCC version 9.2.1 20190827 (Red Hat 9.2.1-1)
REM options -cpp -mtune=generic -march=x86-64 -g -O0 -fpre-include=/usr/include/finclude/math-vector-fortran.h
REM seed 2100579739 305565955 738197127 -1222414381 1552636050 -11130749 -1127409816 -100866933 -2126006276 -29464403 1273357080 1410054661 1787999252 -900950780 706896637 212287316 -2114821771 622158028 2131071750 -1259720292 1472265907 -107615512 -161020748 1104525112 -1761030303 -1858489466 -649008075 1189499743 -795294388 -27914054 902701471 -1521798675 222797008
REM
CELL 1.54180   50.00000   50.00000   50.00000   90.00000   90.00000   90.00000
LATT -1
SFAC C  
C      1  0.4425010000000  0.4569510000000  0.4590490000000 1.0
C      1  0.5660180000000  0.4553550000000  0.4720470000000 1.0
C      1  0.4895260000000  0.4572540000000  0.5696700000000 1.0
C      1  0.5757850000000  0.5088250000000  0.4913150000000 1.0
C      1  0.4706530000000  0.5102890000000  0.5673710000000 1.0
C      1  0.4542850000000  0.5115390000000  0.4407300000000 1.0
C      1  0.4203000000000  0.5349380000000  0.4941560000000 1.0
C      1  0.5425980000000  0.5365530000000  0.4358760000000 1.0
C      1  0.5320060000000  0.5391460000000  0.5701070000000 1.0
C      1  0.4683960000000  0.4990500000000  0.5111990000000 1.0
C      1  0.5006150000000  0.5097580000000  0.4817800000000 1.0
C      1  0.5210020000000  0.5005450000000  0.5231530000000 1.0
C      1  0.4835920000000  0.5505620000000  0.4718450000000 1.0
C      1  0.5290220000000  0.5489090000000  0.5017470000000 1.0
C      1  0.4853310000000  0.5411310000000  0.5209830000000 1.0
C      1  0.4278480000000  0.4933000000000  0.5081930000000 1.0
C      1  0.5265120000000  0.4976480000000  0.4350830000000 1.0
C      1  0.5448550000000  0.4975290000000  0.5551070000000 1.0
C      1  0.4114520000000  0.5129950000000  0.5096610000000 1.0
C      1  0.5401280000000  0.5145200000000  0.4189870000000 1.0
C      1  0.5463170000000  0.5157470000000  0.5715190000000 1.0
C      1  0.5049640000000  0.5522720000000  0.5656360000000 1.0
C      1  0.4365380000000  0.5489740000000  0.4732470000000 1.0
C      1  0.5543160000000  0.5491020000000  0.4601250000000 1.0
C      1  0.5116200000000  0.4192140000000  0.5108810000000 1.0
C      1  0.4827460000000  0.4194300000000  0.5055120000000 1.0
C      1  0.5025960000000  0.4194370000000  0.4835370000000 1.0
C      1  0.4477110000000  0.5400910000000  0.4470040000000 1.0
C      1  0.5722480000000  0.5371300000000  0.4814870000000 1.0
C      1  0.4787740000000  0.5388380000000  0.5699770000000 1.0
C      1  0.4411770000000  0.5411750000000  0.5129490000000 1.0
C      1  0.5161950000000  0.5418720000000  0.4458700000000 1.0
C      1  0.5370030000000  0.5449080000000  0.5419840000000 1.0
C      1  0.4557250000000  0.4352200000000  0.4714950000000 1.0
C      1  0.5482580000000  0.4335290000000  0.4754480000000 1.0
C      1  0.4946730000000  0.4346780000000  0.5542050000000 1.0
C      1  0.5325740000000  0.4717840000000  0.4370270000000 1.0
C      1  0.5359530000000  0.4725290000000  0.5589780000000 1.0
C      1  0.4304150000000  0.4692800000000  0.4958950000000 1.0
C      1  0.4766440000000  0.4673570000000  0.4863130000000 1.0
C      1  0.5232040000000  0.4665540000000  0.4819300000000 1.0
C      1  0.5041370000000  0.4651110000000  0.5277980000000 1.0
C      1  0.5621180000000  0.4651820000000  0.5198360000000 1.0
C      1  0.4490430000000  0.4670060000000  0.5419690000000 1.0
C      1  0.4854100000000  0.4687980000000  0.4367150000000 1.0
C      1  0.4464840000000  0.5308920000000  0.5391540000000 1.0
C      1  0.4925510000000  0.5276320000000  0.4336550000000 1.0
C      1  0.5617100000000  0.5330800000000  0.5310290000000 1.0
C      1  0.5700850000000  0.4948080000000  0.5166300000000 1.0
C      1  0.4468790000000  0.4989010000000  0.5515260000000 1.0
C      1  0.4797910000000  0.5006620000000  0.4309600000000 1.0
C      1  0.5152640000000  0.5012450000000  0.4141740000000 1.0
C      1  0.5689440000000  0.5075120000000  0.5438060000000 1.0
C      1  0.4217710000000  0.4983290000000  0.5353060000000 1.0
C      1  0.4848880000000  0.5144290000000  0.5306120000000 1.0
C      1  0.4763060000000  0.5222820000000  0.4757980000000 1.0
C      1  0.5364860000000  0.5102330000000  0.5002250000000 1.0
C      1  0.5237800000000  0.4736340000000  0.5099600000000 1.0
C      1  0.4790740000000  0.4708080000000  0.5137350000000 1.0
C      1  0.4989710000000  0.4813510000000  0.4766990000000 1.0
C      1  0.4512550000000  0.5625930000000  0.4948870000000 1.0
C      1  0.5281760000000  0.5621740000000  0.4642990000000 1.0
C      1  0.5144480000000  0.5624940000000  0.5402680000000 1.0
C      1  0.5516070000000  0.5021040000000  0.4778400000000 1.0
C      1  0.4948860000000  0.5039870000000  0.5539820000000 1.0
C      1  0.4540880000000  0.5055430000000  0.4684150000000 1.0
C      1  0.4576590000000  0.4338660000000  0.5003140000000 1.0
C      1  0.5197010000000  0.4364880000000  0.4658690000000 1.0
C      1  0.5188340000000  0.4352550000000  0.5355270000000 1.0
C      1  0.4517520000000  0.4776750000000  0.4772630000000 1.0
C      1  0.5467030000000  0.4766390000000  0.4646380000000 1.0
C      1  0.5067130000000  0.4783140000000  0.5541020000000 1.0
C      1  0.4679880000000  0.5487640000000  0.5448360000000 1.0
C      1  0.4757780000000  0.5493500000000  0.4441050000000 1.0
C      1  0.5574230000000  0.5444320000000  0.5052280000000 1.0
C      1  0.4419250000000  0.4532440000000  0.5172350000000 1.0
C      1  0.5097030000000  0.4545840000000  0.4402880000000 1.0
C      1  0.5448740000000  0.4534020000000  0.5398630000000 1.0
C      1  0.4798640000000  0.5707470000000  0.4931160000000 1.0
C      1  0.5219180000000  0.5756860000000  0.4912080000000 1.0
C      1  0.5024480000000  0.5761920000000  0.5130630000000 1.0
C      1  0.4674850000000  0.4478910000000  0.4460980000000 1.0
C      1  0.5637710000000  0.4444740000000  0.4986590000000 1.0
C      1  0.4662700000000  0.4475360000000  0.5553870000000 1.0
C      1  0.5067820000000  0.5318870000000  0.5029530000000 1.0
END
