TITL C-2441161-5029-289 -1.54610553689358e-09 125000 -1305.69060498406 0 0 10 (Td) n - 1
REM
REM in /home/bkarasulu/work/CARBON/AIRSS/Generating-Clusters/ReaxFF-fromJPCA2015/Units_Real/with-SteepDescent/Higher-Symm
REM
REM
REM
REM
REM
REM ./C.cell (1df0a924f5614ab8850e4351716899ee)
REM
REM compiler GCC version 9.2.1 20190827 (Red Hat 9.2.1-1)
REM options -cpp -mtune=generic -march=x86-64 -g -O0 -fpre-include=/usr/include/finclude/math-vector-fortran.h
REM seed -1824111672 -1448293691 -1599308966 2085922914 -405737845 95379768 -400536367 225770665 2147328055 -503289564 -1768791720 -1307505606 -1209408254 -726262601 473419668 -1112306141 538936801 -502292039 -694208131 1564567803 -2006656109 -576179951 -1155810463 -1420614318 1477399755 752737673 -861981497 -999667317 -240817717 -77629070 -2043016259 -1153706237 -450713536
REM
CELL 1.54180   50.00000   50.00000   50.00000   90.00000   90.00000   90.00000
LATT -1
SFAC C  
C      1  0.4996940000000  0.4652590000000  0.4993190000000 1.0
C      1  0.4644060000000  0.5005460000000  0.4993190000000 1.0
C      1  0.4996940000000  0.5005460000000  0.4640320000000 1.0
C      1  0.4996940000000  0.5358330000000  0.4993190000000 1.0
C      1  0.5349810000000  0.5005460000000  0.4993190000000 1.0
C      1  0.4996940000000  0.5005460000000  0.5346060000000 1.0
C      1  0.5167150000000  0.4835250000000  0.5163400000000 1.0
C      1  0.4826720000000  0.5175670000000  0.5163400000000 1.0
C      1  0.5167150000000  0.5175670000000  0.4822980000000 1.0
C      1  0.4826720000000  0.4835250000000  0.4822980000000 1.0
END
