TITL C-2441162-9305-1260 0.136444120751024 125000 -26037.2825566748 0 0 197 (C1) n - 1
REM
REM in /home/bkarasulu/work/CARBON/AIRSS/Generating-Clusters/ReaxFF-fromJPCA2015/Units_Real/with-SteepDescent/Higher-Symm
REM
REM
REM
REM
REM
REM ./C.cell (1df0a924f5614ab8850e4351716899ee)
REM
REM compiler GCC version 9.2.1 20190827 (Red Hat 9.2.1-1)
REM options -cpp -mtune=generic -march=x86-64 -g -O0 -fpre-include=/usr/include/finclude/math-vector-fortran.h
REM seed 1098489998 -1856605720 2048090895 407480377 480907313 -394597493 -2134781252 -1123388921 131201554 612287164 -80588063 524922503 -123886764 630376518 -231399624 -524809957 -1274366227 245949166 611527702 -1441626308 -923404576 2037227002 -448997987 -588974252 -921793388 299830770 -1139441118 896437015 1409614347 -305287209 101069165 -757026447 901112122
REM
CELL 1.54180   50.00000   50.00000   50.00000   90.00000   90.00000   90.00000
LATT -1
SFAC C  
C      1  0.3921090000000  0.5214250000000  0.4541890000000 1.0
C      1  0.3899630000000  0.4476150000000  0.5034350000000 1.0
C      1  0.3930270000000  0.5275720000000  0.5421230000000 1.0
C      1  0.6021180000000  0.5228770000000  0.5429190000000 1.0
C      1  0.6078210000000  0.4483650000000  0.4971780000000 1.0
C      1  0.6038150000000  0.5270970000000  0.4573360000000 1.0
C      1  0.5484960000000  0.5336190000000  0.3900530000000 1.0
C      1  0.5483090000000  0.3964580000000  0.5231980000000 1.0
C      1  0.5449460000000  0.5729820000000  0.5784930000000 1.0
C      1  0.4596350000000  0.5304740000000  0.6040110000000 1.0
C      1  0.4536430000000  0.3944350000000  0.4758250000000 1.0
C      1  0.4521910000000  0.5784570000000  0.4208970000000 1.0
C      1  0.4586940000000  0.4662180000000  0.4867730000000 1.0
C      1  0.4599400000000  0.5062430000000  0.5296490000000 1.0
C      1  0.4549160000000  0.5238150000000  0.4842900000000 1.0
C      1  0.5242050000000  0.4691050000000  0.5205930000000 1.0
C      1  0.5442820000000  0.4923730000000  0.4731180000000 1.0
C      1  0.5421100000000  0.5257690000000  0.5150520000000 1.0
C      1  0.5447370000000  0.4317810000000  0.4244470000000 1.0
C      1  0.5447520000000  0.4679480000000  0.5989510000000 1.0
C      1  0.5411700000000  0.5980980000000  0.4775210000000 1.0
C      1  0.4541410000000  0.4308590000000  0.5727410000000 1.0
C      1  0.4598040000000  0.4695830000000  0.4037210000000 1.0
C      1  0.4549440000000  0.5982010000000  0.5224240000000 1.0
C      1  0.5882690000000  0.5740500000000  0.5047700000000 1.0
C      1  0.5865120000000  0.4676070000000  0.4343960000000 1.0
C      1  0.5917450000000  0.4602070000000  0.5616560000000 1.0
C      1  0.4115310000000  0.5727870000000  0.4945020000000 1.0
C      1  0.4098970000000  0.4676710000000  0.5651160000000 1.0
C      1  0.4104070000000  0.4583090000000  0.4408020000000 1.0
C      1  0.5083770000000  0.4755870000000  0.4952980000000 1.0
C      1  0.5171520000000  0.5112160000000  0.5142650000000 1.0
C      1  0.5198960000000  0.5016000000000  0.4867800000000 1.0
C      1  0.4810580000000  0.4801160000000  0.5007290000000 1.0
C      1  0.4791500000000  0.5085430000000  0.4910300000000 1.0
C      1  0.4887720000000  0.5181950000000  0.5170250000000 1.0
C      1  0.5569350000000  0.5190500000000  0.4697080000000 1.0
C      1  0.5661810000000  0.4692360000000  0.5062270000000 1.0
C      1  0.5558250000000  0.5103750000000  0.5348470000000 1.0
C      1  0.4385630000000  0.5210840000000  0.5246880000000 1.0
C      1  0.4381690000000  0.4695800000000  0.5068470000000 1.0
C      1  0.4364650000000  0.5090020000000  0.4700580000000 1.0
C      1  0.4416060000000  0.4180880000000  0.5222830000000 1.0
C      1  0.4441450000000  0.5650890000000  0.5614790000000 1.0
C      1  0.4455050000000  0.5198820000000  0.4122600000000 1.0
C      1  0.5563970000000  0.4117270000000  0.4727300000000 1.0
C      1  0.5565580000000  0.5650880000000  0.4383130000000 1.0
C      1  0.5551390000000  0.5206010000000  0.5859390000000 1.0
C      1  0.5976150000000  0.5309680000000  0.4305170000000 1.0
C      1  0.5967860000000  0.4245030000000  0.5058780000000 1.0
C      1  0.5964620000000  0.5461800000000  0.5613830000000 1.0
C      1  0.4102980000000  0.5312480000000  0.5624460000000 1.0
C      1  0.4070910000000  0.4372890000000  0.4842870000000 1.0
C      1  0.4029200000000  0.5440530000000  0.4378300000000 1.0
C      1  0.4502350000000  0.4446760000000  0.4152690000000 1.0
C      1  0.4467330000000  0.4529330000000  0.5897770000000 1.0
C      1  0.4506870000000  0.6005150000000  0.4938730000000 1.0
C      1  0.5534950000000  0.4437390000000  0.5851620000000 1.0
C      1  0.5478380000000  0.4553790000000  0.4075340000000 1.0
C      1  0.5509460000000  0.6028520000000  0.5048440000000 1.0
C      1  0.5306050000000  0.4415920000000  0.4886790000000 1.0
C      1  0.5310240000000  0.5211530000000  0.5533300000000 1.0
C      1  0.5310640000000  0.5297020000000  0.4517880000000 1.0
C      1  0.4824420000000  0.4350880000000  0.5105010000000 1.0
C      1  0.4772880000000  0.5305290000000  0.4448810000000 1.0
C      1  0.4807910000000  0.5400520000000  0.5548300000000 1.0
C      1  0.4818370000000  0.5200410000000  0.3938380000000 1.0
C      1  0.4827980000000  0.3943080000000  0.5367220000000 1.0
C      1  0.4805940000000  0.5870230000000  0.5725470000000 1.0
C      1  0.5146340000000  0.5156280000000  0.6075070000000 1.0
C      1  0.5209450000000  0.3955600000000  0.4624700000000 1.0
C      1  0.5206950000000  0.5813510000000  0.4291640000000 1.0
C      1  0.5592980000000  0.4226050000000  0.5513780000000 1.0
C      1  0.5556920000000  0.5867690000000  0.5420140000000 1.0
C      1  0.5558250000000  0.4953760000000  0.4022150000000 1.0
C      1  0.4433640000000  0.4212000000000  0.4477010000000 1.0
C      1  0.4452140000000  0.5876960000000  0.4551620000000 1.0
C      1  0.4443020000000  0.4946450000000  0.5931210000000 1.0
C      1  0.5973000000000  0.4750010000000  0.5116110000000 1.0
C      1  0.5894560000000  0.5227270000000  0.5174360000000 1.0
C      1  0.5902200000000  0.5041430000000  0.4717090000000 1.0
C      1  0.4148370000000  0.4768920000000  0.4923290000000 1.0
C      1  0.4071220000000  0.5206900000000  0.4819210000000 1.0
C      1  0.4085460000000  0.5052280000000  0.5279620000000 1.0
C      1  0.4832060000000  0.6036800000000  0.5255540000000 1.0
C      1  0.4895460000000  0.4699080000000  0.3984770000000 1.0
C      1  0.4822920000000  0.4257470000000  0.5749720000000 1.0
C      1  0.5113790000000  0.6021040000000  0.4746900000000 1.0
C      1  0.5159230000000  0.4667280000000  0.6024610000000 1.0
C      1  0.5164020000000  0.4262470000000  0.4221140000000 1.0
C      1  0.5510930000000  0.4646640000000  0.4822790000000 1.0
C      1  0.5501750000000  0.4827990000000  0.5256220000000 1.0
C      1  0.5517230000000  0.5386890000000  0.4912200000000 1.0
C      1  0.4491050000000  0.4793710000000  0.5323400000000 1.0
C      1  0.4481890000000  0.4841260000000  0.4618210000000 1.0
C      1  0.4483050000000  0.5425200000000  0.5072630000000 1.0
C      1  0.5601610000000  0.5812590000000  0.4624660000000 1.0
C      1  0.5619460000000  0.4256830000000  0.4477050000000 1.0
C      1  0.5551880000000  0.4905210000000  0.5804960000000 1.0
C      1  0.4376750000000  0.5798610000000  0.5380490000000 1.0
C      1  0.4358780000000  0.4268850000000  0.5488800000000 1.0
C      1  0.4413290000000  0.4911790000000  0.4110110000000 1.0
C      1  0.5845810000000  0.4849720000000  0.5743650000000 1.0
C      1  0.5858310000000  0.5751480000000  0.4759140000000 1.0
C      1  0.5864180000000  0.4415560000000  0.4471500000000 1.0
C      1  0.4153700000000  0.4828250000000  0.4253360000000 1.0
C      1  0.4126120000000  0.5734370000000  0.5240500000000 1.0
C      1  0.4108310000000  0.4416160000000  0.5524240000000 1.0
C      1  0.5117550000000  0.5153410000000  0.3917390000000 1.0
C      1  0.5103130000000  0.3919440000000  0.5373180000000 1.0
C      1  0.5072240000000  0.5874280000000  0.5758420000000 1.0
C      1  0.4945640000000  0.5284180000000  0.6162470000000 1.0
C      1  0.4918170000000  0.3943600000000  0.4618360000000 1.0
C      1  0.4926230000000  0.5869720000000  0.4248880000000 1.0
C      1  0.4315920000000  0.4438720000000  0.4367650000000 1.0
C      1  0.4287170000000  0.4737320000000  0.5818840000000 1.0
C      1  0.4324880000000  0.5834830000000  0.4801660000000 1.0
C      1  0.5712540000000  0.4446610000000  0.5624140000000 1.0
C      1  0.5690660000000  0.4733460000000  0.4145310000000 1.0
C      1  0.5714300000000  0.5881590000000  0.5185840000000 1.0
C      1  0.3997870000000  0.4972320000000  0.4431030000000 1.0
C      1  0.3944110000000  0.4541790000000  0.5305460000000 1.0
C      1  0.3973490000000  0.5487710000000  0.5242640000000 1.0
C      1  0.6024750000000  0.4986840000000  0.5559780000000 1.0
C      1  0.6011720000000  0.4540210000000  0.4697390000000 1.0
C      1  0.6003830000000  0.5494750000000  0.4751820000000 1.0
C      1  0.4494920000000  0.4200540000000  0.4759660000000 1.0
C      1  0.4564340000000  0.5166700000000  0.5810240000000 1.0
C      1  0.4487310000000  0.5600260000000  0.4428090000000 1.0
C      1  0.5505540000000  0.4235300000000  0.5246200000000 1.0
C      1  0.5570240000000  0.5214230000000  0.4140360000000 1.0
C      1  0.5458550000000  0.5602790000000  0.5513680000000 1.0
C      1  0.4673060000000  0.4269360000000  0.4312560000000 1.0
C      1  0.4649930000000  0.4739810000000  0.5992460000000 1.0
C      1  0.4703000000000  0.5957950000000  0.4722350000000 1.0
C      1  0.5355190000000  0.4278920000000  0.5683920000000 1.0
C      1  0.5299230000000  0.4791900000000  0.4010470000000 1.0
C      1  0.5331380000000  0.5970390000000  0.5271800000000 1.0
C      1  0.5093110000000  0.5001160000000  0.5518260000000 1.0
C      1  0.5140250000000  0.5397380000000  0.4740210000000 1.0
C      1  0.5067920000000  0.4522110000000  0.4735590000000 1.0
C      1  0.4870390000000  0.5042430000000  0.4534630000000 1.0
C      1  0.4933690000000  0.5475710000000  0.5288060000000 1.0
C      1  0.4853240000000  0.4598490000000  0.5250750000000 1.0
C      1  0.5059810000000  0.5867750000000  0.4509360000000 1.0
C      1  0.5082860000000  0.4123430000000  0.4456800000000 1.0
C      1  0.5061140000000  0.4916340000000  0.6028650000000 1.0
C      1  0.4935590000000  0.5921170000000  0.5496680000000 1.0
C      1  0.4938390000000  0.4102820000000  0.5547390000000 1.0
C      1  0.4925420000000  0.4975720000000  0.4029060000000 1.0
C      1  0.5303440000000  0.5547400000000  0.4278670000000 1.0
C      1  0.5298440000000  0.4070790000000  0.4857210000000 1.0
C      1  0.5285420000000  0.5321680000000  0.5885950000000 1.0
C      1  0.4703820000000  0.5614610000000  0.5748310000000 1.0
C      1  0.4712960000000  0.4076940000000  0.5147970000000 1.0
C      1  0.4729640000000  0.5363980000000  0.4155760000000 1.0
C      1  0.4317830000000  0.5379140000000  0.4315820000000 1.0
C      1  0.4300340000000  0.4237030000000  0.4974210000000 1.0
C      1  0.4335820000000  0.5400640000000  0.5729810000000 1.0
C      1  0.5685280000000  0.5414150000000  0.5705200000000 1.0
C      1  0.5705800000000  0.4187360000000  0.4976970000000 1.0
C      1  0.5709980000000  0.5388880000000  0.4336040000000 1.0
C      1  0.5240650000000  0.3904350000000  0.5115470000000 1.0
C      1  0.5210220000000  0.5640760000000  0.5894850000000 1.0
C      1  0.5236570000000  0.5420080000000  0.3994270000000 1.0
C      1  0.4782560000000  0.3910610000000  0.4872530000000 1.0
C      1  0.4758660000000  0.5679230000000  0.4105940000000 1.0
C      1  0.4796930000000  0.5492850000000  0.6046000000000 1.0
C      1  0.5289710000000  0.5566830000000  0.4923910000000 1.0
C      1  0.5194790000000  0.4650970000000  0.4511640000000 1.0
C      1  0.5277460000000  0.4791870000000  0.5624890000000 1.0
C      1  0.4720910000000  0.5587060000000  0.5081230000000 1.0
C      1  0.4703740000000  0.4673380000000  0.5488330000000 1.0
C      1  0.4718570000000  0.4786740000000  0.4468420000000 1.0
C      1  0.6054650000000  0.4744790000000  0.5408140000000 1.0
C      1  0.5967400000000  0.5471620000000  0.5038720000000 1.0
C      1  0.5966410000000  0.4799570000000  0.4575510000000 1.0
C      1  0.4037580000000  0.4638020000000  0.4684080000000 1.0
C      1  0.4000350000000  0.5461860000000  0.4958460000000 1.0
C      1  0.4013550000000  0.4804880000000  0.5422590000000 1.0
C      1  0.5190610000000  0.5769890000000  0.5111040000000 1.0
C      1  0.5225040000000  0.4842070000000  0.4302140000000 1.0
C      1  0.5210220000000  0.4513100000000  0.5574550000000 1.0
C      1  0.4784420000000  0.5684930000000  0.4816850000000 1.0
C      1  0.4823580000000  0.4731920000000  0.5755110000000 1.0
C      1  0.4825830000000  0.4515950000000  0.4399780000000 1.0
C      1  0.5209090000000  0.5458040000000  0.5427890000000 1.0
C      1  0.5131820000000  0.5091890000000  0.4419160000000 1.0
C      1  0.5272810000000  0.4408540000000  0.5178980000000 1.0
C      1  0.4891590000000  0.5488950000000  0.4630460000000 1.0
C      1  0.4854160000000  0.5150030000000  0.5637050000000 1.0
C      1  0.4749680000000  0.4407310000000  0.4832880000000 1.0
C      1  0.5007170000000  0.5973190000000  0.5024020000000 1.0
C      1  0.4993290000000  0.4504950000000  0.5805700000000 1.0
C      1  0.5003550000000  0.4502580000000  0.4175030000000 1.0
C      1  0.5971070000000  0.5017580000000  0.4996620000000 1.0
C      1  0.4018410000000  0.4997450000000  0.5006210000000 1.0
END
