TITL C-2441157-2117-103 0.0390100397466854 125000 -20925.5567378908 0 0 150 (C1) n - 1
REM
REM in /home/bkarasulu/work/CARBON/AIRSS/Generating-Clusters/ReaxFF-fromJPCA2015/Units_Real/with-SteepDescent/Higher-Symm
REM
REM
REM
REM
REM
REM ./C.cell (1df0a924f5614ab8850e4351716899ee)
REM
REM compiler GCC version 9.2.1 20190827 (Red Hat 9.2.1-1)
REM options -cpp -mtune=generic -march=x86-64 -g -O0 -fpre-include=/usr/include/finclude/math-vector-fortran.h
REM seed 402900352 1037408781 -895231693 -1376720324 -1350048665 -1107397747 437029181 254889737 -1078419399 -426712917 -1330500192 -1574112854 -208528113 -1908143413 291205994 460411515 1395928465 1822948893 -2068829732 -1523019346 1671915673 -855804788 547712040 -6336444 828796327 1929399604 1414155088 -308628818 -2109395750 -1411489244 1432324845 1757756153 1647830181
REM
CELL 1.54180   50.00000   50.00000   50.00000   90.00000   90.00000   90.00000
LATT -1
SFAC C  
C      1  0.4433770000000  0.4158060000000  0.5030500000000 1.0
C      1  0.5336180000000  0.3993240000000  0.4983640000000 1.0
C      1  0.5960320000000  0.4622260000000  0.5019230000000 1.0
C      1  0.5913780000000  0.5519690000000  0.5023590000000 1.0
C      1  0.5084670000000  0.6040100000000  0.5015580000000 1.0
C      1  0.4233930000000  0.5755590000000  0.4963490000000 1.0
C      1  0.3962090000000  0.4920780000000  0.5022160000000 1.0
C      1  0.5285240000000  0.4564940000000  0.4168320000000 1.0
C      1  0.5574180000000  0.4951290000000  0.4175940000000 1.0
C      1  0.5399970000000  0.5453750000000  0.4178550000000 1.0
C      1  0.4946360000000  0.5508540000000  0.4198850000000 1.0
C      1  0.4502220000000  0.5282200000000  0.4165780000000 1.0
C      1  0.4558180000000  0.4792970000000  0.4204330000000 1.0
C      1  0.4835210000000  0.4440960000000  0.4177650000000 1.0
C      1  0.5270510000000  0.4060010000000  0.5512680000000 1.0
C      1  0.5816530000000  0.4646110000000  0.5545530000000 1.0
C      1  0.5811140000000  0.5429180000000  0.5537820000000 1.0
C      1  0.5130500000000  0.5825040000000  0.5541380000000 1.0
C      1  0.4352980000000  0.5729600000000  0.5517350000000 1.0
C      1  0.4064440000000  0.4978330000000  0.5525390000000 1.0
C      1  0.4523730000000  0.4314110000000  0.5550610000000 1.0
C      1  0.5323380000000  0.5733710000000  0.4758970000000 1.0
C      1  0.4642760000000  0.5657330000000  0.4782190000000 1.0
C      1  0.4326810000000  0.5080900000000  0.4748220000000 1.0
C      1  0.4502940000000  0.4539820000000  0.4752840000000 1.0
C      1  0.5058060000000  0.4175810000000  0.4730020000000 1.0
C      1  0.5648970000000  0.4558070000000  0.4749010000000 1.0
C      1  0.5782150000000  0.5249470000000  0.4724190000000 1.0
C      1  0.4657260000000  0.4236310000000  0.4495210000000 1.0
C      1  0.5372950000000  0.4299530000000  0.4481420000000 1.0
C      1  0.5810220000000  0.4892120000000  0.4513530000000 1.0
C      1  0.5626630000000  0.5562750000000  0.4510090000000 1.0
C      1  0.4950030000000  0.5789830000000  0.4493320000000 1.0
C      1  0.4339240000000  0.5457650000000  0.4492170000000 1.0
C      1  0.4188440000000  0.4777770000000  0.4517710000000 1.0
C      1  0.5224870000000  0.5364150000000  0.4607630000000 1.0
C      1  0.5024390000000  0.5283540000000  0.4378780000000 1.0
C      1  0.4809730000000  0.5120470000000  0.4521810000000 1.0
C      1  0.4719490000000  0.4864400000000  0.4423190000000 1.0
C      1  0.4950650000000  0.4714810000000  0.4551300000000 1.0
C      1  0.5157790000000  0.4775240000000  0.4311100000000 1.0
C      1  0.5276260000000  0.5082160000000  0.4668590000000 1.0
C      1  0.4140180000000  0.4852670000000  0.4791500000000 1.0
C      1  0.4579760000000  0.4258270000000  0.4775580000000 1.0
C      1  0.5344070000000  0.4190620000000  0.4746960000000 1.0
C      1  0.5833200000000  0.4768680000000  0.4770380000000 1.0
C      1  0.5734150000000  0.5524650000000  0.4770620000000 1.0
C      1  0.5069360000000  0.5862390000000  0.4742680000000 1.0
C      1  0.4350110000000  0.5590920000000  0.4741850000000 1.0
C      1  0.4731250000000  0.4589570000000  0.5288360000000 1.0
C      1  0.5145550000000  0.4469220000000  0.5338340000000 1.0
C      1  0.5495380000000  0.4783480000000  0.5264840000000 1.0
C      1  0.5454970000000  0.5248050000000  0.5209100000000 1.0
C      1  0.5062020000000  0.5498860000000  0.5269860000000 1.0
C      1  0.4562270000000  0.5427940000000  0.5290940000000 1.0
C      1  0.4487390000000  0.4973020000000  0.5287610000000 1.0
C      1  0.4915750000000  0.4388960000000  0.5186110000000 1.0
C      1  0.5339140000000  0.4566490000000  0.5157610000000 1.0
C      1  0.5567890000000  0.5005720000000  0.5085620000000 1.0
C      1  0.5273780000000  0.5437330000000  0.5086550000000 1.0
C      1  0.4800830000000  0.5509820000000  0.5157160000000 1.0
C      1  0.4497930000000  0.5199440000000  0.5126760000000 1.0
C      1  0.4493100000000  0.4709240000000  0.5169860000000 1.0
C      1  0.4647150000000  0.5525600000000  0.4232730000000 1.0
C      1  0.4378810000000  0.5033670000000  0.4224710000000 1.0
C      1  0.4557240000000  0.4476530000000  0.4241390000000 1.0
C      1  0.5097760000000  0.4326640000000  0.4228540000000 1.0
C      1  0.5563120000000  0.4668530000000  0.4224930000000 1.0
C      1  0.5582880000000  0.5234920000000  0.4208980000000 1.0
C      1  0.5197780000000  0.5662290000000  0.4233800000000 1.0
C      1  0.5621960000000  0.5393460000000  0.5763700000000 1.0
C      1  0.4993980000000  0.5650270000000  0.5749560000000 1.0
C      1  0.4438870000000  0.5537890000000  0.5719960000000 1.0
C      1  0.4280530000000  0.4971530000000  0.5729720000000 1.0
C      1  0.4728660000000  0.4402840000000  0.5748040000000 1.0
C      1  0.5280450000000  0.4261610000000  0.5724060000000 1.0
C      1  0.5637950000000  0.4778690000000  0.5735470000000 1.0
C      1  0.4056660000000  0.4224520000000  0.4870880000000 1.0
C      1  0.5076240000000  0.3693700000000  0.4881920000000 1.0
C      1  0.6023830000000  0.4247560000000  0.4868140000000 1.0
C      1  0.6254790000000  0.5329530000000  0.4904850000000 1.0
C      1  0.5353020000000  0.6129040000000  0.5003970000000 1.0
C      1  0.4354720000000  0.6007490000000  0.4959680000000 1.0
C      1  0.3774990000000  0.5244850000000  0.4852360000000 1.0
C      1  0.4782460000000  0.5262380000000  0.5559430000000 1.0
C      1  0.4704550000000  0.5002430000000  0.5454240000000 1.0
C      1  0.4850040000000  0.4776600000000  0.5441390000000 1.0
C      1  0.5113050000000  0.4700180000000  0.5534900000000 1.0
C      1  0.5314900000000  0.4882380000000  0.5449120000000 1.0
C      1  0.5289480000000  0.5158270000000  0.5431360000000 1.0
C      1  0.5056000000000  0.5313270000000  0.5469960000000 1.0
C      1  0.4982370000000  0.4034940000000  0.5522860000000 1.0
C      1  0.5704430000000  0.4374960000000  0.5520730000000 1.0
C      1  0.5882470000000  0.5149840000000  0.5520840000000 1.0
C      1  0.5411680000000  0.5770730000000  0.5514430000000 1.0
C      1  0.4603090000000  0.5876730000000  0.5519130000000 1.0
C      1  0.4068370000000  0.5273830000000  0.5522930000000 1.0
C      1  0.4339600000000  0.4529410000000  0.5561410000000 1.0
C      1  0.5498140000000  0.4436760000000  0.5711220000000 1.0
C      1  0.5671860000000  0.5052610000000  0.5711120000000 1.0
C      1  0.5407720000000  0.5567680000000  0.5717010000000 1.0
C      1  0.4712730000000  0.5701550000000  0.5729220000000 1.0
C      1  0.4297770000000  0.5286040000000  0.5708950000000 1.0
C      1  0.4439000000000  0.4739390000000  0.5751920000000 1.0
C      1  0.4951110000000  0.4229220000000  0.5736230000000 1.0
C      1  0.5278440000000  0.5232830000000  0.5878540000000 1.0
C      1  0.5031220000000  0.5371140000000  0.5878010000000 1.0
C      1  0.4794170000000  0.5193520000000  0.5849620000000 1.0
C      1  0.4687890000000  0.4918320000000  0.5877750000000 1.0
C      1  0.4834880000000  0.4680630000000  0.5881520000000 1.0
C      1  0.5120280000000  0.4743340000000  0.5853650000000 1.0
C      1  0.5310590000000  0.4955200000000  0.5876980000000 1.0
C      1  0.5947600000000  0.5035380000000  0.5262140000000 1.0
C      1  0.5572820000000  0.5770530000000  0.5256810000000 1.0
C      1  0.4737070000000  0.5956430000000  0.5258190000000 1.0
C      1  0.4057440000000  0.5412520000000  0.5274550000000 1.0
C      1  0.4208330000000  0.4575750000000  0.5287030000000 1.0
C      1  0.4841720000000  0.4092340000000  0.5255330000000 1.0
C      1  0.5656980000000  0.4242100000000  0.5263240000000 1.0
C      1  0.4179670000000  0.4314120000000  0.5073570000000 1.0
C      1  0.5026760000000  0.3952540000000  0.4977240000000 1.0
C      1  0.5791270000000  0.4364280000000  0.4995280000000 1.0
C      1  0.6003500000000  0.5226840000000  0.4994050000000 1.0
C      1  0.5482470000000  0.5878220000000  0.4992770000000 1.0
C      1  0.4617550000000  0.5919390000000  0.4981090000000 1.0
C      1  0.3952680000000  0.5235320000000  0.5039880000000 1.0
C      1  0.5435940000000  0.4074770000000  0.5250110000000 1.0
C      1  0.5941140000000  0.4753450000000  0.5279490000000 1.0
C      1  0.5788500000000  0.5588950000000  0.5279030000000 1.0
C      1  0.5014500000000  0.5959120000000  0.5295860000000 1.0
C      1  0.4281910000000  0.5597780000000  0.5244980000000 1.0
C      1  0.4028450000000  0.4811040000000  0.5282300000000 1.0
C      1  0.4556490000000  0.4147930000000  0.5293710000000 1.0
C      1  0.4801420000000  0.5399820000000  0.4888940000000 1.0
C      1  0.4603230000000  0.5100720000000  0.4866870000000 1.0
C      1  0.4662140000000  0.4757140000000  0.4895200000000 1.0
C      1  0.4933490000000  0.4640450000000  0.4857950000000 1.0
C      1  0.5203160000000  0.4700480000000  0.4940690000000 1.0
C      1  0.5373890000000  0.4923470000000  0.4879890000000 1.0
C      1  0.5096330000000  0.5404520000000  0.4861120000000 1.0
C      1  0.4246830000000  0.5183300000000  0.4478470000000 1.0
C      1  0.4356870000000  0.4550820000000  0.4495470000000 1.0
C      1  0.4936140000000  0.4168930000000  0.4468620000000 1.0
C      1  0.5580480000000  0.4489050000000  0.4478140000000 1.0
C      1  0.5807910000000  0.5164670000000  0.4444850000000 1.0
C      1  0.5411910000000  0.5736680000000  0.4475850000000 1.0
C      1  0.4683400000000  0.5700080000000  0.4482490000000 1.0
C      1  0.5014640000000  0.4980410000000  0.4657750000000 1.0
C      1  0.5009880000000  0.5020310000000  0.3922640000000 1.0
C      1  0.5098950000000  0.5028570000000  0.4164700000000 1.0
END
