TITL C-2441166-8118-356 0.0872531207714255 125000 -20939.2570154279 0 0 154 (C1) n - 1
REM
REM in /home/bkarasulu/work/CARBON/AIRSS/Generating-Clusters/ReaxFF-fromJPCA2015/Units_Real/with-SteepDescent/Higher-Symm
REM
REM
REM
REM
REM
REM ./C.cell (1df0a924f5614ab8850e4351716899ee)
REM
REM compiler GCC version 9.2.1 20190827 (Red Hat 9.2.1-1)
REM options -cpp -mtune=generic -march=x86-64 -g -O0 -fpre-include=/usr/include/finclude/math-vector-fortran.h
REM seed 2044068984 -1236249739 1077421124 -1434859492 -1970805735 895301376 -2107489552 -1801114452 389580214 -1765901688 843846641 -820753693 -163958302 1559890952 -1469716532 629584680 1219766970 -784272496 1273249462 1313314882 1802619795 1255058722 527569497 1007516414 828250206 -1159764366 273558674 2078907277 149961589 2072033938 -1911146330 364802221 -1097992437
REM
CELL 1.54180   50.00000   50.00000   50.00000   90.00000   90.00000   90.00000
LATT -1
SFAC C  
C      1  0.4928340000000  0.4031840000000  0.5433850000000 1.0
C      1  0.4544720000000  0.5814500000000  0.4509850000000 1.0
C      1  0.5068280000000  0.5869370000000  0.5284690000000 1.0
C      1  0.5122380000000  0.5429000000000  0.5902710000000 1.0
C      1  0.5202760000000  0.4559860000000  0.5886810000000 1.0
C      1  0.4717280000000  0.4678540000000  0.5749480000000 1.0
C      1  0.4909280000000  0.5213260000000  0.5022510000000 1.0
C      1  0.5238210000000  0.4662640000000  0.4970390000000 1.0
C      1  0.4807640000000  0.5657350000000  0.5185690000000 1.0
C      1  0.4383330000000  0.5341110000000  0.4192080000000 1.0
C      1  0.4971860000000  0.4827380000000  0.4461080000000 1.0
C      1  0.4029720000000  0.5043250000000  0.4844530000000 1.0
C      1  0.5962280000000  0.4632380000000  0.4820810000000 1.0
C      1  0.5216860000000  0.4052800000000  0.5351240000000 1.0
C      1  0.5266490000000  0.5044170000000  0.5270500000000 1.0
C      1  0.4196770000000  0.4861320000000  0.4683170000000 1.0
C      1  0.5098190000000  0.4861320000000  0.5090040000000 1.0
C      1  0.4452640000000  0.5665690000000  0.5537760000000 1.0
C      1  0.4395490000000  0.5652000000000  0.4759280000000 1.0
C      1  0.4145970000000  0.5535710000000  0.4648470000000 1.0
C      1  0.4212330000000  0.4574120000000  0.4624870000000 1.0
C      1  0.5279210000000  0.5204700000000  0.4746950000000 1.0
C      1  0.4763170000000  0.6066080000000  0.5044290000000 1.0
C      1  0.4967690000000  0.3998270000000  0.4659020000000 1.0
C      1  0.4781400000000  0.5865170000000  0.4827150000000 1.0
C      1  0.4581580000000  0.4052630000000  0.5024400000000 1.0
C      1  0.5449600000000  0.5705500000000  0.4357080000000 1.0
C      1  0.4089560000000  0.5103160000000  0.4556130000000 1.0
C      1  0.4183840000000  0.5287660000000  0.5331030000000 1.0
C      1  0.4621920000000  0.5887380000000  0.5226860000000 1.0
C      1  0.5972470000000  0.4913580000000  0.5534770000000 1.0
C      1  0.5265470000000  0.5464420000000  0.5184680000000 1.0
C      1  0.4834680000000  0.4750490000000  0.3982120000000 1.0
C      1  0.4907610000000  0.5241000000000  0.5969260000000 1.0
C      1  0.5629590000000  0.5255340000000  0.5733570000000 1.0
C      1  0.4976490000000  0.5541080000000  0.4474530000000 1.0
C      1  0.4702970000000  0.4783240000000  0.4398330000000 1.0
C      1  0.5611490000000  0.4770480000000  0.5718180000000 1.0
C      1  0.5290470000000  0.5015190000000  0.5985560000000 1.0
C      1  0.4743480000000  0.5236470000000  0.5234850000000 1.0
C      1  0.4539700000000  0.4437270000000  0.5216970000000 1.0
C      1  0.4978560000000  0.5263830000000  0.4472630000000 1.0
C      1  0.5160620000000  0.5436580000000  0.5446680000000 1.0
C      1  0.4840650000000  0.5446990000000  0.5407460000000 1.0
C      1  0.5371960000000  0.5274820000000  0.5885240000000 1.0
C      1  0.5728780000000  0.5561720000000  0.5290250000000 1.0
C      1  0.5957010000000  0.5165560000000  0.5392760000000 1.0
C      1  0.5357600000000  0.5742720000000  0.5178450000000 1.0
C      1  0.5092380000000  0.4781900000000  0.4206520000000 1.0
C      1  0.4405170000000  0.4369500000000  0.5471850000000 1.0
C      1  0.5679310000000  0.4330160000000  0.5432290000000 1.0
C      1  0.5065230000000  0.5033040000000  0.4636700000000 1.0
C      1  0.5794200000000  0.4288280000000  0.5163070000000 1.0
C      1  0.4373210000000  0.4185100000000  0.4857570000000 1.0
C      1  0.4658580000000  0.5444870000000  0.4166120000000 1.0
C      1  0.5281670000000  0.5003950000000  0.4149950000000 1.0
C      1  0.5967460000000  0.4517020000000  0.5079530000000 1.0
C      1  0.4220280000000  0.5657920000000  0.5045670000000 1.0
C      1  0.4937950000000  0.5848480000000  0.5558200000000 1.0
C      1  0.4667130000000  0.4915750000000  0.4805210000000 1.0
C      1  0.5651000000000  0.5299820000000  0.4369760000000 1.0
C      1  0.5267420000000  0.4578720000000  0.4226310000000 1.0
C      1  0.5447490000000  0.5835920000000  0.4857960000000 1.0
C      1  0.4868370000000  0.4471640000000  0.5626190000000 1.0
C      1  0.4771510000000  0.5028260000000  0.3989220000000 1.0
C      1  0.5327380000000  0.5624290000000  0.5594910000000 1.0
C      1  0.4410140000000  0.4444420000000  0.4451540000000 1.0
C      1  0.4534010000000  0.4116480000000  0.5542910000000 1.0
C      1  0.4406460000000  0.4576190000000  0.5674940000000 1.0
C      1  0.5249490000000  0.5405580000000  0.4074130000000 1.0
C      1  0.4637410000000  0.4633070000000  0.4806190000000 1.0
C      1  0.4545480000000  0.5139920000000  0.4666850000000 1.0
C      1  0.4819060000000  0.4441690000000  0.5174010000000 1.0
C      1  0.4778340000000  0.5977390000000  0.4556380000000 1.0
C      1  0.4959660000000  0.4800240000000  0.5303430000000 1.0
C      1  0.5119200000000  0.5176040000000  0.3989150000000 1.0
C      1  0.4797260000000  0.5572160000000  0.4899760000000 1.0
C      1  0.4166080000000  0.4407940000000  0.4867940000000 1.0
C      1  0.4626900000000  0.4989990000000  0.5338990000000 1.0
C      1  0.4642120000000  0.5890900000000  0.5518110000000 1.0
C      1  0.4803630000000  0.4192480000000  0.5642940000000 1.0
C      1  0.5568470000000  0.4927260000000  0.4194580000000 1.0
C      1  0.5071740000000  0.5954180000000  0.4496320000000 1.0
C      1  0.5192250000000  0.5853870000000  0.4728020000000 1.0
C      1  0.5586530000000  0.5706630000000  0.4614270000000 1.0
C      1  0.5457720000000  0.5240000000000  0.4556340000000 1.0
C      1  0.4263100000000  0.4946820000000  0.5770030000000 1.0
C      1  0.5368070000000  0.4219980000000  0.4409350000000 1.0
C      1  0.5462540000000  0.4556700000000  0.5087860000000 1.0
C      1  0.5893240000000  0.5051710000000  0.4830690000000 1.0
C      1  0.4393530000000  0.4880650000000  0.5187810000000 1.0
C      1  0.4792340000000  0.4970460000000  0.5616250000000 1.0
C      1  0.4861910000000  0.4317880000000  0.4303820000000 1.0
C      1  0.4276850000000  0.5562810000000  0.5314730000000 1.0
C      1  0.4758030000000  0.4115630000000  0.4485090000000 1.0
C      1  0.5153070000000  0.4460990000000  0.4797760000000 1.0
C      1  0.5930110000000  0.4809230000000  0.4621360000000 1.0
C      1  0.4206090000000  0.5343220000000  0.4436180000000 1.0
C      1  0.4831080000000  0.5230490000000  0.4246360000000 1.0
C      1  0.5047200000000  0.6094380000000  0.5094250000000 1.0
C      1  0.5264280000000  0.3960810000000  0.5087080000000 1.0
C      1  0.4044110000000  0.5224940000000  0.5074680000000 1.0
C      1  0.5598140000000  0.4613140000000  0.5473510000000 1.0
C      1  0.5783420000000  0.5494910000000  0.4584380000000 1.0
C      1  0.5991570000000  0.5016100000000  0.5134450000000 1.0
C      1  0.4037850000000  0.5478080000000  0.4923670000000 1.0
C      1  0.5603690000000  0.4957380000000  0.4895030000000 1.0
C      1  0.5836910000000  0.5351240000000  0.4832110000000 1.0
C      1  0.5603370000000  0.4330960000000  0.4955800000000 1.0
C      1  0.4510850000000  0.5003990000000  0.4401450000000 1.0
C      1  0.4578900000000  0.5409960000000  0.4782330000000 1.0
C      1  0.5155190000000  0.5724050000000  0.4325700000000 1.0
C      1  0.5551780000000  0.4436810000000  0.4483580000000 1.0
C      1  0.5398230000000  0.4773770000000  0.5886700000000 1.0
C      1  0.5001250000000  0.4536680000000  0.5381850000000 1.0
C      1  0.5223240000000  0.6068460000000  0.4861550000000 1.0
C      1  0.5305300000000  0.4355430000000  0.5716770000000 1.0
C      1  0.5688460000000  0.4740810000000  0.4450580000000 1.0
C      1  0.5514390000000  0.5111500000000  0.5128530000000 1.0
C      1  0.4476010000000  0.5078240000000  0.4123350000000 1.0
C      1  0.5501180000000  0.5478530000000  0.4176040000000 1.0
C      1  0.4835560000000  0.4105400000000  0.4895070000000 1.0
C      1  0.4660560000000  0.3989580000000  0.5308480000000 1.0
C      1  0.4661080000000  0.5494330000000  0.5641770000000 1.0
C      1  0.4456680000000  0.4643380000000  0.5026170000000 1.0
C      1  0.4142050000000  0.4772980000000  0.5290790000000 1.0
C      1  0.4707560000000  0.5608210000000  0.4390400000000 1.0
C      1  0.5255290000000  0.4049850000000  0.4620340000000 1.0
C      1  0.5536220000000  0.5739690000000  0.5415970000000 1.0
C      1  0.5771230000000  0.4998540000000  0.5729560000000 1.0
C      1  0.5095870000000  0.5706100000000  0.5760680000000 1.0
C      1  0.5951690000000  0.4766600000000  0.5259280000000 1.0
C      1  0.5344050000000  0.4180950000000  0.4872620000000 1.0
C      1  0.4196160000000  0.4740560000000  0.5585010000000 1.0
C      1  0.4491670000000  0.4206550000000  0.4594530000000 1.0
C      1  0.5145510000000  0.4327670000000  0.4253870000000 1.0
C      1  0.5525620000000  0.4673370000000  0.4064960000000 1.0
C      1  0.4065420000000  0.4561420000000  0.5098600000000 1.0
C      1  0.5131440000000  0.5374730000000  0.4944110000000 1.0
C      1  0.5007810000000  0.4969830000000  0.6029510000000 1.0
C      1  0.4241550000000  0.5174050000000  0.5592510000000 1.0
C      1  0.5672720000000  0.5361790000000  0.5073860000000 1.0
C      1  0.5775630000000  0.5384430000000  0.5515230000000 1.0
C      1  0.4647610000000  0.5314880000000  0.5863320000000 1.0
C      1  0.5435320000000  0.4191260000000  0.5535200000000 1.0
C      1  0.4938030000000  0.4695170000000  0.5955790000000 1.0
C      1  0.4397900000000  0.5191280000000  0.5823150000000 1.0
C      1  0.4644350000000  0.4520560000000  0.4282950000000 1.0
C      1  0.5346840000000  0.4565970000000  0.5349790000000 1.0
C      1  0.5089350000000  0.4987880000000  0.5491540000000 1.0
C      1  0.5330840000000  0.4600330000000  0.4577490000000 1.0
C      1  0.5502370000000  0.4832520000000  0.4658940000000 1.0
C      1  0.4861320000000  0.4432890000000  0.4883500000000 1.0
C      1  0.4923300000000  0.4990560000000  0.4891520000000 1.0
END
