TITL C-2441156-4686-1169 0.0307598573589087 125000 -16275.0153978764 0 0 113 (C1) n - 1
REM
REM in /home/bkarasulu/work/CARBON/AIRSS/Generating-Clusters/ReaxFF-fromJPCA2015/Units_Real/with-SteepDescent/Higher-Symm
REM
REM
REM
REM
REM
REM ./C.cell (1df0a924f5614ab8850e4351716899ee)
REM
REM compiler GCC version 9.2.1 20190827 (Red Hat 9.2.1-1)
REM options -cpp -mtune=generic -march=x86-64 -g -O0 -fpre-include=/usr/include/finclude/math-vector-fortran.h
REM seed 409553478 1988772111 1754016789 1856061934 -1777039548 -93586413 803179547 -178782099 676785262 -927292344 167986128 1342584121 1660954422 1758786002 1531779236 -1386854297 -698450318 -1285851969 -1081743379 -2087190675 2839338 -470470665 -1963896336 -408144981 -1037605391 -234299212 665068766 -189942915 -146165140 617240069 -1981220032 99892902 -1463286982
REM
CELL 1.54180   50.00000   50.00000   50.00000   90.00000   90.00000   90.00000
LATT -1
SFAC C  
C      1  0.5357590000000  0.5169820000000  0.4247850000000 1.0
C      1  0.4161040000000  0.5193980000000  0.5021390000000 1.0
C      1  0.5417310000000  0.5149370000000  0.5663000000000 1.0
C      1  0.4561410000000  0.4787010000000  0.5721690000000 1.0
C      1  0.5841290000000  0.4774610000000  0.5011050000000 1.0
C      1  0.4583450000000  0.4815180000000  0.4263090000000 1.0
C      1  0.4656960000000  0.5437320000000  0.5171630000000 1.0
C      1  0.5241570000000  0.5454700000000  0.5204510000000 1.0
C      1  0.4999220000000  0.5412330000000  0.4721150000000 1.0
C      1  0.4505910000000  0.4615640000000  0.4666900000000 1.0
C      1  0.4954420000000  0.4582950000000  0.5588530000000 1.0
C      1  0.5510850000000  0.4570160000000  0.4756440000000 1.0
C      1  0.5413010000000  0.5559480000000  0.5415550000000 1.0
C      1  0.5198710000000  0.5609990000000  0.4578940000000 1.0
C      1  0.4507110000000  0.5611040000000  0.4993250000000 1.0
C      1  0.5369290000000  0.4450480000000  0.5208410000000 1.0
C      1  0.4933120000000  0.4497250000000  0.4564190000000 1.0
C      1  0.4655660000000  0.4452170000000  0.5180140000000 1.0
C      1  0.4727250000000  0.5324550000000  0.4644070000000 1.0
C      1  0.4833400000000  0.5210080000000  0.5595720000000 1.0
C      1  0.5628410000000  0.5190480000000  0.4870070000000 1.0
C      1  0.5763190000000  0.4535990000000  0.5479940000000 1.0
C      1  0.5030810000000  0.4558010000000  0.4100940000000 1.0
C      1  0.4197680000000  0.4553210000000  0.5403210000000 1.0
C      1  0.4698350000000  0.4882650000000  0.5233900000000 1.0
C      1  0.5344770000000  0.4882490000000  0.5152180000000 1.0
C      1  0.4958800000000  0.4898140000000  0.4645220000000 1.0
C      1  0.5310840000000  0.4269210000000  0.4472830000000 1.0
C      1  0.4391390000000  0.4207280000000  0.5006450000000 1.0
C      1  0.5289850000000  0.4226810000000  0.5582740000000 1.0
C      1  0.5551800000000  0.4339100000000  0.5589420000000 1.0
C      1  0.5274680000000  0.4421860000000  0.4240370000000 1.0
C      1  0.4245600000000  0.4351050000000  0.5192610000000 1.0
C      1  0.5290270000000  0.4932550000000  0.5819470000000 1.0
C      1  0.5538850000000  0.4949640000000  0.4326190000000 1.0
C      1  0.4153270000000  0.4959840000000  0.4841540000000 1.0
C      1  0.5013230000000  0.4947420000000  0.5912490000000 1.0
C      1  0.5742180000000  0.4946570000000  0.4527800000000 1.0
C      1  0.4213490000000  0.4965650000000  0.4550750000000 1.0
C      1  0.5112190000000  0.5082130000000  0.4109920000000 1.0
C      1  0.4163760000000  0.5091320000000  0.5302500000000 1.0
C      1  0.5687620000000  0.5064690000000  0.5564960000000 1.0
C      1  0.4574180000000  0.4331480000000  0.4658320000000 1.0
C      1  0.4890380000000  0.4301170000000  0.5529150000000 1.0
C      1  0.5476090000000  0.4286700000000  0.4841090000000 1.0
C      1  0.4430040000000  0.4558630000000  0.5586460000000 1.0
C      1  0.5806770000000  0.4543470000000  0.5191410000000 1.0
C      1  0.4761290000000  0.4581760000000  0.4209050000000 1.0
C      1  0.4727120000000  0.4362300000000  0.4408750000000 1.0
C      1  0.4611260000000  0.4362440000000  0.5462740000000 1.0
C      1  0.5612510000000  0.4344000000000  0.5092730000000 1.0
C      1  0.4803010000000  0.5801280000000  0.5534080000000 1.0
C      1  0.5559540000000  0.5812050000000  0.4907570000000 1.0
C      1  0.4651370000000  0.5815730000000  0.4529680000000 1.0
C      1  0.5356090000000  0.4731440000000  0.4270780000000 1.0
C      1  0.4217420000000  0.4738610000000  0.5021420000000 1.0
C      1  0.5412690000000  0.4726300000000  0.5653000000000 1.0
C      1  0.5059280000000  0.5049660000000  0.5477510000000 1.0
C      1  0.5385680000000  0.5056880000000  0.4781360000000 1.0
C      1  0.4629810000000  0.5105510000000  0.4801900000000 1.0
C      1  0.4558550000000  0.5062100000000  0.5628920000000 1.0
C      1  0.5787030000000  0.5056390000000  0.5080680000000 1.0
C      1  0.4611460000000  0.5105470000000  0.4316520000000 1.0
C      1  0.4939440000000  0.5554100000000  0.5602550000000 1.0
C      1  0.5476800000000  0.5621800000000  0.4700820000000 1.0
C      1  0.4553860000000  0.5565620000000  0.4680310000000 1.0
C      1  0.5388010000000  0.5438120000000  0.4344650000000 1.0
C      1  0.4243010000000  0.5447030000000  0.4906730000000 1.0
C      1  0.5359500000000  0.5436150000000  0.5681140000000 1.0
C      1  0.4695400000000  0.5153060000000  0.5083590000000 1.0
C      1  0.5205940000000  0.5134480000000  0.5237680000000 1.0
C      1  0.5107960000000  0.5139510000000  0.4755320000000 1.0
C      1  0.5105380000000  0.5468220000000  0.5823620000000 1.0
C      1  0.5626620000000  0.5457270000000  0.4502530000000 1.0
C      1  0.4284990000000  0.5425990000000  0.4623040000000 1.0
C      1  0.4482100000000  0.5460730000000  0.5420000000000 1.0
C      1  0.5701950000000  0.5494490000000  0.5325990000000 1.0
C      1  0.4805620000000  0.5465680000000  0.4202610000000 1.0
C      1  0.4837860000000  0.4731500000000  0.5814110000000 1.0
C      1  0.5757740000000  0.4729200000000  0.4732580000000 1.0
C      1  0.4363350000000  0.4738980000000  0.4439020000000 1.0
C      1  0.4520480000000  0.4698700000000  0.5112400000000 1.0
C      1  0.5353480000000  0.4693100000000  0.5358180000000 1.0
C      1  0.5104010000000  0.4717020000000  0.4496150000000 1.0
C      1  0.5203230000000  0.4154480000000  0.4850770000000 1.0
C      1  0.4965300000000  0.4139920000000  0.5017950000000 1.0
C      1  0.5005010000000  0.4136990000000  0.5305060000000 1.0
C      1  0.4937040000000  0.5229190000000  0.5876030000000 1.0
C      1  0.5769500000000  0.5224060000000  0.4617380000000 1.0
C      1  0.4347670000000  0.5200660000000  0.4448420000000 1.0
C      1  0.5168030000000  0.4807040000000  0.4057950000000 1.0
C      1  0.4101410000000  0.4807080000000  0.5280200000000 1.0
C      1  0.5701880000000  0.4778970000000  0.5627540000000 1.0
C      1  0.5357030000000  0.4790210000000  0.4883580000000 1.0
C      1  0.4698810000000  0.4833640000000  0.4742960000000 1.0
C      1  0.4930840000000  0.4804320000000  0.5387900000000 1.0
C      1  0.5107340000000  0.5875110000000  0.4701820000000 1.0
C      1  0.4687410000000  0.5863370000000  0.5003400000000 1.0
C      1  0.5086200000000  0.5953710000000  0.5116990000000 1.0
C      1  0.5673130000000  0.5662430000000  0.5112670000000 1.0
C      1  0.4747510000000  0.5675690000000  0.4316850000000 1.0
C      1  0.4560010000000  0.5672910000000  0.5582700000000 1.0
C      1  0.4844200000000  0.5924440000000  0.5241280000000 1.0
C      1  0.5282550000000  0.5956580000000  0.4921090000000 1.0
C      1  0.4819700000000  0.5915900000000  0.4747870000000 1.0
C      1  0.5785920000000  0.5203650000000  0.5331870000000 1.0
C      1  0.4840320000000  0.5204040000000  0.4145540000000 1.0
C      1  0.4345330000000  0.5204120000000  0.5502300000000 1.0
C      1  0.5257270000000  0.4220900000000  0.5307730000000 1.0
C      1  0.5107220000000  0.4304510000000  0.4651300000000 1.0
C      1  0.4680500000000  0.4221680000000  0.4931120000000 1.0
C      1  0.5000420000000  0.5176170000000  0.5038610000000 1.0
C      1  0.4994300000000  0.5479140000000  0.5057510000000 1.0
END
