TITL C-2441162-9305-1240 0.179831187620463 125000 -21008.2506672174 0 0 172 (C1) n - 1
REM
REM in /home/bkarasulu/work/CARBON/AIRSS/Generating-Clusters/ReaxFF-fromJPCA2015/Units_Real/with-SteepDescent/Higher-Symm
REM
REM
REM
REM
REM
REM ./C.cell (1df0a924f5614ab8850e4351716899ee)
REM
REM compiler GCC version 9.2.1 20190827 (Red Hat 9.2.1-1)
REM options -cpp -mtune=generic -march=x86-64 -g -O0 -fpre-include=/usr/include/finclude/math-vector-fortran.h
REM seed 2142996146 -53572456 774317033 446056986 187029659 -142459484 -203309000 -1693774649 238724844 260283024 93179846 123002461 420019922 1577933740 29960225 -1737107635 291325626 -1874246391 1759165118 -672149987 -692137044 1185144912 -572989534 -1771318038 -726019047 -1437580380 438881799 -1241715903 855635264 -363731794 -43282447 -677560522 -661512836
REM
CELL 1.54180   50.00000   50.00000   50.00000   90.00000   90.00000   90.00000
LATT -1
SFAC C  
C      1  0.4126000000000  0.5390810000000  0.4730000000000 1.0
C      1  0.5794310000000  0.5554420000000  0.4717930000000 1.0
C      1  0.5074810000000  0.4025960000000  0.4720740000000 1.0
C      1  0.5270620000000  0.5997150000000  0.5313860000000 1.0
C      1  0.5733120000000  0.4235630000000  0.5293080000000 1.0
C      1  0.3981460000000  0.4740900000000  0.5326790000000 1.0
C      1  0.5492090000000  0.4647410000000  0.5382720000000 1.0
C      1  0.4470000000000  0.4784510000000  0.5312240000000 1.0
C      1  0.5042830000000  0.5555110000000  0.5340600000000 1.0
C      1  0.4748200000000  0.5887370000000  0.4314170000000 1.0
C      1  0.5902040000000  0.4741180000000  0.4325790000000 1.0
C      1  0.4364470000000  0.4323100000000  0.4298300000000 1.0
C      1  0.4989550000000  0.4622380000000  0.4564530000000 1.0
C      1  0.4657050000000  0.5178050000000  0.4551420000000 1.0
C      1  0.5341710000000  0.5181080000000  0.4559290000000 1.0
C      1  0.4183560000000  0.4965770000000  0.5352690000000 1.0
C      1  0.5419030000000  0.5751010000000  0.5388390000000 1.0
C      1  0.5446170000000  0.4232980000000  0.5386940000000 1.0
C      1  0.5242420000000  0.3940010000000  0.5113930000000 1.0
C      1  0.3978720000000  0.5362840000000  0.5185420000000 1.0
C      1  0.5786980000000  0.5743080000000  0.5116400000000 1.0
C      1  0.5028800000000  0.5359540000000  0.5804730000000 1.0
C      1  0.5299750000000  0.4771640000000  0.5839560000000 1.0
C      1  0.4684340000000  0.4847360000000  0.5847450000000 1.0
C      1  0.5106510000000  0.5575610000000  0.4003870000000 1.0
C      1  0.5454110000000  0.4622380000000  0.4016380000000 1.0
C      1  0.4458010000000  0.4804930000000  0.4025440000000 1.0
C      1  0.5826530000000  0.5018340000000  0.4972520000000 1.0
C      1  0.4573630000000  0.4257180000000  0.4957230000000 1.0
C      1  0.4579310000000  0.5787510000000  0.4965610000000 1.0
C      1  0.5692220000000  0.5182550000000  0.4372000000000 1.0
C      1  0.4830150000000  0.4310610000000  0.4350640000000 1.0
C      1  0.4488860000000  0.5491580000000  0.4363030000000 1.0
C      1  0.5078280000000  0.4790300000000  0.6044360000000 1.0
C      1  0.4817080000000  0.5008450000000  0.6075870000000 1.0
C      1  0.5081380000000  0.5206480000000  0.6055430000000 1.0
C      1  0.6013940000000  0.5365260000000  0.5155640000000 1.0
C      1  0.4778600000000  0.3953490000000  0.5156920000000 1.0
C      1  0.4202460000000  0.5698540000000  0.5171230000000 1.0
C      1  0.5968650000000  0.5107770000000  0.4746800000000 1.0
C      1  0.4610610000000  0.4096440000000  0.4733630000000 1.0
C      1  0.4412990000000  0.5768520000000  0.4744190000000 1.0
C      1  0.5061750000000  0.5285930000000  0.3979290000000 1.0
C      1  0.5225860000000  0.4804340000000  0.3985210000000 1.0
C      1  0.4735860000000  0.4905130000000  0.3975000000000 1.0
C      1  0.5841070000000  0.4968390000000  0.4522240000000 1.0
C      1  0.4578570000000  0.4283410000000  0.4501040000000 1.0
C      1  0.4600850000000  0.5718160000000  0.4518580000000 1.0
C      1  0.5127210000000  0.5761300000000  0.5678540000000 1.0
C      1  0.5618760000000  0.4529230000000  0.5624520000000 1.0
C      1  0.4257720000000  0.4739360000000  0.5705500000000 1.0
C      1  0.5952400000000  0.4828610000000  0.5324530000000 1.0
C      1  0.4351670000000  0.4303610000000  0.5331390000000 1.0
C      1  0.4706920000000  0.5936650000000  0.5336070000000 1.0
C      1  0.4543920000000  0.4123390000000  0.5199850000000 1.0
C      1  0.4456960000000  0.5833330000000  0.5215500000000 1.0
C      1  0.5997010000000  0.5077200000000  0.5195470000000 1.0
C      1  0.4657130000000  0.5509920000000  0.5653230000000 1.0
C      1  0.5609990000000  0.5055830000000  0.5651060000000 1.0
C      1  0.4730140000000  0.4453670000000  0.5662770000000 1.0
C      1  0.5744110000000  0.4969400000000  0.5859300000000 1.0
C      1  0.4587950000000  0.4373530000000  0.5859670000000 1.0
C      1  0.4668720000000  0.5671650000000  0.5860160000000 1.0
C      1  0.5708080000000  0.4709370000000  0.4686050000000 1.0
C      1  0.4448530000000  0.4551940000000  0.4645720000000 1.0
C      1  0.4890380000000  0.5717480000000  0.4657060000000 1.0
C      1  0.5043150000000  0.4146300000000  0.4446740000000 1.0
C      1  0.4248740000000  0.5376810000000  0.4471480000000 1.0
C      1  0.5719840000000  0.5459640000000  0.4450720000000 1.0
C      1  0.4856410000000  0.4791270000000  0.5016600000000 1.0
C      1  0.4889250000000  0.5247140000000  0.4988370000000 1.0
C      1  0.5268170000000  0.4967780000000  0.4997000000000 1.0
C      1  0.5026640000000  0.4123290000000  0.5557470000000 1.0
C      1  0.4243440000000  0.5375130000000  0.5602620000000 1.0
C      1  0.5730030000000  0.5472970000000  0.5561530000000 1.0
C      1  0.5562330000000  0.4245740000000  0.4821600000000 1.0
C      1  0.4048170000000  0.4837370000000  0.4808070000000 1.0
C      1  0.5351140000000  0.5883720000000  0.4823120000000 1.0
C      1  0.5651680000000  0.4909990000000  0.5401030000000 1.0
C      1  0.4579000000000  0.4508150000000  0.5416920000000 1.0
C      1  0.4751180000000  0.5609980000000  0.5401370000000 1.0
C      1  0.4411520000000  0.5559790000000  0.5752700000000 1.0
C      1  0.5803070000000  0.5230890000000  0.5709140000000 1.0
C      1  0.4783760000000  0.4196440000000  0.5711700000000 1.0
C      1  0.4941910000000  0.5709050000000  0.4197850000000 1.0
C      1  0.5647940000000  0.4724560000000  0.4201630000000 1.0
C      1  0.4418720000000  0.4576060000000  0.4197730000000 1.0
C      1  0.5451340000000  0.5427570000000  0.4993950000000 1.0
C      1  0.5131200000000  0.4396400000000  0.4999860000000 1.0
C      1  0.4390950000000  0.5171510000000  0.5001010000000 1.0
C      1  0.5032720000000  0.4670800000000  0.5413120000000 1.0
C      1  0.4744280000000  0.5151530000000  0.5399500000000 1.0
C      1  0.5254640000000  0.5128020000000  0.5400970000000 1.0
C      1  0.4605150000000  0.5387900000000  0.5289450000000 1.0
C      1  0.5513980000000  0.5127090000000  0.5285390000000 1.0
C      1  0.4842940000000  0.4488670000000  0.5292930000000 1.0
C      1  0.5856180000000  0.4447060000000  0.5453200000000 1.0
C      1  0.4141400000000  0.4580630000000  0.5505520000000 1.0
C      1  0.5052390000000  0.5959720000000  0.5496450000000 1.0
C      1  0.5027090000000  0.5269320000000  0.5257010000000 1.0
C      1  0.5163580000000  0.4877150000000  0.5251820000000 1.0
C      1  0.4710710000000  0.4920060000000  0.5228930000000 1.0
C      1  0.5422240000000  0.5110100000000  0.4295390000000 1.0
C      1  0.4886150000000  0.4585980000000  0.4298490000000 1.0
C      1  0.4676780000000  0.5287400000000  0.4288610000000 1.0
C      1  0.5116080000000  0.5904160000000  0.4632630000000 1.0
C      1  0.5717380000000  0.4426650000000  0.4642030000000 1.0
C      1  0.4164810000000  0.4623370000000  0.4623660000000 1.0
C      1  0.4615860000000  0.5332130000000  0.5017040000000 1.0
C      1  0.5496280000000  0.5155760000000  0.5013640000000 1.0
C      1  0.4899780000000  0.4516650000000  0.5036250000000 1.0
C      1  0.4569060000000  0.4917280000000  0.4632500000000 1.0
C      1  0.5179860000000  0.5421820000000  0.4585260000000 1.0
C      1  0.5279140000000  0.4627070000000  0.4589800000000 1.0
C      1  0.5584840000000  0.4722620000000  0.5854000000000 1.0
C      1  0.4469790000000  0.4646950000000  0.5879480000000 1.0
C      1  0.4958790000000  0.5634030000000  0.5871640000000 1.0
C      1  0.5269800000000  0.5088070000000  0.4042500000000 1.0
C      1  0.4949010000000  0.4723690000000  0.4042580000000 1.0
C      1  0.4793460000000  0.5182670000000  0.4036190000000 1.0
C      1  0.5363970000000  0.4482170000000  0.4876870000000 1.0
C      1  0.4376840000000  0.4929930000000  0.4863300000000 1.0
C      1  0.5264830000000  0.5575790000000  0.4867520000000 1.0
C      1  0.5305800000000  0.4209240000000  0.4354010000000 1.0
C      1  0.4166740000000  0.5136320000000  0.4358020000000 1.0
C      1  0.5536330000000  0.5636150000000  0.4340520000000 1.0
C      1  0.4170690000000  0.4532120000000  0.4348320000000 1.0
C      1  0.5033740000000  0.5950010000000  0.4353130000000 1.0
C      1  0.5758120000000  0.4474970000000  0.4339950000000 1.0
C      1  0.4097730000000  0.5515050000000  0.5387880000000 1.0
C      1  0.5899430000000  0.5562590000000  0.5334050000000 1.0
C      1  0.5016240000000  0.3943780000000  0.5318890000000 1.0
C      1  0.5268600000000  0.4281660000000  0.5606860000000 1.0
C      1  0.4264040000000  0.5075800000000  0.5618250000000 1.0
C      1  0.5458190000000  0.5571970000000  0.5614520000000 1.0
C      1  0.4161140000000  0.4417430000000  0.5133950000000 1.0
C      1  0.4895820000000  0.6041510000000  0.5138040000000 1.0
C      1  0.5962940000000  0.4571140000000  0.5183680000000 1.0
C      1  0.4825370000000  0.3957680000000  0.4862660000000 1.0
C      1  0.4202050000000  0.5631610000000  0.4876000000000 1.0
C      1  0.5974940000000  0.5370440000000  0.4860990000000 1.0
C      1  0.4837740000000  0.4812350000000  0.4717780000000 1.0
C      1  0.4910910000000  0.5241030000000  0.4689630000000 1.0
C      1  0.5250240000000  0.4948670000000  0.4700670000000 1.0
C      1  0.4586150000000  0.5084270000000  0.5697790000000 1.0
C      1  0.5287110000000  0.5304390000000  0.5680320000000 1.0
C      1  0.5154270000000  0.4566380000000  0.5674000000000 1.0
C      1  0.4394070000000  0.5003010000000  0.4229680000000 1.0
C      1  0.5308260000000  0.5506570000000  0.4336680000000 1.0
C      1  0.5275130000000  0.4479170000000  0.4335420000000 1.0
C      1  0.4985750000000  0.4532370000000  0.5977340000000 1.0
C      1  0.4641330000000  0.5237520000000  0.5965470000000 1.0
C      1  0.5362310000000  0.5188150000000  0.5976170000000 1.0
C      1  0.5818260000000  0.4357700000000  0.5042420000000 1.0
C      1  0.3995260000000  0.4640080000000  0.5048940000000 1.0
C      1  0.5166420000000  0.6037400000000  0.5035100000000 1.0
C      1  0.5677640000000  0.4778940000000  0.4946320000000 1.0
C      1  0.4515610000000  0.4506740000000  0.4903660000000 1.0
C      1  0.4841620000000  0.5692280000000  0.4926260000000 1.0
C      1  0.5533970000000  0.5598460000000  0.5182810000000 1.0
C      1  0.5256120000000  0.4227820000000  0.5176380000000 1.0
C      1  0.4120910000000  0.5170150000000  0.5108190000000 1.0
C      1  0.5062980000000  0.5632940000000  0.5068940000000 1.0
C      1  0.5508570000000  0.4624340000000  0.5102560000000 1.0
C      1  0.4400510000000  0.4699100000000  0.5045590000000 1.0
C      1  0.5463880000000  0.4361540000000  0.4164560000000 1.0
C      1  0.4172750000000  0.5001860000000  0.4114740000000 1.0
C      1  0.5373210000000  0.5651920000000  0.4103310000000 1.0
C      1  0.5669000000000  0.5781840000000  0.4850610000000 1.0
C      1  0.5337650000000  0.4022030000000  0.4847250000000 1.0
C      1  0.4010230000000  0.5144220000000  0.4850270000000 1.0
C      1  0.4998150000000  0.4996260000000  0.4642110000000 1.0
END
