TITL C-2441167-4473-1000 0.0675203977733661 125000 -21457.0709601359 0 0 152 (C1) n - 1
REM
REM in /home/bkarasulu/work/CARBON/AIRSS/Generating-Clusters/ReaxFF-fromJPCA2015/Units_Real/with-SteepDescent/Higher-Symm
REM
REM
REM
REM
REM
REM ./C.cell (1df0a924f5614ab8850e4351716899ee)
REM
REM compiler GCC version 9.2.1 20190827 (Red Hat 9.2.1-1)
REM options -cpp -mtune=generic -march=x86-64 -g -O0 -fpre-include=/usr/include/finclude/math-vector-fortran.h
REM seed -1526454769 1822300717 -1147993581 1279314230 -98770847 -611560487 -495874318 -1015587770 1907179881 -686990731 1139504972 91750176 793253849 -1609302357 -1168913204 30762025 2115242150 1221360114 173246045 1879964781 401016341 487124108 1367462934 -1816813193 -1727322803 -310417689 2105656748 -1030202556 -820386416 100164702 998619832 -1753379054 1046061667
REM
CELL 1.54180   50.00000   50.00000   50.00000   90.00000   90.00000   90.00000
LATT -1
SFAC C  
C      1  0.4600010000000  0.4084340000000  0.5293710000000 1.0
C      1  0.4586180000000  0.5023070000000  0.5990540000000 1.0
C      1  0.4569720000000  0.5932150000000  0.5310080000000 1.0
C      1  0.4590380000000  0.5566900000000  0.4196950000000 1.0
C      1  0.4586400000000  0.4423080000000  0.4252200000000 1.0
C      1  0.5523530000000  0.5218450000000  0.5146920000000 1.0
C      1  0.5601070000000  0.5169560000000  0.4821600000000 1.0
C      1  0.5516700000000  0.4904740000000  0.4707030000000 1.0
C      1  0.5490590000000  0.4720680000000  0.4999880000000 1.0
C      1  0.5490430000000  0.4903290000000  0.5267720000000 1.0
C      1  0.5938370000000  0.4974100000000  0.4473550000000 1.0
C      1  0.5960140000000  0.4488310000000  0.4837520000000 1.0
C      1  0.5941760000000  0.4712130000000  0.5449560000000 1.0
C      1  0.5940040000000  0.5323860000000  0.5414880000000 1.0
C      1  0.5937580000000  0.5489280000000  0.4862970000000 1.0
C      1  0.4400480000000  0.4628090000000  0.4307320000000 1.0
C      1  0.4419910000000  0.4222370000000  0.5127190000000 1.0
C      1  0.4483490000000  0.4951020000000  0.5739580000000 1.0
C      1  0.4412470000000  0.5711780000000  0.5358490000000 1.0
C      1  0.4404790000000  0.5562620000000  0.4407760000000 1.0
C      1  0.4894470000000  0.5306580000000  0.5973910000000 1.0
C      1  0.4884030000000  0.6004690000000  0.5021530000000 1.0
C      1  0.4841920000000  0.5224180000000  0.4081930000000 1.0
C      1  0.4918690000000  0.4212440000000  0.4380720000000 1.0
C      1  0.4945780000000  0.4129670000000  0.5593960000000 1.0
C      1  0.5079350000000  0.5616520000000  0.5616020000000 1.0
C      1  0.5027940000000  0.5838450000000  0.4613730000000 1.0
C      1  0.5072120000000  0.4883910000000  0.4113360000000 1.0
C      1  0.5152190000000  0.4117420000000  0.4852170000000 1.0
C      1  0.5036840000000  0.4576260000000  0.5760370000000 1.0
C      1  0.4075070000000  0.4722310000000  0.4668340000000 1.0
C      1  0.4084460000000  0.4594040000000  0.5159210000000 1.0
C      1  0.4124990000000  0.5015500000000  0.5446460000000 1.0
C      1  0.4115150000000  0.5395740000000  0.5120050000000 1.0
C      1  0.4080990000000  0.5235960000000  0.4617280000000 1.0
C      1  0.4724660000000  0.5181420000000  0.4588760000000 1.0
C      1  0.4835960000000  0.4571540000000  0.4779710000000 1.0
C      1  0.4804540000000  0.4660580000000  0.5279600000000 1.0
C      1  0.4703540000000  0.5076500000000  0.5482690000000 1.0
C      1  0.4765590000000  0.5429220000000  0.5011180000000 1.0
C      1  0.5200140000000  0.4914810000000  0.4747150000000 1.0
C      1  0.5199800000000  0.4786770000000  0.5003080000000 1.0
C      1  0.5191460000000  0.4987470000000  0.5211710000000 1.0
C      1  0.5234760000000  0.5241670000000  0.5068060000000 1.0
C      1  0.5200300000000  0.5205950000000  0.4781670000000 1.0
C      1  0.4819220000000  0.4510210000000  0.4113740000000 1.0
C      1  0.4857350000000  0.4038060000000  0.5181810000000 1.0
C      1  0.4827500000000  0.4869880000000  0.6032580000000 1.0
C      1  0.4820040000000  0.5953910000000  0.5444610000000 1.0
C      1  0.4843350000000  0.5701000000000  0.4237870000000 1.0
C      1  0.4957770000000  0.5411850000000  0.5246120000000 1.0
C      1  0.4919980000000  0.5234380000000  0.4787800000000 1.0
C      1  0.4985340000000  0.4775090000000  0.4560890000000 1.0
C      1  0.4998120000000  0.4563610000000  0.5042510000000 1.0
C      1  0.4969460000000  0.4905530000000  0.5414550000000 1.0
C      1  0.6037510000000  0.4768960000000  0.4921320000000 1.0
C      1  0.6038150000000  0.4848290000000  0.5201130000000 1.0
C      1  0.6050990000000  0.5135950000000  0.5213160000000 1.0
C      1  0.6062740000000  0.5234510000000  0.4938610000000 1.0
C      1  0.6041190000000  0.5002550000000  0.4755590000000 1.0
C      1  0.5072560000000  0.4380570000000  0.4205930000000 1.0
C      1  0.5098560000000  0.4060500000000  0.5351850000000 1.0
C      1  0.5049520000000  0.5066420000000  0.6026600000000 1.0
C      1  0.5042720000000  0.6014690000000  0.5260990000000 1.0
C      1  0.5116800000000  0.5594620000000  0.4231910000000 1.0
C      1  0.4867330000000  0.4081540000000  0.4896910000000 1.0
C      1  0.4778640000000  0.4627540000000  0.5884350000000 1.0
C      1  0.4821220000000  0.5736340000000  0.5629480000000 1.0
C      1  0.4774770000000  0.5856700000000  0.4472660000000 1.0
C      1  0.4801560000000  0.4791740000000  0.4064720000000 1.0
C      1  0.5875970000000  0.4902570000000  0.5649050000000 1.0
C      1  0.5890580000000  0.5578440000000  0.5299360000000 1.0
C      1  0.5770410000000  0.5350700000000  0.4666210000000 1.0
C      1  0.5885840000000  0.4708430000000  0.4414560000000 1.0
C      1  0.5900370000000  0.4322830000000  0.5053450000000 1.0
C      1  0.4535980000000  0.5233050000000  0.5014170000000 1.0
C      1  0.4513680000000  0.5091450000000  0.4766070000000 1.0
C      1  0.4609330000000  0.4811250000000  0.4865460000000 1.0
C      1  0.4559880000000  0.4776790000000  0.5155230000000 1.0
C      1  0.4537430000000  0.5052940000000  0.5232340000000 1.0
C      1  0.5312210000000  0.4312700000000  0.4385100000000 1.0
C      1  0.5315800000000  0.4241240000000  0.5450790000000 1.0
C      1  0.5271980000000  0.5180390000000  0.5865970000000 1.0
C      1  0.5257920000000  0.5832950000000  0.5142770000000 1.0
C      1  0.5293720000000  0.5377550000000  0.4174060000000 1.0
C      1  0.4582290000000  0.5311710000000  0.4079010000000 1.0
C      1  0.4626940000000  0.4219590000000  0.4467020000000 1.0
C      1  0.4678490000000  0.4214000000000  0.5535180000000 1.0
C      1  0.4599430000000  0.5304380000000  0.5955190000000 1.0
C      1  0.4591030000000  0.5979200000000  0.5035730000000 1.0
C      1  0.4171480000000  0.4330850000000  0.5107520000000 1.0
C      1  0.4263190000000  0.5133590000000  0.5660550000000 1.0
C      1  0.4285600000000  0.5638610000000  0.5116520000000 1.0
C      1  0.4274360000000  0.5311950000000  0.4417030000000 1.0
C      1  0.4255850000000  0.4551150000000  0.4533100000000 1.0
C      1  0.5559170000000  0.4213190000000  0.4847520000000 1.0
C      1  0.5576850000000  0.4618680000000  0.5705490000000 1.0
C      1  0.5592510000000  0.5530430000000  0.5583470000000 1.0
C      1  0.5630520000000  0.5747140000000  0.4660580000000 1.0
C      1  0.5591760000000  0.4874480000000  0.4181480000000 1.0
C      1  0.5426190000000  0.4838800000000  0.4420170000000 1.0
C      1  0.5419700000000  0.4442510000000  0.4972260000000 1.0
C      1  0.5403190000000  0.4775460000000  0.5525450000000 1.0
C      1  0.5448250000000  0.5412210000000  0.5361060000000 1.0
C      1  0.5372500000000  0.5643380000000  0.4688810000000 1.0
C      1  0.5557740000000  0.5124640000000  0.5802210000000 1.0
C      1  0.5578490000000  0.5810640000000  0.5146890000000 1.0
C      1  0.5567910000000  0.5346160000000  0.4275210000000 1.0
C      1  0.5590830000000  0.4408830000000  0.4420150000000 1.0
C      1  0.5596670000000  0.4278750000000  0.5370870000000 1.0
C      1  0.4767010000000  0.4942350000000  0.4448890000000 1.0
C      1  0.4724210000000  0.4302260000000  0.4760500000000 1.0
C      1  0.4626080000000  0.4482050000000  0.5439680000000 1.0
C      1  0.4775060000000  0.5357550000000  0.5465870000000 1.0
C      1  0.4722240000000  0.5608410000000  0.4788800000000 1.0
C      1  0.5684520000000  0.4860460000000  0.5850120000000 1.0
C      1  0.5701350000000  0.5757520000000  0.5405210000000 1.0
C      1  0.5696650000000  0.5543080000000  0.4450080000000 1.0
C      1  0.5715370000000  0.4597730000000  0.4227560000000 1.0
C      1  0.5692000000000  0.4151830000000  0.5116210000000 1.0
C      1  0.3947190000000  0.4979370000000  0.4604910000000 1.0
C      1  0.3976160000000  0.4733940000000  0.4935320000000 1.0
C      1  0.4171860000000  0.4728320000000  0.5391290000000 1.0
C      1  0.4102150000000  0.5205200000000  0.5287020000000 1.0
C      1  0.3996050000000  0.5268250000000  0.4895140000000 1.0
C      1  0.5107330000000  0.5416390000000  0.5813010000000 1.0
C      1  0.5081350000000  0.5843490000000  0.4891650000000 1.0
C      1  0.5103820000000  0.5170810000000  0.4101170000000 1.0
C      1  0.5138890000000  0.4165320000000  0.4558320000000 1.0
C      1  0.5141980000000  0.4324090000000  0.5671210000000 1.0
C      1  0.4518610000000  0.5738380000000  0.4622800000000 1.0
C      1  0.4545600000000  0.4888570000000  0.4250780000000 1.0
C      1  0.4288080000000  0.4208250000000  0.4884930000000 1.0
C      1  0.4503500000000  0.4669000000000  0.5780560000000 1.0
C      1  0.4561770000000  0.5550430000000  0.5562970000000 1.0
C      1  0.5751840000000  0.5295790000000  0.5657490000000 1.0
C      1  0.5760840000000  0.5724120000000  0.4934770000000 1.0
C      1  0.5741480000000  0.5107400000000  0.4276560000000 1.0
C      1  0.5743620000000  0.4357410000000  0.4667640000000 1.0
C      1  0.5750770000000  0.4485270000000  0.5513210000000 1.0
C      1  0.4413120000000  0.5368480000000  0.5745660000000 1.0
C      1  0.4391540000000  0.5813150000000  0.4910130000000 1.0
C      1  0.4400370000000  0.5146710000000  0.4218370000000 1.0
C      1  0.4351520000000  0.4305810000000  0.4625160000000 1.0
C      1  0.4374990000000  0.4584910000000  0.5540920000000 1.0
C      1  0.5157380000000  0.5610780000000  0.4512440000000 1.0
C      1  0.5173530000000  0.4729910000000  0.4339830000000 1.0
C      1  0.5180490000000  0.4329460000000  0.5060750000000 1.0
C      1  0.5137600000000  0.4790580000000  0.5610750000000 1.0
C      1  0.5187710000000  0.5569070000000  0.5341840000000 1.0
C      1  0.4860830000000  0.4968650000000  0.4952030000000 1.0
C      1  0.3862190000000  0.5002760000000  0.4884710000000 1.0
END
