TITL C-2441154-10-92 0.0030028245070814 125000 -3916.05373655715 0 0 30 (C1) n - 1
REM
REM in /home/bkarasulu/work/CARBON/AIRSS/Generating-Clusters/ReaxFF-fromJPCA2015/Units_Real/with-SteepDescent/Higher-Symm
REM
REM
REM
REM
REM
REM ./C.cell (1df0a924f5614ab8850e4351716899ee)
REM
REM compiler GCC version 9.2.1 20190827 (Red Hat 9.2.1-1)
REM options -cpp -mtune=generic -march=x86-64 -g -O0 -fpre-include=/usr/include/finclude/math-vector-fortran.h
REM seed -282351665 598911727 164239243 765157452 -1476726343 -430200065 -400430865 1051522228 803935605 -1006279824 198162885 -945153429 -1408475946 -946063968 -1317132969 685316303 868811069 -10323998 -1667542858 -1595119835 980166031 272845910 -746632749 -2008556739 -636094208 -1061816950 746225877 -204998915 -1400875336 -35666798 865905438 -1609429715 114339172
REM
CELL 1.54180   50.00000   50.00000   50.00000   90.00000   90.00000   90.00000
LATT -1
SFAC C  
C      1  0.4463940000000  0.4813480000000  0.5374300000000 1.0
C      1  0.4459710000000  0.4813190000000  0.4646470000000 1.0
C      1  0.5191800000000  0.4791470000000  0.4420360000000 1.0
C      1  0.5560830000000  0.4798580000000  0.5006130000000 1.0
C      1  0.5180680000000  0.4697920000000  0.5490380000000 1.0
C      1  0.4927180000000  0.5239510000000  0.4420040000000 1.0
C      1  0.5520960000000  0.5257270000000  0.4741840000000 1.0
C      1  0.5463420000000  0.5257840000000  0.5402970000000 1.0
C      1  0.4696330000000  0.5274060000000  0.5501770000000 1.0
C      1  0.4386520000000  0.5277030000000  0.4904620000000 1.0
C      1  0.4327690000000  0.5019020000000  0.4874600000000 1.0
C      1  0.4977910000000  0.4969960000000  0.4342430000000 1.0
C      1  0.5590270000000  0.5003580000000  0.4738350000000 1.0
C      1  0.5576780000000  0.5019660000000  0.5467060000000 1.0
C      1  0.4576260000000  0.5048660000000  0.5479640000000 1.0
C      1  0.4934340000000  0.4650140000000  0.5472490000000 1.0
C      1  0.4411410000000  0.4807100000000  0.5070360000000 1.0
C      1  0.4694530000000  0.4743880000000  0.4521590000000 1.0
C      1  0.5429860000000  0.4787130000000  0.4599870000000 1.0
C      1  0.5618450000000  0.4805740000000  0.5292220000000 1.0
C      1  0.4948440000000  0.4764150000000  0.4541330000000 1.0
C      1  0.5430750000000  0.4642970000000  0.4838550000000 1.0
C      1  0.5444440000000  0.4751550000000  0.5508450000000 1.0
C      1  0.4686390000000  0.4661180000000  0.5445300000000 1.0
C      1  0.4545940000000  0.4672510000000  0.4868020000000 1.0
C      1  0.5456830000000  0.5492010000000  0.4745060000000 1.0
C      1  0.5361850000000  0.5471240000000  0.5345550000000 1.0
C      1  0.4811590000000  0.5490320000000  0.5522940000000 1.0
C      1  0.4440310000000  0.5512910000000  0.4932060000000 1.0
C      1  0.4884570000000  0.5465930000000  0.4485230000000 1.0
END
