TITL C-2441161-5029-311 0.127523374186395 125000 -23083.5754085602 0 0 176 (C1) n - 1
REM
REM in /home/bkarasulu/work/CARBON/AIRSS/Generating-Clusters/ReaxFF-fromJPCA2015/Units_Real/with-SteepDescent/Higher-Symm
REM
REM
REM
REM
REM
REM ./C.cell (1df0a924f5614ab8850e4351716899ee)
REM
REM compiler GCC version 9.2.1 20190827 (Red Hat 9.2.1-1)
REM options -cpp -mtune=generic -march=x86-64 -g -O0 -fpre-include=/usr/include/finclude/math-vector-fortran.h
REM seed -27327189 141979456 1247274665 187063209 45529096 6706889 -1004035404 -321213641 559495264 -612360700 1577935196 -552977449 1996432170 -1844111715 245291868 1579357853 -758358101 2109005139 -1479273235 -433060836 920295048 266536656 511667932 165353202 646601919 -639253162 834052168 1180763389 -1013581217 1196997243 -344760925 -47074105 -1915391080
REM
CELL 1.54180   50.00000   50.00000   50.00000   90.00000   90.00000   90.00000
LATT -1
SFAC C  
C      1  0.5144060000000  0.4717110000000  0.4186550000000 1.0
C      1  0.5162240000000  0.5271120000000  0.5800220000000 1.0
C      1  0.4828130000000  0.4715260000000  0.4184480000000 1.0
C      1  0.4837660000000  0.5269200000000  0.5794980000000 1.0
C      1  0.5167570000000  0.5278390000000  0.4173920000000 1.0
C      1  0.5154100000000  0.4715390000000  0.5835870000000 1.0
C      1  0.4851800000000  0.5280160000000  0.4185880000000 1.0
C      1  0.4853090000000  0.4717140000000  0.5829730000000 1.0
C      1  0.5519040000000  0.5745930000000  0.5582380000000 1.0
C      1  0.5522870000000  0.4256030000000  0.4421870000000 1.0
C      1  0.4471350000000  0.5754100000000  0.5581650000000 1.0
C      1  0.4477490000000  0.4255810000000  0.4419880000000 1.0
C      1  0.5520790000000  0.4255990000000  0.5581880000000 1.0
C      1  0.5512800000000  0.5757890000000  0.4420170000000 1.0
C      1  0.4480660000000  0.4255860000000  0.5577370000000 1.0
C      1  0.4493190000000  0.5758620000000  0.4410280000000 1.0
C      1  0.4702450000000  0.4852440000000  0.3960190000000 1.0
C      1  0.4708560000000  0.5146630000000  0.6031330000000 1.0
C      1  0.5295210000000  0.4847590000000  0.3960530000000 1.0
C      1  0.5291540000000  0.5148590000000  0.6036120000000 1.0
C      1  0.4706840000000  0.5152910000000  0.3962250000000 1.0
C      1  0.4703740000000  0.4845770000000  0.6042480000000 1.0
C      1  0.5296170000000  0.5147650000000  0.3960860000000 1.0
C      1  0.5298670000000  0.4847850000000  0.6047730000000 1.0
C      1  0.5561010000000  0.4091100000000  0.5144790000000 1.0
C      1  0.5560690000000  0.5904620000000  0.4856750000000 1.0
C      1  0.4442080000000  0.4089550000000  0.5144870000000 1.0
C      1  0.4409030000000  0.5861950000000  0.4834780000000 1.0
C      1  0.5561760000000  0.5907100000000  0.5147270000000 1.0
C      1  0.5557530000000  0.4091630000000  0.4854210000000 1.0
C      1  0.4432760000000  0.5893810000000  0.5125660000000 1.0
C      1  0.4438850000000  0.4091100000000  0.4854030000000 1.0
C      1  0.4561410000000  0.4857570000000  0.4714010000000 1.0
C      1  0.4590010000000  0.5135480000000  0.5323640000000 1.0
C      1  0.5468210000000  0.4870220000000  0.4746340000000 1.0
C      1  0.5406040000000  0.5141030000000  0.5322820000000 1.0
C      1  0.4534690000000  0.5141190000000  0.4749470000000 1.0
C      1  0.4536270000000  0.4881290000000  0.5236390000000 1.0
C      1  0.5410560000000  0.5140770000000  0.4699930000000 1.0
C      1  0.5451960000000  0.4870330000000  0.5258470000000 1.0
C      1  0.5137450000000  0.5939760000000  0.4837310000000 1.0
C      1  0.5145040000000  0.4059730000000  0.5170520000000 1.0
C      1  0.4850540000000  0.5938550000000  0.4832650000000 1.0
C      1  0.4859270000000  0.4061540000000  0.5166200000000 1.0
C      1  0.5141090000000  0.4061750000000  0.4830340000000 1.0
C      1  0.5140820000000  0.5939680000000  0.5163250000000 1.0
C      1  0.4855370000000  0.4059440000000  0.4827590000000 1.0
C      1  0.4849020000000  0.5940060000000  0.5155460000000 1.0
C      1  0.5371810000000  0.4074310000000  0.5353640000000 1.0
C      1  0.5367470000000  0.5931250000000  0.4654070000000 1.0
C      1  0.4632880000000  0.4075710000000  0.5351500000000 1.0
C      1  0.4620670000000  0.5918890000000  0.4648060000000 1.0
C      1  0.5365990000000  0.5923620000000  0.5351750000000 1.0
C      1  0.5368030000000  0.4075890000000  0.4645840000000 1.0
C      1  0.4617760000000  0.5924800000000  0.5335370000000 1.0
C      1  0.4628140000000  0.4073240000000  0.4644850000000 1.0
C      1  0.5137490000000  0.4268820000000  0.4263640000000 1.0
C      1  0.5141270000000  0.5731280000000  0.5722840000000 1.0
C      1  0.4858620000000  0.4268140000000  0.4273330000000 1.0
C      1  0.4864820000000  0.5729150000000  0.5723500000000 1.0
C      1  0.5145890000000  0.5728430000000  0.4262490000000 1.0
C      1  0.5140990000000  0.4278130000000  0.5727410000000 1.0
C      1  0.4870100000000  0.5734340000000  0.4259750000000 1.0
C      1  0.4865720000000  0.4273910000000  0.5731250000000 1.0
C      1  0.5258820000000  0.5114160000000  0.5567030000000 1.0
C      1  0.5225340000000  0.4849990000000  0.4445890000000 1.0
C      1  0.4755280000000  0.5110270000000  0.5557220000000 1.0
C      1  0.4744890000000  0.4875220000000  0.4464750000000 1.0
C      1  0.5161030000000  0.4849200000000  0.5538960000000 1.0
C      1  0.5253150000000  0.5112110000000  0.4450760000000 1.0
C      1  0.4867670000000  0.4851110000000  0.5546340000000 1.0
C      1  0.4770610000000  0.5142780000000  0.4446670000000 1.0
C      1  0.4731430000000  0.5554510000000  0.4067330000000 1.0
C      1  0.4724800000000  0.4445200000000  0.5931600000000 1.0
C      1  0.5272830000000  0.5542780000000  0.4064840000000 1.0
C      1  0.5277730000000  0.4448330000000  0.5934380000000 1.0
C      1  0.4719400000000  0.4452220000000  0.4074550000000 1.0
C      1  0.4726540000000  0.5545230000000  0.5911480000000 1.0
C      1  0.5277030000000  0.4445200000000  0.4068250000000 1.0
C      1  0.5272260000000  0.5547350000000  0.5916780000000 1.0
C      1  0.4421090000000  0.4854950000000  0.5960670000000 1.0
C      1  0.4429860000000  0.5150650000000  0.4052670000000 1.0
C      1  0.5580100000000  0.4858080000000  0.5961460000000 1.0
C      1  0.5579510000000  0.5140120000000  0.4034720000000 1.0
C      1  0.4427130000000  0.5141420000000  0.5957950000000 1.0
C      1  0.4419780000000  0.4863620000000  0.4040980000000 1.0
C      1  0.5572550000000  0.5144880000000  0.5958690000000 1.0
C      1  0.5570360000000  0.4855570000000  0.4044270000000 1.0
C      1  0.5136160000000  0.4399240000000  0.5464800000000 1.0
C      1  0.5139090000000  0.5599860000000  0.4523740000000 1.0
C      1  0.4862650000000  0.4394760000000  0.5467450000000 1.0
C      1  0.4869240000000  0.5604440000000  0.4522940000000 1.0
C      1  0.5140130000000  0.5601200000000  0.5466710000000 1.0
C      1  0.5138560000000  0.4399850000000  0.4528400000000 1.0
C      1  0.4868270000000  0.5598600000000  0.5463200000000 1.0
C      1  0.4864700000000  0.4404440000000  0.4531130000000 1.0
C      1  0.4793190000000  0.4744350000000  0.4859550000000 1.0
C      1  0.4820000000000  0.5256270000000  0.5146030000000 1.0
C      1  0.5218750000000  0.4753160000000  0.4841330000000 1.0
C      1  0.5177840000000  0.5258820000000  0.5150090000000 1.0
C      1  0.4785830000000  0.5246440000000  0.4842370000000 1.0
C      1  0.4781590000000  0.4753820000000  0.5158100000000 1.0
C      1  0.5213080000000  0.5263400000000  0.4859940000000 1.0
C      1  0.5213970000000  0.4749910000000  0.5141090000000 1.0
C      1  0.5520280000000  0.5710350000000  0.4121040000000 1.0
C      1  0.5514910000000  0.4303180000000  0.5864430000000 1.0
C      1  0.4494960000000  0.5701480000000  0.4130020000000 1.0
C      1  0.4487980000000  0.4302030000000  0.5860110000000 1.0
C      1  0.5514920000000  0.4303080000000  0.4138600000000 1.0
C      1  0.5511490000000  0.5695910000000  0.5864770000000 1.0
C      1  0.4482790000000  0.4301330000000  0.4137130000000 1.0
C      1  0.4490720000000  0.5701150000000  0.5863570000000 1.0
C      1  0.5914850000000  0.4855350000000  0.5582130000000 1.0
C      1  0.5919980000000  0.5142540000000  0.4411460000000 1.0
C      1  0.4086590000000  0.4855640000000  0.5583140000000 1.0
C      1  0.4090760000000  0.5151770000000  0.4421340000000 1.0
C      1  0.5917390000000  0.5147120000000  0.5588330000000 1.0
C      1  0.5915580000000  0.4851760000000  0.4416330000000 1.0
C      1  0.4082920000000  0.5146720000000  0.5588920000000 1.0
C      1  0.4085120000000  0.4860400000000  0.4414610000000 1.0
C      1  0.4294100000000  0.4733960000000  0.4269040000000 1.0
C      1  0.4295820000000  0.5269820000000  0.5734140000000 1.0
C      1  0.5700080000000  0.4733450000000  0.4266490000000 1.0
C      1  0.5702640000000  0.5269230000000  0.5731990000000 1.0
C      1  0.4301080000000  0.5279680000000  0.4279410000000 1.0
C      1  0.4296950000000  0.4731710000000  0.5728730000000 1.0
C      1  0.5707130000000  0.5269670000000  0.4268160000000 1.0
C      1  0.5703370000000  0.4733030000000  0.5728830000000 1.0
C      1  0.4441980000000  0.5589060000000  0.5158500000000 1.0
C      1  0.4430910000000  0.4396980000000  0.4848930000000 1.0
C      1  0.5563440000000  0.5591980000000  0.5154560000000 1.0
C      1  0.5564950000000  0.4398490000000  0.4847040000000 1.0
C      1  0.4433840000000  0.4397140000000  0.5153880000000 1.0
C      1  0.4439510000000  0.5571200000000  0.4854920000000 1.0
C      1  0.5565140000000  0.4397240000000  0.5151950000000 1.0
C      1  0.5568360000000  0.5599080000000  0.4852110000000 1.0
C      1  0.4065350000000  0.5291120000000  0.4674840000000 1.0
C      1  0.4074430000000  0.4714140000000  0.5331260000000 1.0
C      1  0.5945520000000  0.5283670000000  0.4670150000000 1.0
C      1  0.5922000000000  0.4716010000000  0.5327470000000 1.0
C      1  0.4061640000000  0.4710120000000  0.4664550000000 1.0
C      1  0.4062180000000  0.5291560000000  0.5334580000000 1.0
C      1  0.5929600000000  0.4711500000000  0.4670530000000 1.0
C      1  0.5937290000000  0.5296490000000  0.5337780000000 1.0
C      1  0.5286000000000  0.4491100000000  0.5242930000000 1.0
C      1  0.5279020000000  0.5520270000000  0.4758440000000 1.0
C      1  0.4707410000000  0.4491590000000  0.5254310000000 1.0
C      1  0.4719820000000  0.5505250000000  0.4741830000000 1.0
C      1  0.5279170000000  0.5519700000000  0.5236340000000 1.0
C      1  0.5289470000000  0.4491820000000  0.4749290000000 1.0
C      1  0.4726850000000  0.5515450000000  0.5236150000000 1.0
C      1  0.4721290000000  0.4483760000000  0.4764040000000 1.0
C      1  0.4219040000000  0.4466610000000  0.5345780000000 1.0
C      1  0.4202130000000  0.5542870000000  0.4688570000000 1.0
C      1  0.5778250000000  0.4466610000000  0.5345460000000 1.0
C      1  0.5786950000000  0.5519780000000  0.4673630000000 1.0
C      1  0.4218650000000  0.5537310000000  0.5346610000000 1.0
C      1  0.4214150000000  0.4462600000000  0.4655820000000 1.0
C      1  0.5782490000000  0.5542690000000  0.5346950000000 1.0
C      1  0.5782060000000  0.4465060000000  0.4657030000000 1.0
C      1  0.5769640000000  0.5152910000000  0.5146060000000 1.0
C      1  0.5747210000000  0.4859260000000  0.4849840000000 1.0
C      1  0.4229130000000  0.5147620000000  0.5149570000000 1.0
C      1  0.4234960000000  0.4855990000000  0.4846740000000 1.0
C      1  0.5729440000000  0.4859330000000  0.5156420000000 1.0
C      1  0.5820010000000  0.5133490000000  0.4872440000000 1.0
C      1  0.4255000000000  0.4860640000000  0.5142720000000 1.0
C      1  0.4246720000000  0.5146080000000  0.4858240000000 1.0
C      1  0.5608950000000  0.4531940000000  0.5550830000000 1.0
C      1  0.5623630000000  0.5483340000000  0.4451050000000 1.0
C      1  0.4388310000000  0.4531000000000  0.5550060000000 1.0
C      1  0.4357860000000  0.5505000000000  0.4452930000000 1.0
C      1  0.5617090000000  0.5474380000000  0.5550860000000 1.0
C      1  0.5614080000000  0.4529740000000  0.4451510000000 1.0
C      1  0.4382950000000  0.5474560000000  0.5552370000000 1.0
C      1  0.4382420000000  0.4530060000000  0.4449700000000 1.0
END
