TITL C-2441158-471-1008 0.0275286157099902 125000 -10657.2743309761 0 0 79 (C1) n - 1
REM
REM in /home/bkarasulu/work/CARBON/AIRSS/Generating-Clusters/ReaxFF-fromJPCA2015/Units_Real/with-SteepDescent/Higher-Symm
REM
REM
REM
REM
REM
REM ./C.cell (1df0a924f5614ab8850e4351716899ee)
REM
REM compiler GCC version 9.2.1 20190827 (Red Hat 9.2.1-1)
REM options -cpp -mtune=generic -march=x86-64 -g -O0 -fpre-include=/usr/include/finclude/math-vector-fortran.h
REM seed -203253264 -115400063 1505897982 1578312627 1539500956 -1923828036 -1800230304 -570705474 -1264612130 1432559959 -923418684 -1610372540 -1088712967 -1381888426 989800739 -410315973 490466278 2032892577 1553686810 -897471532 -845441086 885780107 -1059732056 -535521282 -731649341 -657669285 -980747332 -555981704 -1345591147 -1876540444 1437795740 633331609 -1058562392
REM
CELL 1.54180   50.00000   50.00000   50.00000   90.00000   90.00000   90.00000
LATT -1
SFAC C  
C      1  0.4823640000000  0.5566200000000  0.5691070000000 1.0
C      1  0.5191280000000  0.5594360000000  0.4334380000000 1.0
C      1  0.4803600000000  0.5368150000000  0.5198140000000 1.0
C      1  0.5226860000000  0.5345860000000  0.4802280000000 1.0
C      1  0.5639060000000  0.5071630000000  0.4467700000000 1.0
C      1  0.4444210000000  0.5131620000000  0.5546490000000 1.0
C      1  0.4638140000000  0.4344710000000  0.4991380000000 1.0
C      1  0.5367200000000  0.4363700000000  0.5028400000000 1.0
C      1  0.5139070000000  0.4691940000000  0.5275940000000 1.0
C      1  0.4823740000000  0.4632820000000  0.4583270000000 1.0
C      1  0.4226690000000  0.5151610000000  0.5360510000000 1.0
C      1  0.5785020000000  0.5137170000000  0.4668570000000 1.0
C      1  0.4670910000000  0.4816010000000  0.4397110000000 1.0
C      1  0.5357630000000  0.4749910000000  0.5641740000000 1.0
C      1  0.5144770000000  0.5183930000000  0.5007050000000 1.0
C      1  0.4861350000000  0.5191160000000  0.5002510000000 1.0
C      1  0.5903890000000  0.5083050000000  0.4917760000000 1.0
C      1  0.4053660000000  0.5071820000000  0.5131910000000 1.0
C      1  0.5521460000000  0.4488910000000  0.5262930000000 1.0
C      1  0.4463290000000  0.4456990000000  0.4768930000000 1.0
C      1  0.5025500000000  0.4939570000000  0.5405630000000 1.0
C      1  0.5001250000000  0.5011030000000  0.4588140000000 1.0
C      1  0.5527690000000  0.5427280000000  0.5249130000000 1.0
C      1  0.4439410000000  0.5413470000000  0.4727710000000 1.0
C      1  0.5073340000000  0.4452080000000  0.4582960000000 1.0
C      1  0.4919260000000  0.4498980000000  0.5402700000000 1.0
C      1  0.4803660000000  0.4764910000000  0.4970730000000 1.0
C      1  0.5088070000000  0.4726430000000  0.4989780000000 1.0
C      1  0.4646430000000  0.4697200000000  0.5648860000000 1.0
C      1  0.5369450000000  0.4727990000000  0.4354030000000 1.0
C      1  0.5803050000000  0.4833700000000  0.5040620000000 1.0
C      1  0.4178500000000  0.4817950000000  0.4969200000000 1.0
C      1  0.4416050000000  0.4897050000000  0.5101210000000 1.0
C      1  0.5541750000000  0.4878300000000  0.4931670000000 1.0
C      1  0.4897540000000  0.4227860000000  0.4638370000000 1.0
C      1  0.5138020000000  0.4308500000000  0.5408580000000 1.0
C      1  0.5318190000000  0.4439590000000  0.4749380000000 1.0
C      1  0.4666760000000  0.4438750000000  0.5262180000000 1.0
C      1  0.4836490000000  0.4849050000000  0.5806860000000 1.0
C      1  0.5173950000000  0.4875850000000  0.4209140000000 1.0
C      1  0.4548130000000  0.4943800000000  0.5748180000000 1.0
C      1  0.5468760000000  0.4988990000000  0.4258720000000 1.0
C      1  0.4945300000000  0.5582230000000  0.4485600000000 1.0
C      1  0.5067530000000  0.5543360000000  0.5541520000000 1.0
C      1  0.5643910000000  0.5460780000000  0.4996360000000 1.0
C      1  0.4349240000000  0.5476120000000  0.5024380000000 1.0
C      1  0.5460780000000  0.5483530000000  0.4762220000000 1.0
C      1  0.4553810000000  0.5495600000000  0.5252890000000 1.0
C      1  0.5474680000000  0.5152050000000  0.5359740000000 1.0
C      1  0.4525490000000  0.5137890000000  0.4636130000000 1.0
C      1  0.5274890000000  0.5308650000000  0.4358830000000 1.0
C      1  0.4747640000000  0.5292150000000  0.5617280000000 1.0
C      1  0.5078590000000  0.5708300000000  0.5303630000000 1.0
C      1  0.4915990000000  0.5688930000000  0.4759560000000 1.0
C      1  0.5440000000000  0.5526570000000  0.4475740000000 1.0
C      1  0.4574910000000  0.5534670000000  0.5540010000000 1.0
C      1  0.4977020000000  0.5292210000000  0.5421610000000 1.0
C      1  0.5054850000000  0.5296500000000  0.4581460000000 1.0
C      1  0.5102680000000  0.4886630000000  0.5697160000000 1.0
C      1  0.4915130000000  0.4964440000000  0.4315050000000 1.0
C      1  0.5695530000000  0.4723630000000  0.5293740000000 1.0
C      1  0.4303990000000  0.4700940000000  0.4728270000000 1.0
C      1  0.5837270000000  0.5303910000000  0.5025230000000 1.0
C      1  0.4141390000000  0.5297790000000  0.4987150000000 1.0
C      1  0.5317990000000  0.5626820000000  0.5167670000000 1.0
C      1  0.4650570000000  0.5595960000000  0.4766250000000 1.0
C      1  0.5558900000000  0.4904670000000  0.5492870000000 1.0
C      1  0.4417480000000  0.4896850000000  0.4525920000000 1.0
C      1  0.5372120000000  0.5029970000000  0.5115000000000 1.0
C      1  0.4643760000000  0.5020950000000  0.4896310000000 1.0
C      1  0.5178500000000  0.4858000000000  0.4748370000000 1.0
C      1  0.4783320000000  0.4864910000000  0.5242360000000 1.0
C      1  0.4894610000000  0.4216970000000  0.4934110000000 1.0
C      1  0.5129290000000  0.4229900000000  0.5117240000000 1.0
C      1  0.4657600000000  0.4388670000000  0.4560980000000 1.0
C      1  0.5375420000000  0.4471380000000  0.5515710000000 1.0
C      1  0.4556900000000  0.4709990000000  0.5340900000000 1.0
C      1  0.5426560000000  0.4703110000000  0.4664920000000 1.0
C      1  0.5075380000000  0.5659210000000  0.5021460000000 1.0
END
