TITL C-2441169-1362-1137 0.135181554551348 125000 -14859.6804329755 0 0 125 (C1) n - 1
REM
REM in /home/bkarasulu/work/CARBON/AIRSS/Generating-Clusters/ReaxFF-fromJPCA2015/Units_Real/with-SteepDescent/Higher-Symm
REM
REM
REM
REM
REM
REM ./C.cell (1df0a924f5614ab8850e4351716899ee)
REM
REM compiler GCC version 9.2.1 20190827 (Red Hat 9.2.1-1)
REM options -cpp -mtune=generic -march=x86-64 -g -O0 -fpre-include=/usr/include/finclude/math-vector-fortran.h
REM seed -1689482752 -1217321707 -2017877218 -713732853 -1462222450 631665986 1387808154 1932989453 -2087502585 1585817871 -1913809613 -509117055 -1898592829 1798187922 -1531406030 755488148 1882087429 -1702918695 973040352 -1548648754 1955938816 677426575 -614847519 -1966395267 741464152 634832129 -559395836 1581474307 2083198903 1765125807 245932055 -916387512 -461201473
REM
CELL 1.54180   50.00000   50.00000   50.00000   90.00000   90.00000   90.00000
LATT -1
SFAC C  
C      1  0.4543810000000  0.5158610000000  0.4873990000000 1.0
C      1  0.5506730000000  0.5152330000000  0.5158090000000 1.0
C      1  0.4485630000000  0.4876900000000  0.4857160000000 1.0
C      1  0.5485360000000  0.4869420000000  0.5134670000000 1.0
C      1  0.5526500000000  0.5142190000000  0.4851890000000 1.0
C      1  0.4548360000000  0.5145550000000  0.5151290000000 1.0
C      1  0.5485950000000  0.4854900000000  0.4860470000000 1.0
C      1  0.4499850000000  0.4854650000000  0.5166950000000 1.0
C      1  0.4230870000000  0.4883030000000  0.4667720000000 1.0
C      1  0.5794630000000  0.4853250000000  0.5425480000000 1.0
C      1  0.4169570000000  0.5154190000000  0.4548780000000 1.0
C      1  0.5761590000000  0.5147620000000  0.5367110000000 1.0
C      1  0.5783000000000  0.4835530000000  0.4594030000000 1.0
C      1  0.4245450000000  0.4861700000000  0.5390750000000 1.0
C      1  0.5778070000000  0.5122740000000  0.4675940000000 1.0
C      1  0.4172520000000  0.5139190000000  0.5496530000000 1.0
C      1  0.4049980000000  0.4627950000000  0.5277490000000 1.0
C      1  0.5957290000000  0.4614940000000  0.4721260000000 1.0
C      1  0.4134370000000  0.5371300000000  0.5326950000000 1.0
C      1  0.5961250000000  0.5391440000000  0.4736890000000 1.0
C      1  0.5944300000000  0.4618750000000  0.5293180000000 1.0
C      1  0.4047840000000  0.4629900000000  0.4715800000000 1.0
C      1  0.5952660000000  0.5385860000000  0.5260750000000 1.0
C      1  0.4031360000000  0.5366520000000  0.4720760000000 1.0
C      1  0.5141080000000  0.4205460000000  0.4708610000000 1.0
C      1  0.4855520000000  0.4199490000000  0.5300940000000 1.0
C      1  0.5139990000000  0.5804120000000  0.4700380000000 1.0
C      1  0.4867590000000  0.5801660000000  0.5307180000000 1.0
C      1  0.4853540000000  0.4191140000000  0.4702860000000 1.0
C      1  0.5136860000000  0.4185600000000  0.5325840000000 1.0
C      1  0.4857550000000  0.5789440000000  0.4708130000000 1.0
C      1  0.5145800000000  0.5798400000000  0.5311960000000 1.0
C      1  0.5581090000000  0.4872240000000  0.5627350000000 1.0
C      1  0.4419140000000  0.4809230000000  0.4402360000000 1.0
C      1  0.5578200000000  0.5162090000000  0.5613020000000 1.0
C      1  0.4411400000000  0.5138400000000  0.4389300000000 1.0
C      1  0.4430830000000  0.4843990000000  0.5631810000000 1.0
C      1  0.5581630000000  0.4899900000000  0.4392980000000 1.0
C      1  0.4408370000000  0.5126270000000  0.5669770000000 1.0
C      1  0.5643060000000  0.5181670000000  0.4414350000000 1.0
C      1  0.4726560000000  0.4855060000000  0.4428570000000 1.0
C      1  0.5286580000000  0.4860580000000  0.5590760000000 1.0
C      1  0.4699730000000  0.5127640000000  0.4384450000000 1.0
C      1  0.5269300000000  0.5140650000000  0.5580800000000 1.0
C      1  0.5291610000000  0.4868490000000  0.4407270000000 1.0
C      1  0.4730830000000  0.4860430000000  0.5584560000000 1.0
C      1  0.5194260000000  0.5130920000000  0.4480130000000 1.0
C      1  0.4708430000000  0.5135120000000  0.5602420000000 1.0
C      1  0.5567580000000  0.5432610000000  0.4532440000000 1.0
C      1  0.4399300000000  0.5459400000000  0.5376430000000 1.0
C      1  0.5543290000000  0.4491140000000  0.4624370000000 1.0
C      1  0.4442180000000  0.4468370000000  0.5363580000000 1.0
C      1  0.4439970000000  0.5483340000000  0.4601200000000 1.0
C      1  0.5565270000000  0.5504690000000  0.5401680000000 1.0
C      1  0.4462530000000  0.4564930000000  0.4566070000000 1.0
C      1  0.5507820000000  0.4553100000000  0.5380000000000 1.0
C      1  0.4858380000000  0.5524490000000  0.4563340000000 1.0
C      1  0.5139980000000  0.5538810000000  0.5458150000000 1.0
C      1  0.4865490000000  0.4423270000000  0.4526110000000 1.0
C      1  0.5120130000000  0.4419070000000  0.5494670000000 1.0
C      1  0.5138150000000  0.5553750000000  0.4547850000000 1.0
C      1  0.4855350000000  0.5545060000000  0.5459040000000 1.0
C      1  0.5130170000000  0.4423640000000  0.4519240000000 1.0
C      1  0.4849440000000  0.4460950000000  0.5455640000000 1.0
C      1  0.5510120000000  0.4356360000000  0.5601090000000 1.0
C      1  0.4500580000000  0.4341560000000  0.4389350000000 1.0
C      1  0.5492390000000  0.5645140000000  0.5649960000000 1.0
C      1  0.4524250000000  0.5639920000000  0.4368460000000 1.0
C      1  0.4495490000000  0.4362310000000  0.5629500000000 1.0
C      1  0.5494520000000  0.4363650000000  0.4370070000000 1.0
C      1  0.4486430000000  0.5642270000000  0.5604270000000 1.0
C      1  0.5478840000000  0.5648960000000  0.4364560000000 1.0
C      1  0.5714640000000  0.4467950000000  0.5183950000000 1.0
C      1  0.4281990000000  0.4481060000000  0.4803790000000 1.0
C      1  0.5733510000000  0.5523640000000  0.5137650000000 1.0
C      1  0.4273990000000  0.5474080000000  0.4851960000000 1.0
C      1  0.4255020000000  0.4492800000000  0.5133200000000 1.0
C      1  0.5729570000000  0.4487610000000  0.4858400000000 1.0
C      1  0.4275290000000  0.5531380000000  0.5135380000000 1.0
C      1  0.5718570000000  0.5523390000000  0.4802320000000 1.0
C      1  0.5285600000000  0.4703510000000  0.5251260000000 1.0
C      1  0.4778140000000  0.4791130000000  0.4776210000000 1.0
C      1  0.5247740000000  0.5286890000000  0.5250930000000 1.0
C      1  0.4802510000000  0.5263740000000  0.4783830000000 1.0
C      1  0.4754210000000  0.4709140000000  0.5244060000000 1.0
C      1  0.5206460000000  0.4780440000000  0.4816610000000 1.0
C      1  0.4776550000000  0.5280640000000  0.5268220000000 1.0
C      1  0.5256170000000  0.5244240000000  0.4754280000000 1.0
C      1  0.5541080000000  0.5833420000000  0.4607220000000 1.0
C      1  0.4472180000000  0.5842760000000  0.5396970000000 1.0
C      1  0.5542800000000  0.4205390000000  0.4619810000000 1.0
C      1  0.4455020000000  0.4186020000000  0.5394170000000 1.0
C      1  0.4458380000000  0.5773970000000  0.4622450000000 1.0
C      1  0.5551590000000  0.5792260000000  0.5395850000000 1.0
C      1  0.4453680000000  0.4166780000000  0.4619490000000 1.0
C      1  0.5542010000000  0.4155700000000  0.5392860000000 1.0
C      1  0.4611100000000  0.4129650000000  0.4857730000000 1.0
C      1  0.5379550000000  0.4117250000000  0.5159220000000 1.0
C      1  0.4621530000000  0.5868740000000  0.4846480000000 1.0
C      1  0.5380010000000  0.5870260000000  0.5165180000000 1.0
C      1  0.5379210000000  0.4175030000000  0.4865620000000 1.0
C      1  0.4620930000000  0.4112930000000  0.5163780000000 1.0
C      1  0.5376870000000  0.5838850000000  0.4867270000000 1.0
C      1  0.4625370000000  0.5871910000000  0.5154860000000 1.0
C      1  0.5142780000000  0.4724500000000  0.4200930000000 1.0
C      1  0.4861250000000  0.4715850000000  0.5800690000000 1.0
C      1  0.5143900000000  0.5272510000000  0.4230000000000 1.0
C      1  0.4844220000000  0.5287410000000  0.5800380000000 1.0
C      1  0.4854090000000  0.4713290000000  0.4216650000000 1.0
C      1  0.5149100000000  0.4709780000000  0.5802020000000 1.0
C      1  0.4853190000000  0.5278110000000  0.4190090000000 1.0
C      1  0.5132370000000  0.5277880000000  0.5801100000000 1.0
C      1  0.5243670000000  0.4455100000000  0.4253750000000 1.0
C      1  0.4739480000000  0.4462440000000  0.5741500000000 1.0
C      1  0.5222230000000  0.5551230000000  0.4265230000000 1.0
C      1  0.4730680000000  0.5541070000000  0.5724980000000 1.0
C      1  0.4748380000000  0.4448510000000  0.4264020000000 1.0
C      1  0.5261520000000  0.4447900000000  0.5740390000000 1.0
C      1  0.4775280000000  0.5544910000000  0.4270500000000 1.0
C      1  0.5243040000000  0.5538110000000  0.5743970000000 1.0
C      1  0.5142720000000  0.4575910000000  0.5014660000000 1.0
C      1  0.4872020000000  0.5417930000000  0.5027300000000 1.0
C      1  0.4858520000000  0.4599140000000  0.5002400000000 1.0
C      1  0.5154960000000  0.5392870000000  0.5003530000000 1.0
C      1  0.4993360000000  0.4975630000000  0.4848700000000 1.0
END
