TITL C-2441164-471-442 0.00451446522752687 125000 -14322.7908127446 0 0 96 (C1) n - 1
REM
REM in /home/bkarasulu/work/CARBON/AIRSS/Generating-Clusters/ReaxFF-fromJPCA2015/Units_Real/with-SteepDescent/Higher-Symm
REM
REM
REM
REM
REM
REM ./C.cell (1df0a924f5614ab8850e4351716899ee)
REM
REM compiler GCC version 9.2.1 20190827 (Red Hat 9.2.1-1)
REM options -cpp -mtune=generic -march=x86-64 -g -O0 -fpre-include=/usr/include/finclude/math-vector-fortran.h
REM seed -1876422917 1624048512 -1591318300 1324342626 1157784643 264047082 1817786097 1666658916 -112464053 -1159070545 980763164 -751423701 527529709 -1816407328 1524731557 1247517319 2054909216 1055898569 -296960101 -433979380 -819967800 613090802 -1973163702 -1702835037 -1905202554 34050466 681446330 -971442090 1138259915 -1548018154 -20875180 -922693933 -1361493165
REM
CELL 1.54180   50.00000   50.00000   50.00000   90.00000   90.00000   90.00000
LATT -1
SFAC C  
C      1  0.4654750000000  0.5279830000000  0.5055930000000 1.0
C      1  0.4536730000000  0.4548550000000  0.5317650000000 1.0
C      1  0.4411700000000  0.5018660000000  0.5542420000000 1.0
C      1  0.5616350000000  0.5196660000000  0.4585490000000 1.0
C      1  0.4420800000000  0.5304780000000  0.5494310000000 1.0
C      1  0.4838600000000  0.5796780000000  0.4802530000000 1.0
C      1  0.4943130000000  0.5692050000000  0.4560280000000 1.0
C      1  0.5732270000000  0.5235040000000  0.4841220000000 1.0
C      1  0.5094290000000  0.5362640000000  0.5121700000000 1.0
C      1  0.5253200000000  0.4900470000000  0.4561220000000 1.0
C      1  0.5518340000000  0.4664790000000  0.5696360000000 1.0
C      1  0.4974220000000  0.4769820000000  0.4913240000000 1.0
C      1  0.4598020000000  0.4830100000000  0.5418870000000 1.0
C      1  0.5232830000000  0.5023510000000  0.5696000000000 1.0
C      1  0.4979500000000  0.4598810000000  0.5726570000000 1.0
C      1  0.4812750000000  0.5771970000000  0.5420510000000 1.0
C      1  0.4645050000000  0.4308840000000  0.5524590000000 1.0
C      1  0.5256280000000  0.5247090000000  0.4923910000000 1.0
C      1  0.4845630000000  0.4313630000000  0.4590130000000 1.0
C      1  0.4762630000000  0.5197110000000  0.5850220000000 1.0
C      1  0.5536970000000  0.5658620000000  0.4969660000000 1.0
C      1  0.5211160000000  0.4734190000000  0.4771360000000 1.0
C      1  0.4594910000000  0.5706250000000  0.4935450000000 1.0
C      1  0.4487560000000  0.5438940000000  0.5234830000000 1.0
C      1  0.4784410000000  0.4530000000000  0.5176790000000 1.0
C      1  0.4691620000000  0.4077940000000  0.4970040000000 1.0
C      1  0.5106060000000  0.5653480000000  0.5145880000000 1.0
C      1  0.4555960000000  0.4690570000000  0.4406860000000 1.0
C      1  0.5056070000000  0.5227810000000  0.5811690000000 1.0
C      1  0.5456930000000  0.4791820000000  0.4375040000000 1.0
C      1  0.4858350000000  0.4260640000000  0.5106120000000 1.0
C      1  0.5221690000000  0.4128750000000  0.4940560000000 1.0
C      1  0.5541270000000  0.5226590000000  0.5335830000000 1.0
C      1  0.4183540000000  0.4838270000000  0.4760270000000 1.0
C      1  0.4921050000000  0.5460440000000  0.4220290000000 1.0
C      1  0.4416470000000  0.5508620000000  0.4810260000000 1.0
C      1  0.5723340000000  0.4778890000000  0.5513610000000 1.0
C      1  0.5508170000000  0.5343100000000  0.5007800000000 1.0
C      1  0.5353830000000  0.4340240000000  0.4607610000000 1.0
C      1  0.5328740000000  0.5029380000000  0.5416540000000 1.0
C      1  0.4269680000000  0.5106030000000  0.5170850000000 1.0
C      1  0.5412910000000  0.4578300000000  0.5130140000000 1.0
C      1  0.4395490000000  0.4466260000000  0.4827020000000 1.0
C      1  0.5769120000000  0.5020030000000  0.5344340000000 1.0
C      1  0.5151970000000  0.4808160000000  0.4081100000000 1.0
C      1  0.4343600000000  0.4641440000000  0.4603470000000 1.0
C      1  0.5099800000000  0.5787000000000  0.5397090000000 1.0
C      1  0.4194540000000  0.5121320000000  0.4695200000000 1.0
C      1  0.5648080000000  0.4488710000000  0.5501100000000 1.0
C      1  0.5535520000000  0.5515640000000  0.5462540000000 1.0
C      1  0.4823230000000  0.5593310000000  0.5646130000000 1.0
C      1  0.4822430000000  0.4956370000000  0.5308280000000 1.0
C      1  0.5319810000000  0.4499200000000  0.4374810000000 1.0
C      1  0.5810210000000  0.4818370000000  0.4997970000000 1.0
C      1  0.4482520000000  0.5447390000000  0.4537690000000 1.0
C      1  0.5272770000000  0.4790440000000  0.5263970000000 1.0
C      1  0.4618830000000  0.5396490000000  0.5699530000000 1.0
C      1  0.4709720000000  0.4855850000000  0.4813680000000 1.0
C      1  0.5529440000000  0.4358470000000  0.5270480000000 1.0
C      1  0.4731620000000  0.4738770000000  0.5718930000000 1.0
C      1  0.5094090000000  0.5835930000000  0.4922790000000 1.0
C      1  0.5318050000000  0.4146890000000  0.5210200000000 1.0
C      1  0.5166410000000  0.5320200000000  0.4209370000000 1.0
C      1  0.4586300000000  0.4972450000000  0.5791510000000 1.0
C      1  0.4730260000000  0.5568730000000  0.4398670000000 1.0
C      1  0.5018900000000  0.5072950000000  0.4132840000000 1.0
C      1  0.4373850000000  0.5184950000000  0.4473600000000 1.0
C      1  0.4812550000000  0.5068630000000  0.4347110000000 1.0
C      1  0.4666530000000  0.5156000000000  0.4792610000000 1.0
C      1  0.4877110000000  0.5175340000000  0.4597460000000 1.0
C      1  0.5679920000000  0.4918200000000  0.4555030000000 1.0
C      1  0.5437200000000  0.4558490000000  0.4833450000000 1.0
C      1  0.4214060000000  0.4841100000000  0.5060710000000 1.0
C      1  0.5349470000000  0.5365850000000  0.4456380000000 1.0
C      1  0.5237670000000  0.5621250000000  0.4553410000000 1.0
C      1  0.4615110000000  0.4251600000000  0.4761510000000 1.0
C      1  0.5339310000000  0.5769110000000  0.4778470000000 1.0
C      1  0.5054860000000  0.4199380000000  0.5325780000000 1.0
C      1  0.4335920000000  0.4576090000000  0.5086870000000 1.0
C      1  0.5431770000000  0.4873960000000  0.4061290000000 1.0
C      1  0.5296070000000  0.5649860000000  0.5573200000000 1.0
C      1  0.5116760000000  0.4189360000000  0.4681600000000 1.0
C      1  0.4810580000000  0.4523420000000  0.4399230000000 1.0
C      1  0.4970910000000  0.4743940000000  0.5207690000000 1.0
C      1  0.5170810000000  0.5165740000000  0.4657430000000 1.0
C      1  0.4923660000000  0.4330760000000  0.5568090000000 1.0
C      1  0.5236690000000  0.4737390000000  0.5759200000000 1.0
C      1  0.5706220000000  0.4713590000000  0.4768570000000 1.0
C      1  0.5537770000000  0.5675620000000  0.5243590000000 1.0
C      1  0.5067110000000  0.4570580000000  0.4260780000000 1.0
C      1  0.4251070000000  0.5280440000000  0.4938730000000 1.0
C      1  0.4868730000000  0.5221600000000  0.5232240000000 1.0
C      1  0.4600620000000  0.5710080000000  0.5225420000000 1.0
C      1  0.5090320000000  0.5499470000000  0.5721590000000 1.0
C      1  0.5871070000000  0.5066150000000  0.5068240000000 1.0
C      1  0.4535800000000  0.4971690000000  0.4341360000000 1.0
END
