TITL C-2441159-1093-443 -4.02106615044913e-05 125000 -1912.76592608045 0 0 15 (C3) n - 1
REM
REM in /home/bkarasulu/work/CARBON/AIRSS/Generating-Clusters/ReaxFF-fromJPCA2015/Units_Real/with-SteepDescent/Higher-Symm
REM
REM
REM
REM
REM
REM ./C.cell (1df0a924f5614ab8850e4351716899ee)
REM
REM compiler GCC version 9.2.1 20190827 (Red Hat 9.2.1-1)
REM options -cpp -mtune=generic -march=x86-64 -g -O0 -fpre-include=/usr/include/finclude/math-vector-fortran.h
REM seed 1711181282 77368542 -1247422378 1725905792 -270030366 759439106 4929388 -1747717785 -53052179 -1144175685 -1253407884 -1367911321 1841964466 -1682252890 -1510433471 176580824 2136477361 -781634787 1782595862 -895981443 1716455844 -696973259 -843860262 281580578 1999787391 -265317452 -1218029720 -1355230861 539536368 503000911 -1806532339 -1525364885 -1059198151
REM
CELL 1.54180   50.00000   50.00000   50.00000   90.00000   90.00000   90.00000
LATT -1
SFAC C  
C      1  0.4495640000000  0.5389910000000  0.5052260000000 1.0
C      1  0.5593920000000  0.5247960000000  0.5050820000000 1.0
C      1  0.4920350000000  0.4360140000000  0.5052030000000 1.0
C      1  0.4491800000000  0.5389310000000  0.4767710000000 1.0
C      1  0.5599850000000  0.5253130000000  0.4764700000000 1.0
C      1  0.4914390000000  0.4353160000000  0.4765960000000 1.0
C      1  0.4866170000000  0.5094020000000  0.4793440000000 1.0
C      1  0.5147620000000  0.5072890000000  0.4789570000000 1.0
C      1  0.4979390000000  0.4835470000000  0.4789880000000 1.0
C      1  0.4864630000000  0.5094840000000  0.5258700000000 1.0
C      1  0.5146460000000  0.5075000000000  0.5264110000000 1.0
C      1  0.4979390000000  0.4836680000000  0.5264510000000 1.0
C      1  0.4738560000000  0.5182990000000  0.5026100000000 1.0
C      1  0.4965890000000  0.4673360000000  0.5028390000000 1.0
C      1  0.5295950000000  0.5141150000000  0.5027690000000 1.0
END
