TITL C-2441159-1093-1110 0.0936586951800569 125000 -27379.4857801063 0 0 194 (C1) n - 1
REM
REM in /home/bkarasulu/work/CARBON/AIRSS/Generating-Clusters/ReaxFF-fromJPCA2015/Units_Real/with-SteepDescent/Higher-Symm
REM
REM
REM
REM
REM
REM ./C.cell (1df0a924f5614ab8850e4351716899ee)
REM
REM compiler GCC version 9.2.1 20190827 (Red Hat 9.2.1-1)
REM options -cpp -mtune=generic -march=x86-64 -g -O0 -fpre-include=/usr/include/finclude/math-vector-fortran.h
REM seed -1126091279 -849356850 -762002409 -1665056345 792103322 1585814694 -145874756 1283951151 1751889787 -169459918 -232680737 1675431280 -1380732430 -39221393 1774260685 -442640369 1592031461 1769965780 1720886904 1635681300 -846820015 -794812540 696489507 -1205825822 -1515366564 1388357813 1529907450 1788611110 146359460 556923506 -1386043773 1905998767 2112668960
REM
CELL 1.54180   50.00000   50.00000   50.00000   90.00000   90.00000   90.00000
LATT -1
SFAC C  
C      1  0.5050500000000  0.4167370000000  0.5760760000000 1.0
C      1  0.5683850000000  0.4169850000000  0.5337270000000 1.0
C      1  0.5622920000000  0.4171590000000  0.4566880000000 1.0
C      1  0.4952430000000  0.4151490000000  0.4222460000000 1.0
C      1  0.4321720000000  0.4170670000000  0.4670740000000 1.0
C      1  0.4355770000000  0.4156570000000  0.5430210000000 1.0
C      1  0.5052510000000  0.5826300000000  0.4252990000000 1.0
C      1  0.5680230000000  0.5830300000000  0.4658290000000 1.0
C      1  0.5625780000000  0.5824650000000  0.5419490000000 1.0
C      1  0.4950410000000  0.5833150000000  0.5768960000000 1.0
C      1  0.4311800000000  0.5838000000000  0.5325410000000 1.0
C      1  0.4361120000000  0.5845590000000  0.4570090000000 1.0
C      1  0.4420510000000  0.4786650000000  0.5327320000000 1.0
C      1  0.5014430000000  0.4783610000000  0.5598500000000 1.0
C      1  0.5588920000000  0.4763280000000  0.5403940000000 1.0
C      1  0.5614800000000  0.4828580000000  0.4691310000000 1.0
C      1  0.5029990000000  0.4764190000000  0.4262970000000 1.0
C      1  0.4428040000000  0.4827980000000  0.4645040000000 1.0
C      1  0.4458310000000  0.5250380000000  0.4721290000000 1.0
C      1  0.4845720000000  0.5179680000000  0.4232950000000 1.0
C      1  0.5587140000000  0.5235410000000  0.4626390000000 1.0
C      1  0.5611220000000  0.5162750000000  0.5304740000000 1.0
C      1  0.4983430000000  0.5231780000000  0.5596330000000 1.0
C      1  0.4473990000000  0.5208090000000  0.5284690000000 1.0
C      1  0.5015330000000  0.4856300000000  0.5319390000000 1.0
C      1  0.5224620000000  0.4759080000000  0.5148340000000 1.0
C      1  0.5225950000000  0.4852820000000  0.4893670000000 1.0
C      1  0.5005430000000  0.4860750000000  0.4695610000000 1.0
C      1  0.4769280000000  0.4885730000000  0.4853520000000 1.0
C      1  0.4752370000000  0.4822660000000  0.5131230000000 1.0
C      1  0.5130190000000  0.5118330000000  0.4598890000000 1.0
C      1  0.5263770000000  0.5112500000000  0.4862750000000 1.0
C      1  0.5166960000000  0.5241950000000  0.5097460000000 1.0
C      1  0.4992910000000  0.5135750000000  0.5322260000000 1.0
C      1  0.4719060000000  0.5093760000000  0.5225730000000 1.0
C      1  0.4703390000000  0.5157080000000  0.4852270000000 1.0
C      1  0.5329800000000  0.5247570000000  0.5981320000000 1.0
C      1  0.6030690000000  0.5258730000000  0.5183300000000 1.0
C      1  0.5686020000000  0.5274880000000  0.4201390000000 1.0
C      1  0.4625810000000  0.5271080000000  0.4053660000000 1.0
C      1  0.3963130000000  0.5266250000000  0.4800330000000 1.0
C      1  0.4299960000000  0.5250960000000  0.5792080000000 1.0
C      1  0.5394610000000  0.4731750000000  0.3981810000000 1.0
C      1  0.6027190000000  0.4734780000000  0.4823990000000 1.0
C      1  0.5692080000000  0.4722040000000  0.5814930000000 1.0
C      1  0.4661130000000  0.4741610000000  0.5985130000000 1.0
C      1  0.3971180000000  0.4731760000000  0.5199420000000 1.0
C      1  0.4298900000000  0.4743500000000  0.4207620000000 1.0
C      1  0.5283920000000  0.6007080000000  0.5072150000000 1.0
C      1  0.5215430000000  0.6011950000000  0.4791360000000 1.0
C      1  0.4940500000000  0.6011900000000  0.4706840000000 1.0
C      1  0.4711170000000  0.5969420000000  0.4910530000000 1.0
C      1  0.4778010000000  0.6008940000000  0.5204250000000 1.0
C      1  0.5063270000000  0.5957630000000  0.5286050000000 1.0
C      1  0.5278160000000  0.3997540000000  0.4911980000000 1.0
C      1  0.5213140000000  0.3998690000000  0.5198210000000 1.0
C      1  0.4934780000000  0.3993110000000  0.5288610000000 1.0
C      1  0.4713940000000  0.4004810000000  0.5085740000000 1.0
C      1  0.4785220000000  0.3996580000000  0.4796800000000 1.0
C      1  0.5065780000000  0.4019610000000  0.4701580000000 1.0
C      1  0.5737080000000  0.4446800000000  0.5744830000000 1.0
C      1  0.5977420000000  0.4458560000000  0.4761630000000 1.0
C      1  0.5263300000000  0.4471070000000  0.3973400000000 1.0
C      1  0.4313560000000  0.4470600000000  0.4282840000000 1.0
C      1  0.3998220000000  0.4453540000000  0.5260950000000 1.0
C      1  0.4724630000000  0.4460540000000  0.5984190000000 1.0
C      1  0.5714100000000  0.5551090000000  0.4270050000000 1.0
C      1  0.5992600000000  0.5533070000000  0.5251030000000 1.0
C      1  0.5269170000000  0.5529440000000  0.5981960000000 1.0
C      1  0.4291710000000  0.5530060000000  0.5710140000000 1.0
C      1  0.3998990000000  0.5553240000000  0.4743500000000 1.0
C      1  0.4717450000000  0.5545480000000  0.4028270000000 1.0
C      1  0.5845820000000  0.4383540000000  0.5474400000000 1.0
C      1  0.5825840000000  0.4384050000000  0.4518270000000 1.0
C      1  0.4976970000000  0.4374070000000  0.4012730000000 1.0
C      1  0.4179700000000  0.4391570000000  0.4534580000000 1.0
C      1  0.4164040000000  0.4381440000000  0.5497400000000 1.0
C      1  0.5010490000000  0.4389350000000  0.5956320000000 1.0
C      1  0.5842050000000  0.5613320000000  0.4528470000000 1.0
C      1  0.5820860000000  0.5609310000000  0.5479590000000 1.0
C      1  0.4985860000000  0.5603310000000  0.5962240000000 1.0
C      1  0.4169590000000  0.5617260000000  0.5456960000000 1.0
C      1  0.4160910000000  0.5629440000000  0.4513780000000 1.0
C      1  0.4999650000000  0.5614710000000  0.4055260000000 1.0
C      1  0.5830940000000  0.4828950000000  0.5561620000000 1.0
C      1  0.5906480000000  0.4833640000000  0.4563550000000 1.0
C      1  0.5136160000000  0.4874080000000  0.4013480000000 1.0
C      1  0.4148910000000  0.4843720000000  0.4453770000000 1.0
C      1  0.4127240000000  0.4844370000000  0.5439790000000 1.0
C      1  0.4942020000000  0.4851550000000  0.5993820000000 1.0
C      1  0.5822420000000  0.5170140000000  0.4454590000000 1.0
C      1  0.5901120000000  0.5163090000000  0.5444060000000 1.0
C      1  0.5050140000000  0.5141780000000  0.5994840000000 1.0
C      1  0.4148070000000  0.5160730000000  0.5559920000000 1.0
C      1  0.4093300000000  0.5157360000000  0.4560050000000 1.0
C      1  0.5013460000000  0.5146060000000  0.3989110000000 1.0
C      1  0.4655420000000  0.4409490000000  0.5704290000000 1.0
C      1  0.5453310000000  0.4391850000000  0.5695400000000 1.0
C      1  0.5756840000000  0.4427420000000  0.4954570000000 1.0
C      1  0.5363930000000  0.4409570000000  0.4242990000000 1.0
C      1  0.4588700000000  0.4435760000000  0.4382220000000 1.0
C      1  0.4216320000000  0.4409270000000  0.5067650000000 1.0
C      1  0.4652540000000  0.5590060000000  0.4312170000000 1.0
C      1  0.5429350000000  0.5593810000000  0.4333170000000 1.0
C      1  0.5788810000000  0.5574620000000  0.5045260000000 1.0
C      1  0.5331860000000  0.5584060000000  0.5699300000000 1.0
C      1  0.4574810000000  0.5572210000000  0.5611220000000 1.0
C      1  0.4204180000000  0.5610770000000  0.4945530000000 1.0
C      1  0.4762240000000  0.4557370000000  0.4022450000000 1.0
C      1  0.4049790000000  0.4631130000000  0.4637240000000 1.0
C      1  0.4203530000000  0.4629490000000  0.5644180000000 1.0
C      1  0.5152150000000  0.4643150000000  0.5998700000000 1.0
C      1  0.5964040000000  0.4628450000000  0.5368580000000 1.0
C      1  0.5821300000000  0.4630450000000  0.4360050000000 1.0
C      1  0.4840160000000  0.5351670000000  0.5999210000000 1.0
C      1  0.4056770000000  0.5354060000000  0.5366810000000 1.0
C      1  0.4181720000000  0.5366280000000  0.4376580000000 1.0
C      1  0.5174110000000  0.5383910000000  0.3995790000000 1.0
C      1  0.5965070000000  0.5369990000000  0.4637220000000 1.0
C      1  0.5791810000000  0.5362750000000  0.5634490000000 1.0
C      1  0.4584890000000  0.4057010000000  0.4599580000000 1.0
C      1  0.4427060000000  0.4043880000000  0.5170180000000 1.0
C      1  0.4861820000000  0.4052590000000  0.5563860000000 1.0
C      1  0.5419020000000  0.4059790000000  0.5400500000000 1.0
C      1  0.5549910000000  0.4058350000000  0.4832100000000 1.0
C      1  0.5145510000000  0.4044750000000  0.4409700000000 1.0
C      1  0.4581700000000  0.5946030000000  0.5396380000000 1.0
C      1  0.4413380000000  0.5969260000000  0.4824700000000 1.0
C      1  0.4862770000000  0.5938910000000  0.4445130000000 1.0
C      1  0.5418730000000  0.5940680000000  0.4589070000000 1.0
C      1  0.5549710000000  0.5937990000000  0.5154190000000 1.0
C      1  0.5141860000000  0.5950560000000  0.5585870000000 1.0
C      1  0.4683360000000  0.5840770000000  0.5653340000000 1.0
C      1  0.5413670000000  0.5855500000000  0.5617510000000 1.0
C      1  0.5728780000000  0.5844240000000  0.4940260000000 1.0
C      1  0.5316280000000  0.5839880000000  0.4345710000000 1.0
C      1  0.4598690000000  0.5843130000000  0.4409040000000 1.0
C      1  0.4245900000000  0.5884430000000  0.5044400000000 1.0
C      1  0.4692480000000  0.4162230000000  0.4346690000000 1.0
C      1  0.5415800000000  0.4143040000000  0.4365850000000 1.0
C      1  0.5722460000000  0.4152870000000  0.5051040000000 1.0
C      1  0.5323380000000  0.4131800000000  0.5669000000000 1.0
C      1  0.4584300000000  0.4143130000000  0.5609500000000 1.0
C      1  0.4259620000000  0.4141500000000  0.4952620000000 1.0
C      1  0.5425200000000  0.4536640000000  0.5447440000000 1.0
C      1  0.5536760000000  0.4572100000000  0.4840500000000 1.0
C      1  0.5156220000000  0.4546010000000  0.4392810000000 1.0
C      1  0.4581930000000  0.4568120000000  0.4632620000000 1.0
C      1  0.4443610000000  0.4526860000000  0.5197100000000 1.0
C      1  0.4877610000000  0.4529810000000  0.5561820000000 1.0
C      1  0.5421940000000  0.5467490000000  0.4598690000000 1.0
C      1  0.5575910000000  0.5425320000000  0.5156130000000 1.0
C      1  0.5112390000000  0.5488020000000  0.5542170000000 1.0
C      1  0.4599620000000  0.5455130000000  0.5351910000000 1.0
C      1  0.4454680000000  0.5519330000000  0.4835260000000 1.0
C      1  0.4838220000000  0.5430870000000  0.4441320000000 1.0
C      1  0.5480610000000  0.4867400000000  0.4426420000000 1.0
C      1  0.4774510000000  0.4893940000000  0.4296620000000 1.0
C      1  0.4292540000000  0.4884550000000  0.4905450000000 1.0
C      1  0.4568050000000  0.4877850000000  0.5565640000000 1.0
C      1  0.5278340000000  0.4886200000000  0.5666340000000 1.0
C      1  0.5675860000000  0.4885050000000  0.5162230000000 1.0
C      1  0.5434340000000  0.5109140000000  0.5555650000000 1.0
C      1  0.4717300000000  0.5119010000000  0.5662110000000 1.0
C      1  0.4280360000000  0.5109190000000  0.5089450000000 1.0
C      1  0.4512740000000  0.5086240000000  0.4486200000000 1.0
C      1  0.5298450000000  0.5077430000000  0.4366540000000 1.0
C      1  0.5686320000000  0.5100000000000  0.4851890000000 1.0
C      1  0.5409610000000  0.4761780000000  0.5892750000000 1.0
C      1  0.5945180000000  0.4770510000000  0.5109820000000 1.0
C      1  0.5607930000000  0.4758370000000  0.4199260000000 1.0
C      1  0.4581520000000  0.4761750000000  0.4107090000000 1.0
C      1  0.4040840000000  0.4756080000000  0.4911300000000 1.0
C      1  0.4434020000000  0.4757490000000  0.5787390000000 1.0
C      1  0.5399610000000  0.5241180000000  0.4136210000000 1.0
C      1  0.5954750000000  0.5222610000000  0.4895420000000 1.0
C      1  0.5554000000000  0.5235290000000  0.5775060000000 1.0
C      1  0.4589370000000  0.5228270000000  0.5889870000000 1.0
C      1  0.4023670000000  0.5232500000000  0.5092510000000 1.0
C      1  0.4405620000000  0.5219300000000  0.4244100000000 1.0
C      1  0.4702550000000  0.4401110000000  0.5126680000000 1.0
C      1  0.4940860000000  0.4423190000000  0.5304410000000 1.0
C      1  0.5218570000000  0.4491770000000  0.5248840000000 1.0
C      1  0.5293970000000  0.4428870000000  0.4821720000000 1.0
C      1  0.5096140000000  0.4404490000000  0.4630180000000 1.0
C      1  0.4738810000000  0.4457950000000  0.4845220000000 1.0
C      1  0.4704720000000  0.5656730000000  0.4896830000000 1.0
C      1  0.4947500000000  0.5516790000000  0.4707120000000 1.0
C      1  0.5232210000000  0.5559490000000  0.4790040000000 1.0
C      1  0.5302110000000  0.5526690000000  0.5083200000000 1.0
C      1  0.5068210000000  0.5626060000000  0.5285020000000 1.0
C      1  0.4810950000000  0.5532490000000  0.5147430000000 1.0
C      1  0.5019000000000  0.4507940000000  0.4857650000000 1.0
C      1  0.4911160000000  0.5328890000000  0.4950720000000 1.0
END
