TITL C-2441169-1362-564 0.0119685821378278 125000 -7556.35342301116 0 0 56 (C1) n - 1
REM
REM in /home/bkarasulu/work/CARBON/AIRSS/Generating-Clusters/ReaxFF-fromJPCA2015/Units_Real/with-SteepDescent/Higher-Symm
REM
REM
REM
REM
REM
REM ./C.cell (1df0a924f5614ab8850e4351716899ee)
REM
REM compiler GCC version 9.2.1 20190827 (Red Hat 9.2.1-1)
REM options -cpp -mtune=generic -march=x86-64 -g -O0 -fpre-include=/usr/include/finclude/math-vector-fortran.h
REM seed -271627747 -1340936866 -1157161833 -1129871216 95542067 1891055412 1701467151 1354244088 -1641180653 -107525195 -1128728855 1786289456 -1851143277 -1001650367 -1299534646 -79037035 -1729428294 819520049 -1063304805 1423644292 1134180437 -1336801582 -1015478417 -1975362097 -157592787 795582308 -34577744 -855376894 -1186101169 792220537 205394055 -1907917162 -980196498
REM
CELL 1.54180   50.00000   50.00000   50.00000   90.00000   90.00000   90.00000
LATT -1
SFAC C  
C      1  0.5082920000000  0.5472760000000  0.4488420000000 1.0
C      1  0.4597530000000  0.4905000000000  0.4500760000000 1.0
C      1  0.5310110000000  0.4683710000000  0.4495580000000 1.0
C      1  0.4563610000000  0.4457330000000  0.5140710000000 1.0
C      1  0.5681110000000  0.4908650000000  0.5124610000000 1.0
C      1  0.4730710000000  0.5645400000000  0.5126870000000 1.0
C      1  0.5109170000000  0.4397790000000  0.5205370000000 1.0
C      1  0.5465690000000  0.5398840000000  0.5203280000000 1.0
C      1  0.4386420000000  0.5232890000000  0.5206800000000 1.0
C      1  0.5381400000000  0.4918880000000  0.4820260000000 1.0
C      1  0.4880630000000  0.5382990000000  0.4823230000000 1.0
C      1  0.4722170000000  0.4632670000000  0.4777670000000 1.0
C      1  0.4589270000000  0.5431150000000  0.5298500000000 1.0
C      1  0.4825510000000  0.4428040000000  0.5320670000000 1.0
C      1  0.5556460000000  0.5132670000000  0.5299790000000 1.0
C      1  0.5232700000000  0.5584570000000  0.5251990000000 1.0
C      1  0.4356110000000  0.4937700000000  0.5263720000000 1.0
C      1  0.5382550000000  0.4509260000000  0.5257330000000 1.0
C      1  0.5228970000000  0.4867870000000  0.5670250000000 1.0
C      1  0.4997290000000  0.5270580000000  0.5643230000000 1.0
C      1  0.4756730000000  0.4860840000000  0.5623050000000 1.0
C      1  0.4950490000000  0.4500460000000  0.4460600000000 1.0
C      1  0.5518080000000  0.5160500000000  0.4479890000000 1.0
C      1  0.4579620000000  0.5314670000000  0.4491510000000 1.0
C      1  0.5079740000000  0.5258990000000  0.4966680000000 1.0
C      1  0.4716830000000  0.5003630000000  0.5101120000000 1.0
C      1  0.5166790000000  0.4802580000000  0.4958590000000 1.0
C      1  0.5833790000000  0.5053390000000  0.4934130000000 1.0
C      1  0.4542660000000  0.5693610000000  0.4919680000000 1.0
C      1  0.4612490000000  0.4268380000000  0.4932110000000 1.0
C      1  0.4782020000000  0.4716510000000  0.4366500000000 1.0
C      1  0.5359150000000  0.4944380000000  0.4374530000000 1.0
C      1  0.4845850000000  0.5354750000000  0.4366440000000 1.0
C      1  0.5107820000000  0.4507870000000  0.4942300000000 1.0
C      1  0.5366050000000  0.5344930000000  0.4939530000000 1.0
C      1  0.4519930000000  0.5165740000000  0.4964980000000 1.0
C      1  0.4779190000000  0.4601570000000  0.5530240000000 1.0
C      1  0.5453640000000  0.4961080000000  0.5507980000000 1.0
C      1  0.4809490000000  0.5419790000000  0.5483020000000 1.0
C      1  0.4759680000000  0.5122530000000  0.4518920000000 1.0
C      1  0.5039810000000  0.4737020000000  0.4491110000000 1.0
C      1  0.5244410000000  0.5238530000000  0.4437430000000 1.0
C      1  0.5554390000000  0.4629640000000  0.5042620000000 1.0
C      1  0.5035080000000  0.5674040000000  0.5046360000000 1.0
C      1  0.4421960000000  0.4723590000000  0.5062780000000 1.0
C      1  0.5558350000000  0.5165700000000  0.4784090000000 1.0
C      1  0.4585980000000  0.5391820000000  0.4784050000000 1.0
C      1  0.4887350000000  0.4396240000000  0.4754650000000 1.0
C      1  0.4481810000000  0.4763020000000  0.4775330000000 1.0
C      1  0.5491460000000  0.4660630000000  0.4753740000000 1.0
C      1  0.5035550000000  0.5620020000000  0.4754100000000 1.0
C      1  0.5082280000000  0.5381820000000  0.5395360000000 1.0
C      1  0.4629740000000  0.4940630000000  0.5365650000000 1.0
C      1  0.5279760000000  0.4732170000000  0.5417850000000 1.0
C      1  0.4989020000000  0.5002860000000  0.5025410000000 1.0
C      1  0.4987110000000  0.5004310000000  0.5708000000000 1.0
END
