TITL C-2441166-8118-1463 0.0907629046787883 125000 -10905.861742175 0 0 96 (C1) n - 1
REM
REM in /home/bkarasulu/work/CARBON/AIRSS/Generating-Clusters/ReaxFF-fromJPCA2015/Units_Real/with-SteepDescent/Higher-Symm
REM
REM
REM
REM
REM
REM ./C.cell (1df0a924f5614ab8850e4351716899ee)
REM
REM compiler GCC version 9.2.1 20190827 (Red Hat 9.2.1-1)
REM options -cpp -mtune=generic -march=x86-64 -g -O0 -fpre-include=/usr/include/finclude/math-vector-fortran.h
REM seed 1792553580 -1635979697 836922978 -1784154248 -383838354 -866004498 -1972544319 -1908461500 1410833616 2001039892 1877200968 -1463280937 556292603 -1702268628 1256461564 -850422243 -1205575183 -1691950438 -2053000507 230049264 1373832661 -808336741 -437307626 -1566121467 -1270024831 1400389082 663252841 -1092404711 -439773649 1540848493 1111301056 1089784796 -1246953367
REM
CELL 1.54180   50.00000   50.00000   50.00000   90.00000   90.00000   90.00000
LATT -1
SFAC C  
C      1  0.5242310000000  0.4557540000000  0.4639110000000 1.0
C      1  0.4615790000000  0.5440110000000  0.4773600000000 1.0
C      1  0.4713280000000  0.4548970000000  0.5476670000000 1.0
C      1  0.5470020000000  0.5429510000000  0.5280860000000 1.0
C      1  0.5052050000000  0.5232000000000  0.5180500000000 1.0
C      1  0.5189040000000  0.4782260000000  0.4957560000000 1.0
C      1  0.4951980000000  0.5249920000000  0.4787060000000 1.0
C      1  0.4806650000000  0.4772720000000  0.5062430000000 1.0
C      1  0.5166020000000  0.5693530000000  0.5388890000000 1.0
C      1  0.5399010000000  0.4226250000000  0.4812840000000 1.0
C      1  0.4845630000000  0.5719570000000  0.4605280000000 1.0
C      1  0.4609040000000  0.4295560000000  0.5173870000000 1.0
C      1  0.4997290000000  0.5501550000000  0.5224190000000 1.0
C      1  0.5239130000000  0.4530470000000  0.5018300000000 1.0
C      1  0.5001500000000  0.5518490000000  0.4747760000000 1.0
C      1  0.4785660000000  0.4496340000000  0.4977830000000 1.0
C      1  0.4261190000000  0.5331350000000  0.4599340000000 1.0
C      1  0.4587180000000  0.4696910000000  0.5684920000000 1.0
C      1  0.5691370000000  0.5298440000000  0.5414870000000 1.0
C      1  0.5389620000000  0.4664660000000  0.4263760000000 1.0
C      1  0.4090390000000  0.4714610000000  0.5079940000000 1.0
C      1  0.5074820000000  0.5284540000000  0.5913230000000 1.0
C      1  0.5905990000000  0.4711440000000  0.4916480000000 1.0
C      1  0.4924910000000  0.5281440000000  0.4086730000000 1.0
C      1  0.4652900000000  0.5640720000000  0.5440750000000 1.0
C      1  0.5444350000000  0.4365520000000  0.5337220000000 1.0
C      1  0.5343550000000  0.5628680000000  0.4556440000000 1.0
C      1  0.4562530000000  0.4365480000000  0.4655200000000 1.0
C      1  0.5597880000000  0.4825910000000  0.5279700000000 1.0
C      1  0.5284900000000  0.5163680000000  0.4394650000000 1.0
C      1  0.4394060000000  0.4835530000000  0.4717220000000 1.0
C      1  0.4709720000000  0.5177750000000  0.5611190000000 1.0
C      1  0.4805120000000  0.4209040000000  0.4655600000000 1.0
C      1  0.4662360000000  0.5807320000000  0.5200890000000 1.0
C      1  0.5217090000000  0.4182880000000  0.5313810000000 1.0
C      1  0.5321490000000  0.5815110000000  0.4780460000000 1.0
C      1  0.4919920000000  0.4408000000000  0.5546370000000 1.0
C      1  0.5540120000000  0.5583250000000  0.5086270000000 1.0
C      1  0.5192190000000  0.4472600000000  0.4372970000000 1.0
C      1  0.4352400000000  0.5533970000000  0.4809760000000 1.0
C      1  0.5297850000000  0.5625370000000  0.4971610000000 1.0
C      1  0.4955720000000  0.4405420000000  0.4756590000000 1.0
C      1  0.4744710000000  0.5580220000000  0.5036820000000 1.0
C      1  0.5034270000000  0.4380130000000  0.5291820000000 1.0
C      1  0.4281060000000  0.5444900000000  0.5078830000000 1.0
C      1  0.5095060000000  0.4549690000000  0.5727620000000 1.0
C      1  0.5722870000000  0.5450080000000  0.4905930000000 1.0
C      1  0.4920590000000  0.4546890000000  0.4302840000000 1.0
C      1  0.4389510000000  0.5182950000000  0.5019760000000 1.0
C      1  0.5013190000000  0.4814710000000  0.5681720000000 1.0
C      1  0.5676800000000  0.5182770000000  0.4984590000000 1.0
C      1  0.4972150000000  0.4819360000000  0.4338960000000 1.0
C      1  0.4760100000000  0.4919650000000  0.5758280000000 1.0
C      1  0.5757160000000  0.5076270000000  0.5238290000000 1.0
C      1  0.5233620000000  0.4906140000000  0.4247360000000 1.0
C      1  0.4257350000000  0.5098030000000  0.4767430000000 1.0
C      1  0.4493890000000  0.4430910000000  0.4938300000000 1.0
C      1  0.4934540000000  0.5558300000000  0.5507050000000 1.0
C      1  0.5504260000000  0.4424020000000  0.5051200000000 1.0
C      1  0.5067730000000  0.5572290000000  0.4467950000000 1.0
C      1  0.4317750000000  0.5259410000000  0.5313830000000 1.0
C      1  0.5330990000000  0.4746190000000  0.5691220000000 1.0
C      1  0.5688640000000  0.5249960000000  0.4674330000000 1.0
C      1  0.4675020000000  0.4746350000000  0.4316090000000 1.0
C      1  0.5563060000000  0.4913810000000  0.4667330000000 1.0
C      1  0.4664620000000  0.5087130000000  0.4420440000000 1.0
C      1  0.4417130000000  0.4918070000000  0.5333070000000 1.0
C      1  0.5332360000000  0.5076700000000  0.5583620000000 1.0
C      1  0.5203770000000  0.5177080000000  0.4902580000000 1.0
C      1  0.4912110000000  0.4844500000000  0.4800220000000 1.0
C      1  0.4774260000000  0.5168850000000  0.5110580000000 1.0
C      1  0.5089620000000  0.4836150000000  0.5223700000000 1.0
C      1  0.5295830000000  0.5034100000000  0.4669720000000 1.0
C      1  0.4677020000000  0.4984730000000  0.4700370000000 1.0
C      1  0.4692820000000  0.5023810000000  0.5347740000000 1.0
C      1  0.5329240000000  0.4978320000000  0.5303720000000 1.0
C      1  0.5050160000000  0.4166240000000  0.4852430000000 1.0
C      1  0.4852450000000  0.5849470000000  0.4955820000000 1.0
C      1  0.4962980000000  0.4159500000000  0.5140330000000 1.0
C      1  0.5144040000000  0.5845720000000  0.5032610000000 1.0
C      1  0.4466600000000  0.4449950000000  0.5378290000000 1.0
C      1  0.5375140000000  0.5538590000000  0.5527770000000 1.0
C      1  0.5517810000000  0.4455120000000  0.4630500000000 1.0
C      1  0.4623330000000  0.5543090000000  0.4499310000000 1.0
C      1  0.4470890000000  0.5306200000000  0.4398220000000 1.0
C      1  0.4351810000000  0.4699940000000  0.5510490000000 1.0
C      1  0.5512140000000  0.5296430000000  0.5649070000000 1.0
C      1  0.5592770000000  0.4691660000000  0.4472030000000 1.0
C      1  0.5479570000000  0.4618670000000  0.5469090000000 1.0
C      1  0.5470580000000  0.5375350000000  0.4519150000000 1.0
C      1  0.4515100000000  0.4623140000000  0.4534540000000 1.0
C      1  0.4531580000000  0.5383670000000  0.5480250000000 1.0
C      1  0.5048490000000  0.5256720000000  0.5663250000000 1.0
C      1  0.5654910000000  0.4735000000000  0.4946970000000 1.0
C      1  0.4950540000000  0.5257990000000  0.4337180000000 1.0
C      1  0.4341980000000  0.4740680000000  0.5046720000000 1.0
END
