TITL C-2441169-1362-1289 0.0262464507719206 125000 -19650.0549844143 0 0 134 (C1) n - 1
REM
REM in /home/bkarasulu/work/CARBON/AIRSS/Generating-Clusters/ReaxFF-fromJPCA2015/Units_Real/with-SteepDescent/Higher-Symm
REM
REM
REM
REM
REM
REM ./C.cell (1df0a924f5614ab8850e4351716899ee)
REM
REM compiler GCC version 9.2.1 20190827 (Red Hat 9.2.1-1)
REM options -cpp -mtune=generic -march=x86-64 -g -O0 -fpre-include=/usr/include/finclude/math-vector-fortran.h
REM seed 1640498908 -1351785503 -567780232 1155555824 1280023509 41728801 871906657 2130802594 16468271 1205423371 -1957699900 -62722418 1333096605 1012890427 700266908 -1848248639 -1947307971 -1253650265 1008868819 -1953112554 153615711 245944879 -727809546 -679197137 -1785816855 129650186 -1726574966 -176828374 2019732226 1041438194 1060835628 -334360818 1145778135
REM
CELL 1.54180   50.00000   50.00000   50.00000   90.00000   90.00000   90.00000
LATT -1
SFAC C  
C      1  0.5141150000000  0.5995850000000  0.5281340000000 1.0
C      1  0.4644010000000  0.6024980000000  0.4925520000000 1.0
C      1  0.5273300000000  0.6056770000000  0.4621500000000 1.0
C      1  0.5108400000000  0.3966460000000  0.5352470000000 1.0
C      1  0.4655380000000  0.3881220000000  0.4858740000000 1.0
C      1  0.5209540000000  0.3929520000000  0.4767450000000 1.0
C      1  0.4191500000000  0.4818440000000  0.5018440000000 1.0
C      1  0.5466000000000  0.4851740000000  0.4192540000000 1.0
C      1  0.5466010000000  0.4850290000000  0.5811700000000 1.0
C      1  0.4084380000000  0.5136690000000  0.4985360000000 1.0
C      1  0.5455950000000  0.5151840000000  0.4223970000000 1.0
C      1  0.5446350000000  0.5136260000000  0.5802490000000 1.0
C      1  0.5751730000000  0.4626770000000  0.5445950000000 1.0
C      1  0.4248240000000  0.4574130000000  0.5454380000000 1.0
C      1  0.5000420000000  0.4612560000000  0.4153720000000 1.0
C      1  0.5770050000000  0.5361650000000  0.5461830000000 1.0
C      1  0.4229870000000  0.5348980000000  0.5433200000000 1.0
C      1  0.4989030000000  0.5385890000000  0.4143760000000 1.0
C      1  0.5583630000000  0.5697640000000  0.4533470000000 1.0
C      1  0.5138580000000  0.5688250000000  0.5664130000000 1.0
C      1  0.4308680000000  0.5712090000000  0.4770070000000 1.0
C      1  0.5578240000000  0.4263510000000  0.4535170000000 1.0
C      1  0.5130830000000  0.4292870000000  0.5726490000000 1.0
C      1  0.4308540000000  0.4273260000000  0.4736780000000 1.0
C      1  0.5804090000000  0.5547370000000  0.4669970000000 1.0
C      1  0.4914090000000  0.5550040000000  0.5802070000000 1.0
C      1  0.4287510000000  0.5582880000000  0.4505790000000 1.0
C      1  0.5761310000000  0.4431590000000  0.4693920000000 1.0
C      1  0.4900790000000  0.4428420000000  0.5859340000000 1.0
C      1  0.4310810000000  0.4425250000000  0.4480870000000 1.0
C      1  0.4144650000000  0.5316440000000  0.4479740000000 1.0
C      1  0.5880480000000  0.5297390000000  0.4532000000000 1.0
C      1  0.4971470000000  0.5306230000000  0.5964370000000 1.0
C      1  0.4178790000000  0.4704160000000  0.4459030000000 1.0
C      1  0.5776770000000  0.4741660000000  0.4600110000000 1.0
C      1  0.4928390000000  0.4686680000000  0.5985650000000 1.0
C      1  0.4557380000000  0.4410790000000  0.4355570000000 1.0
C      1  0.5741230000000  0.4419700000000  0.4966560000000 1.0
C      1  0.4657660000000  0.4398190000000  0.5709810000000 1.0
C      1  0.4529650000000  0.5582530000000  0.4368020000000 1.0
C      1  0.5801020000000  0.5558350000000  0.4963480000000 1.0
C      1  0.4665730000000  0.5565390000000  0.5660550000000 1.0
C      1  0.5476960000000  0.5126140000000  0.4761860000000 1.0
C      1  0.4967100000000  0.5057970000000  0.5524450000000 1.0
C      1  0.4557970000000  0.5036790000000  0.4708830000000 1.0
C      1  0.5509710000000  0.4870590000000  0.4653600000000 1.0
C      1  0.5106810000000  0.4823440000000  0.5598910000000 1.0
C      1  0.4598940000000  0.4758780000000  0.4777250000000 1.0
C      1  0.4439010000000  0.5581360000000  0.5502290000000 1.0
C      1  0.4775550000000  0.5601020000000  0.4265600000000 1.0
C      1  0.5764140000000  0.5579480000000  0.5237340000000 1.0
C      1  0.4444790000000  0.4356630000000  0.5546090000000 1.0
C      1  0.4810160000000  0.4387700000000  0.4252750000000 1.0
C      1  0.5700610000000  0.4418260000000  0.5245930000000 1.0
C      1  0.4620050000000  0.5116880000000  0.4435530000000 1.0
C      1  0.5685640000000  0.5146700000000  0.4969530000000 1.0
C      1  0.4698870000000  0.5103550000000  0.5649630000000 1.0
C      1  0.4626320000000  0.4867250000000  0.4273140000000 1.0
C      1  0.5796560000000  0.4892390000000  0.5063040000000 1.0
C      1  0.4562480000000  0.4848290000000  0.5702720000000 1.0
C      1  0.4328080000000  0.4878400000000  0.4255010000000 1.0
C      1  0.5953060000000  0.4873490000000  0.4817330000000 1.0
C      1  0.4690210000000  0.4848480000000  0.5977790000000 1.0
C      1  0.4337950000000  0.5162450000000  0.4316630000000 1.0
C      1  0.5933550000000  0.5163150000000  0.4782520000000 1.0
C      1  0.4729770000000  0.5144730000000  0.5943540000000 1.0
C      1  0.5736010000000  0.4856750000000  0.4308000000000 1.0
C      1  0.5179970000000  0.4836300000000  0.5892730000000 1.0
C      1  0.4102480000000  0.4796490000000  0.4717310000000 1.0
C      1  0.5742250000000  0.5149190000000  0.4314460000000 1.0
C      1  0.5203050000000  0.5138150000000  0.5943960000000 1.0
C      1  0.4111770000000  0.5226700000000  0.4739690000000 1.0
C      1  0.5388870000000  0.4363900000000  0.4323000000000 1.0
C      1  0.5378460000000  0.4396670000000  0.5625540000000 1.0
C      1  0.4213210000000  0.4335160000000  0.5013690000000 1.0
C      1  0.5361300000000  0.5630550000000  0.4361280000000 1.0
C      1  0.5401320000000  0.5601870000000  0.5593170000000 1.0
C      1  0.4279010000000  0.5617670000000  0.5040680000000 1.0
C      1  0.4707030000000  0.5111270000000  0.5172390000000 1.0
C      1  0.4985090000000  0.5186040000000  0.4643040000000 1.0
C      1  0.5324940000000  0.5165420000000  0.5164240000000 1.0
C      1  0.4707970000000  0.4820560000000  0.5212350000000 1.0
C      1  0.5007380000000  0.4889040000000  0.4637100000000 1.0
C      1  0.5298090000000  0.4876080000000  0.5148320000000 1.0
C      1  0.4613370000000  0.5217680000000  0.4921360000000 1.0
C      1  0.5243880000000  0.5282790000000  0.4738740000000 1.0
C      1  0.5120250000000  0.5232420000000  0.5351420000000 1.0
C      1  0.4488000000000  0.4727030000000  0.5043020000000 1.0
C      1  0.5258730000000  0.4748230000000  0.4658360000000 1.0
C      1  0.5179670000000  0.4684430000000  0.5361200000000 1.0
C      1  0.5250700000000  0.5443820000000  0.4977830000000 1.0
C      1  0.4878230000000  0.5329820000000  0.5233080000000 1.0
C      1  0.4824520000000  0.5371750000000  0.4807100000000 1.0
C      1  0.5246460000000  0.4684600000000  0.4936430000000 1.0
C      1  0.4930030000000  0.4628540000000  0.5216980000000 1.0
C      1  0.4866440000000  0.4672130000000  0.4746470000000 1.0
C      1  0.4435100000000  0.5736090000000  0.5252670000000 1.0
C      1  0.5169490000000  0.5846420000000  0.4430290000000 1.0
C      1  0.5534420000000  0.5729370000000  0.5366080000000 1.0
C      1  0.4414750000000  0.4210000000000  0.5138990000000 1.0
C      1  0.5173670000000  0.4234660000000  0.4418350000000 1.0
C      1  0.5422510000000  0.4345740000000  0.5342430000000 1.0
C      1  0.5476380000000  0.5872010000000  0.4745750000000 1.0
C      1  0.5015400000000  0.5872660000000  0.5497240000000 1.0
C      1  0.4474960000000  0.5936400000000  0.4731370000000 1.0
C      1  0.5457850000000  0.4096570000000  0.4744200000000 1.0
C      1  0.5018520000000  0.4078230000000  0.5582710000000 1.0
C      1  0.4499710000000  0.4050840000000  0.4703360000000 1.0
C      1  0.4131240000000  0.4573150000000  0.5192120000000 1.0
C      1  0.5281050000000  0.4618390000000  0.4195860000000 1.0
C      1  0.5562250000000  0.4624360000000  0.5662100000000 1.0
C      1  0.4153820000000  0.5375080000000  0.5147480000000 1.0
C      1  0.5275320000000  0.5383680000000  0.4219750000000 1.0
C      1  0.5554660000000  0.5363520000000  0.5654290000000 1.0
C      1  0.5386890000000  0.5715130000000  0.4981270000000 1.0
C      1  0.4902360000000  0.5811720000000  0.5243410000000 1.0
C      1  0.4748100000000  0.5952350000000  0.4668360000000 1.0
C      1  0.5219330000000  0.4190340000000  0.4939610000000 1.0
C      1  0.4861320000000  0.4095330000000  0.5347420000000 1.0
C      1  0.4809960000000  0.4064560000000  0.4724080000000 1.0
C      1  0.4569870000000  0.4141010000000  0.5348380000000 1.0
C      1  0.4916520000000  0.4176090000000  0.4449390000000 1.0
C      1  0.5302640000000  0.4115810000000  0.5211220000000 1.0
C      1  0.4645110000000  0.5913510000000  0.5179040000000 1.0
C      1  0.4878000000000  0.5799670000000  0.4456340000000 1.0
C      1  0.5385570000000  0.5887700000000  0.5197450000000 1.0
C      1  0.5861120000000  0.4866310000000  0.5338300000000 1.0
C      1  0.4277460000000  0.4830770000000  0.5606560000000 1.0
C      1  0.4862420000000  0.4863900000000  0.4084650000000 1.0
C      1  0.5802000000000  0.5112020000000  0.5439110000000 1.0
C      1  0.4247520000000  0.5092300000000  0.5516940000000 1.0
C      1  0.4956670000000  0.5128200000000  0.4106910000000 1.0
C      1  0.5012820000000  0.4501700000000  0.4959120000000 1.0
C      1  0.4960430000000  0.5519440000000  0.5021910000000 1.0
END
