TITL C-2441163-1170-336 0.0406074724356374 125000 -12310.0165492981 0 0 92 (C1) n - 1
REM
REM in /home/bkarasulu/work/CARBON/AIRSS/Generating-Clusters/ReaxFF-fromJPCA2015/Units_Real/with-SteepDescent/Higher-Symm
REM
REM
REM
REM
REM
REM ./C.cell (1df0a924f5614ab8850e4351716899ee)
REM
REM compiler GCC version 9.2.1 20190827 (Red Hat 9.2.1-1)
REM options -cpp -mtune=generic -march=x86-64 -g -O0 -fpre-include=/usr/include/finclude/math-vector-fortran.h
REM seed -279425122 1358105993 524491076 1845558816 -269413924 -419178244 1675591493 -1202771127 602906646 87356926 -1365934258 760848297 424767322 394149036 -123546172 -1742515872 -1412628309 1673852190 -928613943 -542835683 380854645 -62877214 966275182 -378426104 218008560 -1088979152 -1114756212 -1649262863 -1338148067 -2076663629 -386973489 -780325828 -750678565
REM
CELL 1.54180   50.00000   50.00000   50.00000   90.00000   90.00000   90.00000
LATT -1
SFAC C  
C      1  0.5778270000000  0.5090300000000  0.5337370000000 1.0
C      1  0.5768410000000  0.4793440000000  0.5280080000000 1.0
C      1  0.5784740000000  0.4661100000000  0.5016500000000 1.0
C      1  0.5778640000000  0.4779340000000  0.4740650000000 1.0
C      1  0.5776180000000  0.5063840000000  0.4659290000000 1.0
C      1  0.5770760000000  0.5310620000000  0.4839130000000 1.0
C      1  0.5779380000000  0.5311790000000  0.5135870000000 1.0
C      1  0.5258500000000  0.4658590000000  0.5695790000000 1.0
C      1  0.5255940000000  0.4261000000000  0.5177880000000 1.0
C      1  0.5263650000000  0.4413660000000  0.4504890000000 1.0
C      1  0.5239920000000  0.5028320000000  0.4244920000000 1.0
C      1  0.5262740000000  0.5615550000000  0.4524410000000 1.0
C      1  0.5264530000000  0.5746660000000  0.5194190000000 1.0
C      1  0.5232700000000  0.5307460000000  0.5688460000000 1.0
C      1  0.5491420000000  0.5403150000000  0.5495060000000 1.0
C      1  0.5471470000000  0.4865320000000  0.5584840000000 1.0
C      1  0.5504220000000  0.4397430000000  0.5277060000000 1.0
C      1  0.5467420000000  0.4456350000000  0.4732530000000 1.0
C      1  0.5498600000000  0.4848290000000  0.4366520000000 1.0
C      1  0.5476720000000  0.5378890000000  0.4528960000000 1.0
C      1  0.5489260000000  0.5641690000000  0.5015470000000 1.0
C      1  0.5042930000000  0.4766650000000  0.5228400000000 1.0
C      1  0.4960640000000  0.4702860000000  0.4949760000000 1.0
C      1  0.5035280000000  0.4840450000000  0.4701890000000 1.0
C      1  0.4972780000000  0.5116900000000  0.4715670000000 1.0
C      1  0.5043210000000  0.5321370000000  0.4884810000000 1.0
C      1  0.5010710000000  0.5282330000000  0.5180870000000 1.0
C      1  0.4963540000000  0.5025120000000  0.5287840000000 1.0
C      1  0.5629230000000  0.5532420000000  0.5249710000000 1.0
C      1  0.5626890000000  0.5159870000000  0.5573450000000 1.0
C      1  0.5605540000000  0.4625980000000  0.5452900000000 1.0
C      1  0.5647540000000  0.4404770000000  0.5028700000000 1.0
C      1  0.5622140000000  0.4632180000000  0.4543290000000 1.0
C      1  0.5628370000000  0.5099880000000  0.4412820000000 1.0
C      1  0.5615600000000  0.5536060000000  0.4747340000000 1.0
C      1  0.4721570000000  0.4952680000000  0.4291270000000 1.0
C      1  0.4871660000000  0.5567470000000  0.4648240000000 1.0
C      1  0.4860790000000  0.5616380000000  0.5213700000000 1.0
C      1  0.4708390000000  0.5339670000000  0.5632930000000 1.0
C      1  0.4870020000000  0.4658430000000  0.5559070000000 1.0
C      1  0.4833150000000  0.4276550000000  0.5094020000000 1.0
C      1  0.4853930000000  0.4511210000000  0.4532220000000 1.0
C      1  0.4564790000000  0.5622660000000  0.5278230000000 1.0
C      1  0.4624890000000  0.5063090000000  0.5650390000000 1.0
C      1  0.4563010000000  0.4595390000000  0.5483700000000 1.0
C      1  0.4552660000000  0.4328270000000  0.5014860000000 1.0
C      1  0.4564060000000  0.4549500000000  0.4517350000000 1.0
C      1  0.4629920000000  0.5210380000000  0.4375390000000 1.0
C      1  0.4571840000000  0.5581800000000  0.4755300000000 1.0
C      1  0.5036490000000  0.4291360000000  0.4638810000000 1.0
C      1  0.5010020000000  0.4853240000000  0.4234020000000 1.0
C      1  0.5020550000000  0.5522420000000  0.4380750000000 1.0
C      1  0.5040790000000  0.5793990000000  0.5023220000000 1.0
C      1  0.4995900000000  0.5460910000000  0.5622210000000 1.0
C      1  0.5015530000000  0.4804680000000  0.5786770000000 1.0
C      1  0.5023860000000  0.4260870000000  0.5342530000000 1.0
C      1  0.5387080000000  0.4703190000000  0.4901200000000 1.0
C      1  0.5331400000000  0.4897750000000  0.4695950000000 1.0
C      1  0.5380750000000  0.5176220000000  0.4721580000000 1.0
C      1  0.5321470000000  0.5315570000000  0.4933530000000 1.0
C      1  0.5319960000000  0.5232020000000  0.5236620000000 1.0
C      1  0.5371290000000  0.4964830000000  0.5319980000000 1.0
C      1  0.5310970000000  0.4751730000000  0.5168960000000 1.0
C      1  0.4416450000000  0.5621930000000  0.5023160000000 1.0
C      1  0.4481830000000  0.5424200000000  0.5475120000000 1.0
C      1  0.4424310000000  0.4860930000000  0.5581840000000 1.0
C      1  0.4403580000000  0.4441110000000  0.5241970000000 1.0
C      1  0.4436330000000  0.4453380000000  0.4766560000000 1.0
C      1  0.4488600000000  0.4812150000000  0.4406730000000 1.0
C      1  0.4409150000000  0.5397130000000  0.4506360000000 1.0
C      1  0.5081500000000  0.4471030000000  0.5543370000000 1.0
C      1  0.5061480000000  0.4243390000000  0.4927950000000 1.0
C      1  0.5069720000000  0.4589140000000  0.4346630000000 1.0
C      1  0.5127900000000  0.5272290000000  0.4304670000000 1.0
C      1  0.5088690000000  0.5732560000000  0.4739310000000 1.0
C      1  0.5069540000000  0.5660400000000  0.5418740000000 1.0
C      1  0.5122090000000  0.5064240000000  0.5744270000000 1.0
C      1  0.4295600000000  0.5228120000000  0.5306790000000 1.0
C      1  0.4267890000000  0.4926050000000  0.5353440000000 1.0
C      1  0.4260850000000  0.4682540000000  0.5151590000000 1.0
C      1  0.4255050000000  0.4666070000000  0.4852510000000 1.0
C      1  0.4302720000000  0.4891820000000  0.4642410000000 1.0
C      1  0.4232200000000  0.5227360000000  0.4710130000000 1.0
C      1  0.4220170000000  0.5378490000000  0.4987950000000 1.0
C      1  0.4635320000000  0.4768640000000  0.5247780000000 1.0
C      1  0.4692650000000  0.4725480000000  0.4982310000000 1.0
C      1  0.4563590000000  0.4911380000000  0.4791780000000 1.0
C      1  0.4699900000000  0.5158920000000  0.4684440000000 1.0
C      1  0.4640750000000  0.5333180000000  0.4890060000000 1.0
C      1  0.4562050000000  0.5205330000000  0.5128300000000 1.0
C      1  0.4701640000000  0.5002830000000  0.5347300000000 1.0
C      1  0.4406960000000  0.5020260000000  0.4997470000000 1.0
END
