TITL C-2441167-4473-728 0.116822660326902 125000 -23161.8126253871 0 0 168 (C1) n - 1
REM
REM in /home/bkarasulu/work/CARBON/AIRSS/Generating-Clusters/ReaxFF-fromJPCA2015/Units_Real/with-SteepDescent/Higher-Symm
REM
REM
REM
REM
REM
REM ./C.cell (1df0a924f5614ab8850e4351716899ee)
REM
REM compiler GCC version 9.2.1 20190827 (Red Hat 9.2.1-1)
REM options -cpp -mtune=generic -march=x86-64 -g -O0 -fpre-include=/usr/include/finclude/math-vector-fortran.h
REM seed -1469929954 -52433212 -588983558 -1322086665 -385777990 -1364176626 41270161 140975833 -1978104891 -306394083 427343449 -338640351 2047878864 -703381367 -1184921128 406590927 2117298902 -1869949746 868497981 -418938167 -642875369 254984114 1496424221 -1113554593 -2022607391 1053934322 502093168 1792825030 1756491088 1341173143 1239591392 1253487561 1937311015
REM
CELL 1.54180   50.00000   50.00000   50.00000   90.00000   90.00000   90.00000
LATT -1
SFAC C  
C      1  0.4163850000000  0.5628050000000  0.5206290000000 1.0
C      1  0.5353880000000  0.6006610000000  0.5228810000000 1.0
C      1  0.6030770000000  0.4923680000000  0.5274470000000 1.0
C      1  0.5310220000000  0.3985300000000  0.5245990000000 1.0
C      1  0.4147730000000  0.4383620000000  0.5232910000000 1.0
C      1  0.4763880000000  0.5075740000000  0.6039210000000 1.0
C      1  0.5001000000000  0.5247240000000  0.6048560000000 1.0
C      1  0.5239620000000  0.5082690000000  0.6035650000000 1.0
C      1  0.5154460000000  0.4802930000000  0.6025680000000 1.0
C      1  0.4863440000000  0.4801300000000  0.6037550000000 1.0
C      1  0.5193840000000  0.5182350000000  0.3958650000000 1.0
C      1  0.5214560000000  0.4888240000000  0.4023330000000 1.0
C      1  0.4941000000000  0.4765260000000  0.3991980000000 1.0
C      1  0.4763120000000  0.4981960000000  0.3979890000000 1.0
C      1  0.4912920000000  0.5230480000000  0.3977190000000 1.0
C      1  0.4513280000000  0.4812340000000  0.5253250000000 1.0
C      1  0.4613500000000  0.5527340000000  0.5071860000000 1.0
C      1  0.5366970000000  0.5537050000000  0.5073290000000 1.0
C      1  0.5564900000000  0.4866650000000  0.5235300000000 1.0
C      1  0.5043770000000  0.4367630000000  0.5041300000000 1.0
C      1  0.5107410000000  0.5724570000000  0.5568040000000 1.0
C      1  0.5747400000000  0.5094140000000  0.5550150000000 1.0
C      1  0.5286660000000  0.4358940000000  0.5535300000000 1.0
C      1  0.4502420000000  0.4503110000000  0.5567650000000 1.0
C      1  0.4357660000000  0.5362590000000  0.5567750000000 1.0
C      1  0.4014980000000  0.5096150000000  0.5267530000000 1.0
C      1  0.4810230000000  0.5969510000000  0.5259680000000 1.0
C      1  0.5865340000000  0.5508920000000  0.5275080000000 1.0
C      1  0.5738880000000  0.4342950000000  0.5264180000000 1.0
C      1  0.4580410000000  0.4049500000000  0.5262900000000 1.0
C      1  0.4930210000000  0.5838750000000  0.4403500000000 1.0
C      1  0.5777350000000  0.5327080000000  0.4392290000000 1.0
C      1  0.5557260000000  0.4344640000000  0.4398200000000 1.0
C      1  0.4572230000000  0.4290620000000  0.4405910000000 1.0
C      1  0.4188130000000  0.5193570000000  0.4395310000000 1.0
C      1  0.4814600000000  0.5474460000000  0.4097360000000 1.0
C      1  0.5398800000000  0.5337560000000  0.4080710000000 1.0
C      1  0.5453520000000  0.4721060000000  0.4097290000000 1.0
C      1  0.4880750000000  0.4514460000000  0.4104210000000 1.0
C      1  0.4501180000000  0.4971430000000  0.4091880000000 1.0
C      1  0.5775810000000  0.4477440000000  0.4523390000000 1.0
C      1  0.4763520000000  0.4116320000000  0.4522910000000 1.0
C      1  0.4086110000000  0.4953840000000  0.4512100000000 1.0
C      1  0.4674540000000  0.5859190000000  0.4526620000000 1.0
C      1  0.5728070000000  0.5575450000000  0.4519770000000 1.0
C      1  0.4670500000000  0.4040460000000  0.4792910000000 1.0
C      1  0.3974970000000  0.5008830000000  0.4782630000000 1.0
C      1  0.4703600000000  0.5974500000000  0.4800660000000 1.0
C      1  0.5850460000000  0.5584930000000  0.4798470000000 1.0
C      1  0.5827180000000  0.4354620000000  0.4788740000000 1.0
C      1  0.5374750000000  0.4461320000000  0.4205850000000 1.0
C      1  0.4612270000000  0.4492550000000  0.4206500000000 1.0
C      1  0.4398430000000  0.5218730000000  0.4199990000000 1.0
C      1  0.5020110000000  0.5649710000000  0.4204060000000 1.0
C      1  0.5625390000000  0.5182450000000  0.4198650000000 1.0
C      1  0.5298920000000  0.4113500000000  0.5494270000000 1.0
C      1  0.4226890000000  0.4489250000000  0.5490910000000 1.0
C      1  0.4278840000000  0.5623550000000  0.5471740000000 1.0
C      1  0.5354510000000  0.5867610000000  0.5487240000000 1.0
C      1  0.5980380000000  0.4986940000000  0.5552950000000 1.0
C      1  0.4861720000000  0.4382060000000  0.5737880000000 1.0
C      1  0.4398150000000  0.4948070000000  0.5709670000000 1.0
C      1  0.4765980000000  0.5544620000000  0.5737230000000 1.0
C      1  0.5429000000000  0.5364520000000  0.5686770000000 1.0
C      1  0.5524540000000  0.4700660000000  0.5695440000000 1.0
C      1  0.5104610000000  0.4135900000000  0.4881550000000 1.0
C      1  0.4090320000000  0.4604780000000  0.4820290000000 1.0
C      1  0.4410890000000  0.5643690000000  0.4884900000000 1.0
C      1  0.5416350000000  0.5747270000000  0.4888690000000 1.0
C      1  0.5769540000000  0.4785140000000  0.4904730000000 1.0
C      1  0.5513940000000  0.5213630000000  0.4740140000000 1.0
C      1  0.5395880000000  0.4716110000000  0.4668430000000 1.0
C      1  0.4847610000000  0.4574670000000  0.4726800000000 1.0
C      1  0.4528330000000  0.5046560000000  0.4752990000000 1.0
C      1  0.4876940000000  0.5456260000000  0.4721400000000 1.0
C      1  0.5802370000000  0.5709390000000  0.5059220000000 1.0
C      1  0.5926960000000  0.4443330000000  0.5047760000000 1.0
C      1  0.4770190000000  0.3952880000000  0.5050590000000 1.0
C      1  0.3938120000000  0.4903910000000  0.5053810000000 1.0
C      1  0.4582260000000  0.5971000000000  0.5063640000000 1.0
C      1  0.5606770000000  0.4185640000000  0.4862980000000 1.0
C      1  0.4437120000000  0.4192300000000  0.4856630000000 1.0
C      1  0.4028200000000  0.5290590000000  0.4830430000000 1.0
C      1  0.4984390000000  0.6003290000000  0.4855260000000 1.0
C      1  0.5943410000000  0.5328810000000  0.4868970000000 1.0
C      1  0.5344620000000  0.4991240000000  0.4715320000000 1.0
C      1  0.5134030000000  0.4582830000000  0.4656750000000 1.0
C      1  0.4636130000000  0.4775780000000  0.4671050000000 1.0
C      1  0.4691400000000  0.5252810000000  0.4628280000000 1.0
C      1  0.5132220000000  0.5331340000000  0.4670890000000 1.0
C      1  0.4798720000000  0.4513080000000  0.4983860000000 1.0
C      1  0.4371950000000  0.5130480000000  0.4981190000000 1.0
C      1  0.4876230000000  0.5552460000000  0.4978840000000 1.0
C      1  0.5497400000000  0.5295940000000  0.5010750000000 1.0
C      1  0.5509800000000  0.4637220000000  0.4922990000000 1.0
C      1  0.5641780000000  0.5150990000000  0.5217220000000 1.0
C      1  0.5235610000000  0.4616590000000  0.5339500000000 1.0
C      1  0.4808700000000  0.4514530000000  0.5473360000000 1.0
C      1  0.4589380000000  0.5221380000000  0.5394880000000 1.0
C      1  0.5057360000000  0.5462440000000  0.5405960000000 1.0
C      1  0.5107340000000  0.5917150000000  0.4610720000000 1.0
C      1  0.5818060000000  0.5173640000000  0.4657590000000 1.0
C      1  0.5458970000000  0.4180410000000  0.4613130000000 1.0
C      1  0.4390410000000  0.4322880000000  0.4612780000000 1.0
C      1  0.4161510000000  0.5380310000000  0.4602550000000 1.0
C      1  0.4211170000000  0.4529720000000  0.4590880000000 1.0
C      1  0.4326310000000  0.5590850000000  0.4620900000000 1.0
C      1  0.5351530000000  0.5808520000000  0.4630490000000 1.0
C      1  0.5885190000000  0.4885500000000  0.4670890000000 1.0
C      1  0.5199950000000  0.4114060000000  0.4625620000000 1.0
C      1  0.4427550000000  0.4716040000000  0.4202710000000 1.0
C      1  0.4549100000000  0.5465630000000  0.4209060000000 1.0
C      1  0.5303070000000  0.5581060000000  0.4205790000000 1.0
C      1  0.5645760000000  0.4891790000000  0.4228040000000 1.0
C      1  0.5102440000000  0.4363680000000  0.4214050000000 1.0
C      1  0.5533170000000  0.4159250000000  0.5146180000000 1.0
C      1  0.4367700000000  0.4231830000000  0.5135260000000 1.0
C      1  0.4125810000000  0.5331510000000  0.5099320000000 1.0
C      1  0.5076200000000  0.6009270000000  0.5131740000000 1.0
C      1  0.5928210000000  0.5236260000000  0.5145170000000 1.0
C      1  0.5483200000000  0.5634520000000  0.5356350000000 1.0
C      1  0.5785610000000  0.4736250000000  0.5323210000000 1.0
C      1  0.4925750000000  0.4270000000000  0.5335240000000 1.0
C      1  0.4248460000000  0.4761120000000  0.5346650000000 1.0
C      1  0.4552340000000  0.5664640000000  0.5368490000000 1.0
C      1  0.5476280000000  0.5680600000000  0.4419760000000 1.0
C      1  0.5739160000000  0.4757410000000  0.4468470000000 1.0
C      1  0.5027040000000  0.4168120000000  0.4416450000000 1.0
C      1  0.4219940000000  0.4732780000000  0.4396260000000 1.0
C      1  0.4497760000000  0.5662920000000  0.4415850000000 1.0
C      1  0.4989110000000  0.4721180000000  0.5420420000000 1.0
C      1  0.4563660000000  0.4964070000000  0.5476230000000 1.0
C      1  0.4835970000000  0.5321360000000  0.5531700000000 1.0
C      1  0.5237730000000  0.5237010000000  0.5486470000000 1.0
C      1  0.5403250000000  0.4800910000000  0.5444360000000 1.0
C      1  0.5225300000000  0.4963240000000  0.4328760000000 1.0
C      1  0.5062450000000  0.4766240000000  0.4447640000000 1.0
C      1  0.4797750000000  0.4861700000000  0.4446460000000 1.0
C      1  0.4823490000000  0.5141150000000  0.4403920000000 1.0
C      1  0.5107520000000  0.5216220000000  0.4400690000000 1.0
C      1  0.4590900000000  0.5247520000000  0.5114880000000 1.0
C      1  0.5083630000000  0.5432580000000  0.5124050000000 1.0
C      1  0.5098110000000  0.5129360000000  0.5114170000000 1.0
C      1  0.5258190000000  0.4578430000000  0.5052790000000 1.0
C      1  0.4725420000000  0.4775040000000  0.5072170000000 1.0
C      1  0.5289020000000  0.4604670000000  0.5870850000000 1.0
C      1  0.4723130000000  0.4583140000000  0.5908170000000 1.0
C      1  0.4521240000000  0.5150990000000  0.5903180000000 1.0
C      1  0.5000350000000  0.5504200000000  0.5916060000000 1.0
C      1  0.5465170000000  0.5161150000000  0.5887370000000 1.0
C      1  0.4501520000000  0.5420070000000  0.5810720000000 1.0
C      1  0.5243200000000  0.5592240000000  0.5790250000000 1.0
C      1  0.5654170000000  0.4975420000000  0.5791800000000 1.0
C      1  0.5153200000000  0.4362570000000  0.5790720000000 1.0
C      1  0.4459910000000  0.4659140000000  0.5801090000000 1.0
C      1  0.6024090000000  0.4717840000000  0.5012790000000 1.0
C      1  0.5061360000000  0.3929110000000  0.5072710000000 1.0
C      1  0.4011530000000  0.4605150000000  0.5062080000000 1.0
C      1  0.4314500000000  0.5838790000000  0.5068730000000 1.0
C      1  0.5582070000000  0.5909840000000  0.5057410000000 1.0
C      1  0.5686030000000  0.5503870000000  0.5502980000000 1.0
C      1  0.5729450000000  0.4516170000000  0.5494490000000 1.0
C      1  0.4750430000000  0.4116370000000  0.5484680000000 1.0
C      1  0.4132380000000  0.4978140000000  0.5498820000000 1.0
C      1  0.4754270000000  0.5817100000000  0.5509140000000 1.0
C      1  0.5105640000000  0.5091180000000  0.4835150000000 1.0
C      1  0.4936410000000  0.4930550000000  0.5252080000000 1.0
C      1  0.5007250000000  0.5076620000000  0.5547180000000 1.0
END
