TITL C-2441157-2117-524 0.109696412200783 125000 -25809.7063360449 0 0 194 (C1) n - 1
REM
REM in /home/bkarasulu/work/CARBON/AIRSS/Generating-Clusters/ReaxFF-fromJPCA2015/Units_Real/with-SteepDescent/Higher-Symm
REM
REM
REM
REM
REM
REM ./C.cell (1df0a924f5614ab8850e4351716899ee)
REM
REM compiler GCC version 9.2.1 20190827 (Red Hat 9.2.1-1)
REM options -cpp -mtune=generic -march=x86-64 -g -O0 -fpre-include=/usr/include/finclude/math-vector-fortran.h
REM seed -263166503 1972525574 -1553636066 1319977665 -1145079113 -1345778499 753573409 -1107057578 -1819088294 1678100632 -255116373 854800609 149377890 -476866906 333324266 258428332 -872132840 947698787 1217988144 935402188 -603306617 1290977610 2018204407 269597428 -1405070220 1025114314 -1823983817 -1638873133 -174408778 -995256036 1681626877 -966084042 -933128914
REM
CELL 1.54180   50.00000   50.00000   50.00000   90.00000   90.00000   90.00000
LATT -1
SFAC C  
C      1  0.5800790000000  0.5557480000000  0.4351380000000 1.0
C      1  0.5834990000000  0.4446220000000  0.5669850000000 1.0
C      1  0.4190800000000  0.5551380000000  0.4359050000000 1.0
C      1  0.4137520000000  0.4470790000000  0.5628250000000 1.0
C      1  0.5820920000000  0.5550740000000  0.5655040000000 1.0
C      1  0.5798560000000  0.4446090000000  0.4350120000000 1.0
C      1  0.4164850000000  0.5563480000000  0.5648050000000 1.0
C      1  0.4196610000000  0.4424390000000  0.4359380000000 1.0
C      1  0.4668040000000  0.5146160000000  0.5994990000000 1.0
C      1  0.4641900000000  0.4848650000000  0.4024570000000 1.0
C      1  0.5354710000000  0.5156390000000  0.5989510000000 1.0
C      1  0.5353170000000  0.4849750000000  0.4012180000000 1.0
C      1  0.4646810000000  0.5150390000000  0.4020900000000 1.0
C      1  0.4662110000000  0.4847650000000  0.5995350000000 1.0
C      1  0.5353320000000  0.5155380000000  0.4012940000000 1.0
C      1  0.5340950000000  0.4855520000000  0.5999750000000 1.0
C      1  0.4855280000000  0.4637530000000  0.4069350000000 1.0
C      1  0.4863960000000  0.5355690000000  0.5918740000000 1.0
C      1  0.5141780000000  0.4645920000000  0.4082670000000 1.0
C      1  0.5148210000000  0.5364280000000  0.5909120000000 1.0
C      1  0.4860840000000  0.4641040000000  0.5921280000000 1.0
C      1  0.4856920000000  0.5363680000000  0.4075610000000 1.0
C      1  0.5144500000000  0.4643960000000  0.5914090000000 1.0
C      1  0.5142800000000  0.5359360000000  0.4085050000000 1.0
C      1  0.3887270000000  0.4437400000000  0.5063440000000 1.0
C      1  0.3898320000000  0.5538220000000  0.4862520000000 1.0
C      1  0.6107240000000  0.4412190000000  0.5161010000000 1.0
C      1  0.6119470000000  0.5556010000000  0.4867030000000 1.0
C      1  0.3877870000000  0.4514480000000  0.4748800000000 1.0
C      1  0.3902050000000  0.5582410000000  0.5153360000000 1.0
C      1  0.6121800000000  0.4446060000000  0.4868390000000 1.0
C      1  0.6106390000000  0.5591680000000  0.5158310000000 1.0
C      1  0.5740030000000  0.4858140000000  0.4355650000000 1.0
C      1  0.5739170000000  0.5133530000000  0.5638730000000 1.0
C      1  0.4256510000000  0.4831510000000  0.4385580000000 1.0
C      1  0.4303700000000  0.5152630000000  0.5648330000000 1.0
C      1  0.5726740000000  0.4850850000000  0.5633250000000 1.0
C      1  0.5740310000000  0.5144280000000  0.4354850000000 1.0
C      1  0.4310260000000  0.4858150000000  0.5651130000000 1.0
C      1  0.4257820000000  0.5122280000000  0.4360450000000 1.0
C      1  0.4728230000000  0.4430490000000  0.5123940000000 1.0
C      1  0.4788440000000  0.5548460000000  0.4867300000000 1.0
C      1  0.5265550000000  0.4467590000000  0.5137020000000 1.0
C      1  0.5250550000000  0.5541840000000  0.4837740000000 1.0
C      1  0.4807060000000  0.4432520000000  0.4853160000000 1.0
C      1  0.4796680000000  0.5552160000000  0.5134590000000 1.0
C      1  0.5249050000000  0.4457320000000  0.4848030000000 1.0
C      1  0.5274240000000  0.5543430000000  0.5126760000000 1.0
C      1  0.4627600000000  0.5154580000000  0.5131130000000 1.0
C      1  0.4635420000000  0.4856670000000  0.4861820000000 1.0
C      1  0.5423250000000  0.5138880000000  0.5133920000000 1.0
C      1  0.5460830000000  0.4862870000000  0.4848690000000 1.0
C      1  0.4564300000000  0.5133840000000  0.4839790000000 1.0
C      1  0.4671510000000  0.4875310000000  0.5125830000000 1.0
C      1  0.5448800000000  0.5144930000000  0.4850550000000 1.0
C      1  0.5419170000000  0.4851450000000  0.5135100000000 1.0
C      1  0.4855690000000  0.4689210000000  0.5242580000000 1.0
C      1  0.4807240000000  0.5285690000000  0.4747650000000 1.0
C      1  0.5166040000000  0.4739850000000  0.5259720000000 1.0
C      1  0.5202120000000  0.5272280000000  0.4740390000000 1.0
C      1  0.4835780000000  0.4692300000000  0.4734850000000 1.0
C      1  0.4852170000000  0.5294910000000  0.5247150000000 1.0
C      1  0.5226300000000  0.4725440000000  0.4737900000000 1.0
C      1  0.5182660000000  0.5269460000000  0.5245660000000 1.0
C      1  0.5151950000000  0.4202230000000  0.5283310000000 1.0
C      1  0.5145070000000  0.5785670000000  0.4707270000000 1.0
C      1  0.4862640000000  0.4197010000000  0.5287420000000 1.0
C      1  0.4861520000000  0.5793850000000  0.4712160000000 1.0
C      1  0.5146490000000  0.4207820000000  0.4721440000000 1.0
C      1  0.5157610000000  0.5806450000000  0.5281770000000 1.0
C      1  0.4868900000000  0.4190250000000  0.4722880000000 1.0
C      1  0.4858620000000  0.5797530000000  0.5281290000000 1.0
C      1  0.5638960000000  0.5193990000000  0.5947390000000 1.0
C      1  0.5636750000000  0.4798660000000  0.4047170000000 1.0
C      1  0.4393140000000  0.5236600000000  0.5946940000000 1.0
C      1  0.4358450000000  0.4790360000000  0.4079140000000 1.0
C      1  0.5637020000000  0.5203780000000  0.4047670000000 1.0
C      1  0.5618030000000  0.4789970000000  0.5958010000000 1.0
C      1  0.4365130000000  0.5200640000000  0.4066630000000 1.0
C      1  0.4385680000000  0.4757600000000  0.5952800000000 1.0
C      1  0.5492220000000  0.4697010000000  0.4410640000000 1.0
C      1  0.5507480000000  0.5307880000000  0.5579030000000 1.0
C      1  0.4510150000000  0.4660950000000  0.4423650000000 1.0
C      1  0.4540190000000  0.5300550000000  0.5549340000000 1.0
C      1  0.5500020000000  0.4660880000000  0.5588030000000 1.0
C      1  0.5492140000000  0.5306920000000  0.4413160000000 1.0
C      1  0.4515430000000  0.4685880000000  0.5535470000000 1.0
C      1  0.4522560000000  0.5328660000000  0.4422790000000 1.0
C      1  0.5510410000000  0.5877120000000  0.4590250000000 1.0
C      1  0.5526460000000  0.4156510000000  0.5411330000000 1.0
C      1  0.4489970000000  0.5861980000000  0.4597900000000 1.0
C      1  0.4492300000000  0.4135410000000  0.5417080000000 1.0
C      1  0.5528070000000  0.5861850000000  0.5415050000000 1.0
C      1  0.5507570000000  0.4128860000000  0.4588740000000 1.0
C      1  0.4483480000000  0.5821960000000  0.5405420000000 1.0
C      1  0.4500920000000  0.4160320000000  0.4588690000000 1.0
C      1  0.4858310000000  0.5613550000000  0.5730600000000 1.0
C      1  0.4858900000000  0.4391850000000  0.4264520000000 1.0
C      1  0.5141220000000  0.5611810000000  0.5722910000000 1.0
C      1  0.5141790000000  0.4394810000000  0.4269580000000 1.0
C      1  0.4856920000000  0.5610920000000  0.4267150000000 1.0
C      1  0.4864600000000  0.4380680000000  0.5738230000000 1.0
C      1  0.5141120000000  0.5614740000000  0.4266110000000 1.0
C      1  0.5145570000000  0.4391520000000  0.5728880000000 1.0
C      1  0.3857050000000  0.4791410000000  0.4844810000000 1.0
C      1  0.3947320000000  0.5329450000000  0.5297200000000 1.0
C      1  0.6048730000000  0.4686360000000  0.4713230000000 1.0
C      1  0.6065120000000  0.5335940000000  0.5303040000000 1.0
C      1  0.3862990000000  0.4722800000000  0.5147020000000 1.0
C      1  0.3981630000000  0.5291150000000  0.4726210000000 1.0
C      1  0.6067830000000  0.4666810000000  0.5305670000000 1.0
C      1  0.6048910000000  0.5312970000000  0.4713720000000 1.0
C      1  0.5596650000000  0.5589710000000  0.4585010000000 1.0
C      1  0.5624210000000  0.4434550000000  0.5431350000000 1.0
C      1  0.4402060000000  0.5569830000000  0.4599500000000 1.0
C      1  0.4386620000000  0.4434250000000  0.5452240000000 1.0
C      1  0.5659470000000  0.5606760000000  0.5403760000000 1.0
C      1  0.5598630000000  0.4416700000000  0.4584320000000 1.0
C      1  0.4402370000000  0.5541120000000  0.5430160000000 1.0
C      1  0.4413920000000  0.4442160000000  0.4594460000000 1.0
C      1  0.4150460000000  0.4817620000000  0.4842460000000 1.0
C      1  0.4156030000000  0.5162640000000  0.5155920000000 1.0
C      1  0.5844920000000  0.4848880000000  0.4856760000000 1.0
C      1  0.5922390000000  0.5141020000000  0.5140690000000 1.0
C      1  0.4089720000000  0.4856240000000  0.5258480000000 1.0
C      1  0.4193890000000  0.5108460000000  0.4847830000000 1.0
C      1  0.5928450000000  0.4859220000000  0.5141410000000 1.0
C      1  0.5847470000000  0.5149930000000  0.4855120000000 1.0
C      1  0.5888620000000  0.5746920000000  0.4847800000000 1.0
C      1  0.5925540000000  0.4175620000000  0.5127690000000 1.0
C      1  0.4116300000000  0.5746800000000  0.4846400000000 1.0
C      1  0.4134730000000  0.4293100000000  0.5129250000000 1.0
C      1  0.5927690000000  0.5831280000000  0.5124550000000 1.0
C      1  0.5888760000000  0.4259320000000  0.4850520000000 1.0
C      1  0.4076660000000  0.5822880000000  0.5124850000000 1.0
C      1  0.4166170000000  0.4230310000000  0.4849390000000 1.0
C      1  0.5962300000000  0.4668470000000  0.4438200000000 1.0
C      1  0.5972360000000  0.5320270000000  0.5574880000000 1.0
C      1  0.4023080000000  0.4595000000000  0.4509430000000 1.0
C      1  0.4040240000000  0.5318000000000  0.5568660000000 1.0
C      1  0.5970680000000  0.4682150000000  0.5579580000000 1.0
C      1  0.5963200000000  0.5334630000000  0.4437750000000 1.0
C      1  0.4064480000000  0.4735260000000  0.5513480000000 1.0
C      1  0.4041510000000  0.5317600000000  0.4445120000000 1.0
C      1  0.4397610000000  0.4468410000000  0.5128030000000 1.0
C      1  0.4333980000000  0.5550740000000  0.4889980000000 1.0
C      1  0.5568660000000  0.4548400000000  0.5129410000000 1.0
C      1  0.5659890000000  0.5560370000000  0.4871770000000 1.0
C      1  0.4299330000000  0.4558140000000  0.4857720000000 1.0
C      1  0.4376830000000  0.5389610000000  0.5127440000000 1.0
C      1  0.5659580000000  0.4445760000000  0.4871600000000 1.0
C      1  0.5572430000000  0.5477280000000  0.5136080000000 1.0
C      1  0.5601520000000  0.5456370000000  0.5834450000000 1.0
C      1  0.5592140000000  0.4537590000000  0.4157610000000 1.0
C      1  0.4274280000000  0.5479410000000  0.5890130000000 1.0
C      1  0.4388820000000  0.4516040000000  0.4157020000000 1.0
C      1  0.5594650000000  0.5464990000000  0.4159410000000 1.0
C      1  0.5608790000000  0.4526250000000  0.5837850000000 1.0
C      1  0.4400490000000  0.5468510000000  0.4168780000000 1.0
C      1  0.4250630000000  0.4531060000000  0.5877830000000 1.0
C      1  0.4790680000000  0.5233290000000  0.4464930000000 1.0
C      1  0.4780860000000  0.4738200000000  0.5513300000000 1.0
C      1  0.5250670000000  0.5152800000000  0.4472520000000 1.0
C      1  0.5213230000000  0.4882000000000  0.5532700000000 1.0
C      1  0.4801240000000  0.5211430000000  0.5522130000000 1.0
C      1  0.4783900000000  0.4758580000000  0.4458050000000 1.0
C      1  0.5267420000000  0.5173690000000  0.5510440000000 1.0
C      1  0.5247530000000  0.4852760000000  0.4469330000000 1.0
C      1  0.4731760000000  0.5795210000000  0.4455040000000 1.0
C      1  0.4739820000000  0.4197450000000  0.5550180000000 1.0
C      1  0.5268150000000  0.5803890000000  0.4448210000000 1.0
C      1  0.5278420000000  0.4205820000000  0.5539680000000 1.0
C      1  0.4726000000000  0.5793330000000  0.5545230000000 1.0
C      1  0.4740590000000  0.4189890000000  0.4441820000000 1.0
C      1  0.5276320000000  0.5799530000000  0.5537830000000 1.0
C      1  0.5260470000000  0.4196810000000  0.4451160000000 1.0
C      1  0.4466700000000  0.5952630000000  0.4872800000000 1.0
C      1  0.4468620000000  0.4043720000000  0.5142840000000 1.0
C      1  0.5540400000000  0.5960380000000  0.4870720000000 1.0
C      1  0.5640380000000  0.4077120000000  0.5145010000000 1.0
C      1  0.4364040000000  0.5915650000000  0.5145420000000 1.0
C      1  0.4397450000000  0.4052640000000  0.4852610000000 1.0
C      1  0.5644170000000  0.5935140000000  0.5144500000000 1.0
C      1  0.5541470000000  0.4044930000000  0.4867710000000 1.0
C      1  0.4865010000000  0.3910660000000  0.4863740000000 1.0
C      1  0.4857400000000  0.6073270000000  0.5147080000000 1.0
C      1  0.5154290000000  0.3925140000000  0.4863490000000 1.0
C      1  0.5145210000000  0.6063900000000  0.5143130000000 1.0
C      1  0.4860130000000  0.3916680000000  0.5154310000000 1.0
C      1  0.4851620000000  0.6081940000000  0.4857290000000 1.0
C      1  0.5152510000000  0.3926940000000  0.5154330000000 1.0
C      1  0.5145140000000  0.6068380000000  0.4852590000000 1.0
C      1  0.4911600000000  0.4992120000000  0.4365420000000 1.0
C      1  0.4931920000000  0.4963330000000  0.5614280000000 1.0
END
