TITL C-2441167-4473-318 0.10494926174452 125000 -18138.4513629609 0 0 139 (C1) n - 1
REM
REM in /home/bkarasulu/work/CARBON/AIRSS/Generating-Clusters/ReaxFF-fromJPCA2015/Units_Real/with-SteepDescent/Higher-Symm
REM
REM
REM
REM
REM
REM ./C.cell (1df0a924f5614ab8850e4351716899ee)
REM
REM compiler GCC version 9.2.1 20190827 (Red Hat 9.2.1-1)
REM options -cpp -mtune=generic -march=x86-64 -g -O0 -fpre-include=/usr/include/finclude/math-vector-fortran.h
REM seed -596593414 1582786773 247836062 2140601653 1504763110 1272597794 631961300 450631725 -478519758 930456207 1194676368 1195593249 478095731 310877326 -1860886296 -1157240736 -1876092163 1214657469 -22702031 1085909248 1138976886 931820668 -1577254540 1480261325 203828810 192853380 -80056681 125315750 166870917 393444759 -1554729571 -973681053 119279632
REM
CELL 1.54180   50.00000   50.00000   50.00000   90.00000   90.00000   90.00000
LATT -1
SFAC C  
C      1  0.4245140000000  0.4847450000000  0.4406120000000 1.0
C      1  0.4274910000000  0.5160280000000  0.5517790000000 1.0
C      1  0.4303940000000  0.4860960000000  0.5531230000000 1.0
C      1  0.4229920000000  0.5125800000000  0.4435120000000 1.0
C      1  0.5715120000000  0.5131360000000  0.4875150000000 1.0
C      1  0.5805540000000  0.4732650000000  0.5142690000000 1.0
C      1  0.5764520000000  0.5264650000000  0.5161360000000 1.0
C      1  0.5817680000000  0.4863960000000  0.4880650000000 1.0
C      1  0.4476290000000  0.5616870000000  0.5583990000000 1.0
C      1  0.4469500000000  0.4364410000000  0.4449810000000 1.0
C      1  0.4424520000000  0.5641180000000  0.4423990000000 1.0
C      1  0.4409380000000  0.4372920000000  0.5566980000000 1.0
C      1  0.4557300000000  0.4547640000000  0.4236870000000 1.0
C      1  0.4565010000000  0.5437900000000  0.5796170000000 1.0
C      1  0.4493680000000  0.4583920000000  0.5749550000000 1.0
C      1  0.4451580000000  0.5407630000000  0.4261660000000 1.0
C      1  0.4833140000000  0.4834990000000  0.5915600000000 1.0
C      1  0.4812490000000  0.5175340000000  0.4107130000000 1.0
C      1  0.4824190000000  0.4890580000000  0.4166620000000 1.0
C      1  0.4815830000000  0.5117750000000  0.5830820000000 1.0
C      1  0.4768710000000  0.4224920000000  0.5213090000000 1.0
C      1  0.4751310000000  0.5829650000000  0.4797980000000 1.0
C      1  0.4728190000000  0.4157710000000  0.4802900000000 1.0
C      1  0.4749670000000  0.5809830000000  0.5219940000000 1.0
C      1  0.5049590000000  0.5382270000000  0.4484610000000 1.0
C      1  0.5029310000000  0.4588690000000  0.5496660000000 1.0
C      1  0.5067790000000  0.5453460000000  0.5382080000000 1.0
C      1  0.4975950000000  0.4504630000000  0.4655730000000 1.0
C      1  0.5689700000000  0.4787440000000  0.4355460000000 1.0
C      1  0.5681500000000  0.5262500000000  0.5643310000000 1.0
C      1  0.5687850000000  0.4750980000000  0.5627460000000 1.0
C      1  0.5627950000000  0.5187520000000  0.4322440000000 1.0
C      1  0.4935910000000  0.4851620000000  0.5434960000000 1.0
C      1  0.5028180000000  0.5115160000000  0.4576250000000 1.0
C      1  0.4929530000000  0.4898450000000  0.4430540000000 1.0
C      1  0.4963000000000  0.5116140000000  0.5576820000000 1.0
C      1  0.4870310000000  0.5544790000000  0.5805760000000 1.0
C      1  0.4847720000000  0.4452420000000  0.4204780000000 1.0
C      1  0.4927860000000  0.5636750000000  0.4186050000000 1.0
C      1  0.4937360000000  0.4360130000000  0.5828270000000 1.0
C      1  0.4928770000000  0.5802130000000  0.5665570000000 1.0
C      1  0.4926060000000  0.4205580000000  0.4339330000000 1.0
C      1  0.4965450000000  0.5884230000000  0.4330830000000 1.0
C      1  0.4953180000000  0.4128330000000  0.5667380000000 1.0
C      1  0.5241100000000  0.4141840000000  0.5597530000000 1.0
C      1  0.5251620000000  0.5857560000000  0.4408700000000 1.0
C      1  0.5217720000000  0.4193410000000  0.4411460000000 1.0
C      1  0.5210430000000  0.5820970000000  0.5579560000000 1.0
C      1  0.4701440000000  0.4201460000000  0.5494640000000 1.0
C      1  0.4718370000000  0.5805420000000  0.4504440000000 1.0
C      1  0.4692930000000  0.4181320000000  0.4517430000000 1.0
C      1  0.4689860000000  0.5813110000000  0.5502010000000 1.0
C      1  0.5039260000000  0.5780910000000  0.4795240000000 1.0
C      1  0.5050120000000  0.4339880000000  0.5256570000000 1.0
C      1  0.5040200000000  0.5683870000000  0.5194620000000 1.0
C      1  0.5040440000000  0.4252860000000  0.4800300000000 1.0
C      1  0.5172270000000  0.5090830000000  0.4842400000000 1.0
C      1  0.5129170000000  0.4881020000000  0.5208130000000 1.0
C      1  0.5103140000000  0.5146340000000  0.5123990000000 1.0
C      1  0.5132890000000  0.4835150000000  0.4865940000000 1.0
C      1  0.5156470000000  0.4557720000000  0.5778530000000 1.0
C      1  0.5162700000000  0.5461890000000  0.4218270000000 1.0
C      1  0.5223120000000  0.4608910000000  0.4163490000000 1.0
C      1  0.5149180000000  0.5434410000000  0.5866440000000 1.0
C      1  0.5403870000000  0.5150710000000  0.5675360000000 1.0
C      1  0.5377180000000  0.4825770000000  0.4382740000000 1.0
C      1  0.5356110000000  0.5084630000000  0.4244120000000 1.0
C      1  0.5414040000000  0.4858710000000  0.5628480000000 1.0
C      1  0.5129290000000  0.5113410000000  0.4051360000000 1.0
C      1  0.5120530000000  0.4876690000000  0.5917440000000 1.0
C      1  0.5218110000000  0.5151770000000  0.5921730000000 1.0
C      1  0.5086150000000  0.4825810000000  0.4034760000000 1.0
C      1  0.5377960000000  0.4418130000000  0.4305890000000 1.0
C      1  0.5343690000000  0.5602970000000  0.5723740000000 1.0
C      1  0.5385040000000  0.4371030000000  0.5715740000000 1.0
C      1  0.5392090000000  0.5628440000000  0.4290890000000 1.0
C      1  0.4302080000000  0.4395640000000  0.4686100000000 1.0
C      1  0.4328740000000  0.5567430000000  0.5336440000000 1.0
C      1  0.4296750000000  0.4443340000000  0.5317510000000 1.0
C      1  0.4296340000000  0.5582730000000  0.4673400000000 1.0
C      1  0.5644120000000  0.4510100000000  0.4426090000000 1.0
C      1  0.5612510000000  0.5536380000000  0.5613970000000 1.0
C      1  0.5631470000000  0.4466450000000  0.5601980000000 1.0
C      1  0.5614630000000  0.5471780000000  0.4407470000000 1.0
C      1  0.4262160000000  0.5148010000000  0.5085690000000 1.0
C      1  0.4374690000000  0.4782800000000  0.4830520000000 1.0
C      1  0.4354460000000  0.5221290000000  0.4842750000000 1.0
C      1  0.4265850000000  0.4874870000000  0.5088410000000 1.0
C      1  0.4182610000000  0.5319470000000  0.5292550000000 1.0
C      1  0.4192160000000  0.4658550000000  0.4645230000000 1.0
C      1  0.4163240000000  0.5319440000000  0.4639210000000 1.0
C      1  0.4181500000000  0.4704980000000  0.5307920000000 1.0
C      1  0.4590650000000  0.4898470000000  0.5464380000000 1.0
C      1  0.4619520000000  0.5158500000000  0.4721110000000 1.0
C      1  0.4624250000000  0.4876820000000  0.4716020000000 1.0
C      1  0.4561550000000  0.5175020000000  0.5430560000000 1.0
C      1  0.5713210000000  0.5677900000000  0.5358430000000 1.0
C      1  0.5746820000000  0.4364660000000  0.4658270000000 1.0
C      1  0.5725590000000  0.5570050000000  0.4667320000000 1.0
C      1  0.5719260000000  0.4331580000000  0.5337920000000 1.0
C      1  0.4870550000000  0.4714350000000  0.4811660000000 1.0
C      1  0.4808610000000  0.5209240000000  0.5112790000000 1.0
C      1  0.4730050000000  0.4690580000000  0.5085280000000 1.0
C      1  0.4775600000000  0.5371090000000  0.4860940000000 1.0
C      1  0.4785860000000  0.4481680000000  0.5604240000000 1.0
C      1  0.4808930000000  0.5526890000000  0.4426150000000 1.0
C      1  0.4936430000000  0.4622930000000  0.4430530000000 1.0
C      1  0.4835480000000  0.5360920000000  0.5508560000000 1.0
C      1  0.5295890000000  0.4129470000000  0.4678430000000 1.0
C      1  0.5282080000000  0.5848000000000  0.5296600000000 1.0
C      1  0.5289740000000  0.4143630000000  0.5311640000000 1.0
C      1  0.5297830000000  0.5865470000000  0.4693270000000 1.0
C      1  0.5858380000000  0.4856620000000  0.4590930000000 1.0
C      1  0.5836200000000  0.5148630000000  0.5417930000000 1.0
C      1  0.5848620000000  0.4856840000000  0.5406910000000 1.0
C      1  0.5815030000000  0.5131800000000  0.4561450000000 1.0
C      1  0.5528060000000  0.4661450000000  0.5154500000000 1.0
C      1  0.5370650000000  0.5436920000000  0.4902820000000 1.0
C      1  0.5398250000000  0.4556270000000  0.4908110000000 1.0
C      1  0.5504870000000  0.5371380000000  0.5165230000000 1.0
C      1  0.5526810000000  0.4236610000000  0.4831130000000 1.0
C      1  0.5533670000000  0.5795460000000  0.5164910000000 1.0
C      1  0.5532640000000  0.4197220000000  0.5164570000000 1.0
C      1  0.5533220000000  0.5730980000000  0.4835680000000 1.0
C      1  0.4552160000000  0.5613800000000  0.4869400000000 1.0
C      1  0.4559550000000  0.4417370000000  0.5139320000000 1.0
C      1  0.4509190000000  0.5677220000000  0.5141870000000 1.0
C      1  0.4503260000000  0.4308490000000  0.4882520000000 1.0
C      1  0.5359350000000  0.4786910000000  0.4696220000000 1.0
C      1  0.5300460000000  0.5277670000000  0.5350450000000 1.0
C      1  0.5376690000000  0.4810130000000  0.5341870000000 1.0
C      1  0.5436340000000  0.5178170000000  0.4783100000000 1.0
C      1  0.4445790000000  0.4813090000000  0.4195340000000 1.0
C      1  0.4526980000000  0.5159040000000  0.5870730000000 1.0
C      1  0.4538330000000  0.4841010000000  0.5883150000000 1.0
C      1  0.4531990000000  0.5155720000000  0.4156840000000 1.0
C      1  0.5153160000000  0.4432850000000  0.5004810000000 1.0
C      1  0.5077460000000  0.5528560000000  0.4925430000000 1.0
C      1  0.4742390000000  0.4951200000000  0.5095000000000 1.0
END
