TITL C-2441158-471-325 0.0305308392775923 125000 -22748.7381803572 0 0 160 (C1) n - 1
REM
REM in /home/bkarasulu/work/CARBON/AIRSS/Generating-Clusters/ReaxFF-fromJPCA2015/Units_Real/with-SteepDescent/Higher-Symm
REM
REM
REM
REM
REM
REM ./C.cell (1df0a924f5614ab8850e4351716899ee)
REM
REM compiler GCC version 9.2.1 20190827 (Red Hat 9.2.1-1)
REM options -cpp -mtune=generic -march=x86-64 -g -O0 -fpre-include=/usr/include/finclude/math-vector-fortran.h
REM seed 962976513 -1842048926 1537923072 -73277105 1238231285 -1000089457 1642363633 130424830 -720606851 860284574 1334124747 -1029228539 1866762247 -1131668434 1585202522 -1888601171 -458274344 -97841372 -1869437253 -1026792812 -841407831 431667877 -1760998257 1843571720 -1013446251 -1402763640 5693969 -741368105 1433936259 1964664776 1979847662 469169542 748693616
REM
CELL 1.54180   50.00000   50.00000   50.00000   90.00000   90.00000   90.00000
LATT -1
SFAC C  
C      1  0.4477890000000  0.5038910000000  0.5803690000000 1.0
C      1  0.5556440000000  0.4933730000000  0.5854610000000 1.0
C      1  0.4457140000000  0.5053140000000  0.4183290000000 1.0
C      1  0.5534150000000  0.4960120000000  0.4166340000000 1.0
C      1  0.5687590000000  0.5662880000000  0.4611170000000 1.0
C      1  0.4261710000000  0.4317960000000  0.4653980000000 1.0
C      1  0.5663620000000  0.5658610000000  0.5389280000000 1.0
C      1  0.4304810000000  0.4337250000000  0.5394800000000 1.0
C      1  0.4148900000000  0.4458010000000  0.5162710000000 1.0
C      1  0.5806310000000  0.5563130000000  0.5147250000000 1.0
C      1  0.4130650000000  0.4450640000000  0.4880610000000 1.0
C      1  0.5816930000000  0.5563510000000  0.4859160000000 1.0
C      1  0.4382890000000  0.5167030000000  0.4841260000000 1.0
C      1  0.5613450000000  0.4835380000000  0.4860860000000 1.0
C      1  0.4423300000000  0.5141990000000  0.5122520000000 1.0
C      1  0.5554300000000  0.4885260000000  0.5138500000000 1.0
C      1  0.3941430000000  0.5219770000000  0.5293480000000 1.0
C      1  0.6055880000000  0.4794990000000  0.5293650000000 1.0
C      1  0.3942800000000  0.5223510000000  0.4698600000000 1.0
C      1  0.6061780000000  0.4801060000000  0.4704940000000 1.0
C      1  0.3901460000000  0.4975310000000  0.5132440000000 1.0
C      1  0.6080420000000  0.5049500000000  0.5139140000000 1.0
C      1  0.3896650000000  0.4976190000000  0.4849290000000 1.0
C      1  0.6092670000000  0.5050850000000  0.4858910000000 1.0
C      1  0.5162000000000  0.4917240000000  0.5531170000000 1.0
C      1  0.4886380000000  0.4955600000000  0.5547110000000 1.0
C      1  0.5137760000000  0.4998920000000  0.4443190000000 1.0
C      1  0.4855130000000  0.4992150000000  0.4456320000000 1.0
C      1  0.4538600000000  0.5333100000000  0.5276310000000 1.0
C      1  0.5428190000000  0.4701230000000  0.5305920000000 1.0
C      1  0.4590990000000  0.5330730000000  0.4676790000000 1.0
C      1  0.5404300000000  0.4675200000000  0.4683560000000 1.0
C      1  0.5181670000000  0.5690310000000  0.5643310000000 1.0
C      1  0.4809310000000  0.4307540000000  0.5652900000000 1.0
C      1  0.5244000000000  0.5624860000000  0.4346200000000 1.0
C      1  0.4715360000000  0.4371780000000  0.4432820000000 1.0
C      1  0.4968820000000  0.5201400000000  0.5144460000000 1.0
C      1  0.5027250000000  0.4782900000000  0.5143240000000 1.0
C      1  0.5024710000000  0.5206270000000  0.4859930000000 1.0
C      1  0.5002860000000  0.4784000000000  0.4857710000000 1.0
C      1  0.5785260000000  0.4307480000000  0.5147360000000 1.0
C      1  0.4221320000000  0.5701820000000  0.5147010000000 1.0
C      1  0.5786920000000  0.4305370000000  0.4864300000000 1.0
C      1  0.4226500000000  0.5703790000000  0.4865220000000 1.0
C      1  0.4806880000000  0.5716920000000  0.4352970000000 1.0
C      1  0.5243130000000  0.4281780000000  0.4343480000000 1.0
C      1  0.4767600000000  0.5693270000000  0.5661790000000 1.0
C      1  0.5224990000000  0.4285860000000  0.5677050000000 1.0
C      1  0.5064980000000  0.4458840000000  0.3839180000000 1.0
C      1  0.4942130000000  0.5552330000000  0.3925530000000 1.0
C      1  0.5047470000000  0.4436760000000  0.6099990000000 1.0
C      1  0.4958920000000  0.5546480000000  0.6068230000000 1.0
C      1  0.5235730000000  0.5852880000000  0.5235720000000 1.0
C      1  0.4720630000000  0.4141400000000  0.5200160000000 1.0
C      1  0.5251150000000  0.5828140000000  0.4760890000000 1.0
C      1  0.4636110000000  0.4136660000000  0.4895760000000 1.0
C      1  0.5792900000000  0.4640970000000  0.5586520000000 1.0
C      1  0.4207080000000  0.5346040000000  0.5588560000000 1.0
C      1  0.5795390000000  0.4654890000000  0.4424140000000 1.0
C      1  0.4215160000000  0.5406950000000  0.4430760000000 1.0
C      1  0.4981640000000  0.5762450000000  0.5857740000000 1.0
C      1  0.5011230000000  0.4238050000000  0.5877340000000 1.0
C      1  0.5018880000000  0.5742170000000  0.4146780000000 1.0
C      1  0.5142050000000  0.4309760000000  0.4081790000000 1.0
C      1  0.4473270000000  0.5796400000000  0.5340120000000 1.0
C      1  0.5515800000000  0.4226120000000  0.5330170000000 1.0
C      1  0.4498150000000  0.5785540000000  0.4686580000000 1.0
C      1  0.5527490000000  0.4237960000000  0.4689810000000 1.0
C      1  0.4122530000000  0.5412130000000  0.4860140000000 1.0
C      1  0.5874670000000  0.4606750000000  0.4865660000000 1.0
C      1  0.4050340000000  0.5459610000000  0.5150070000000 1.0
C      1  0.5953100000000  0.4552480000000  0.5151330000000 1.0
C      1  0.5044830000000  0.4720860000000  0.6012610000000 1.0
C      1  0.4971620000000  0.5262460000000  0.5994380000000 1.0
C      1  0.5024500000000  0.4702450000000  0.4021920000000 1.0
C      1  0.4954620000000  0.5265770000000  0.3997220000000 1.0
C      1  0.4521870000000  0.5670820000000  0.4400800000000 1.0
C      1  0.5522150000000  0.4347480000000  0.4411840000000 1.0
C      1  0.4485580000000  0.5649110000000  0.5601020000000 1.0
C      1  0.5504210000000  0.4346450000000  0.5603390000000 1.0
C      1  0.4801620000000  0.4874540000000  0.6003860000000 1.0
C      1  0.5214330000000  0.5113810000000  0.6009860000000 1.0
C      1  0.4778330000000  0.4842100000000  0.4022990000000 1.0
C      1  0.5209000000000  0.5135800000000  0.3983330000000 1.0
C      1  0.5513420000000  0.4629890000000  0.5587210000000 1.0
C      1  0.4487820000000  0.5368000000000  0.5566840000000 1.0
C      1  0.5519880000000  0.4628500000000  0.4401300000000 1.0
C      1  0.4486570000000  0.5396830000000  0.4396280000000 1.0
C      1  0.5497600000000  0.5393880000000  0.4261520000000 1.0
C      1  0.4519960000000  0.4517830000000  0.4280730000000 1.0
C      1  0.5545190000000  0.5335850000000  0.5748960000000 1.0
C      1  0.4489850000000  0.4616080000000  0.5696180000000 1.0
C      1  0.4619150000000  0.5568450000000  0.4846590000000 1.0
C      1  0.5399790000000  0.4448050000000  0.4853100000000 1.0
C      1  0.4666040000000  0.5552860000000  0.5128320000000 1.0
C      1  0.5363690000000  0.4456100000000  0.5142540000000 1.0
C      1  0.5276090000000  0.4035020000000  0.5284030000000 1.0
C      1  0.4714090000000  0.5953970000000  0.5265450000000 1.0
C      1  0.5285340000000  0.4025790000000  0.4744000000000 1.0
C      1  0.4734790000000  0.5993510000000  0.4734860000000 1.0
C      1  0.5318540000000  0.5569160000000  0.4866710000000 1.0
C      1  0.4828060000000  0.4351150000000  0.4861170000000 1.0
C      1  0.5250470000000  0.5552130000000  0.5143830000000 1.0
C      1  0.4799270000000  0.4414640000000  0.5131870000000 1.0
C      1  0.5755490000000  0.5486790000000  0.5608260000000 1.0
C      1  0.4232250000000  0.4506330000000  0.5620280000000 1.0
C      1  0.5751950000000  0.5491760000000  0.4383960000000 1.0
C      1  0.4256910000000  0.4473670000000  0.4406340000000 1.0
C      1  0.5896190000000  0.5233990000000  0.5540740000000 1.0
C      1  0.4120660000000  0.4809560000000  0.5536720000000 1.0
C      1  0.5874370000000  0.5215280000000  0.4460660000000 1.0
C      1  0.4123470000000  0.4723970000000  0.4450400000000 1.0
C      1  0.5609330000000  0.5172570000000  0.5151530000000 1.0
C      1  0.4349290000000  0.4856290000000  0.5133890000000 1.0
C      1  0.5637540000000  0.5159690000000  0.4852170000000 1.0
C      1  0.4347170000000  0.4863840000000  0.4834500000000 1.0
C      1  0.4981970000000  0.5984790000000  0.5159070000000 1.0
C      1  0.5020390000000  0.4016620000000  0.5167930000000 1.0
C      1  0.4989300000000  0.5978920000000  0.4846030000000 1.0
C      1  0.5053630000000  0.4103720000000  0.4877830000000 1.0
C      1  0.4961520000000  0.5569630000000  0.5496540000000 1.0
C      1  0.5035250000000  0.4397890000000  0.5503060000000 1.0
C      1  0.4996400000000  0.5565890000000  0.4514100000000 1.0
C      1  0.5007250000000  0.4430450000000  0.4462150000000 1.0
C      1  0.5465180000000  0.5214550000000  0.4039460000000 1.0
C      1  0.4516720000000  0.4770660000000  0.4117480000000 1.0
C      1  0.5492130000000  0.5185660000000  0.5990500000000 1.0
C      1  0.4532080000000  0.4783850000000  0.5946780000000 1.0
C      1  0.5962820000000  0.4852830000000  0.5562420000000 1.0
C      1  0.4041690000000  0.5128870000000  0.5557190000000 1.0
C      1  0.5954180000000  0.4877450000000  0.4450330000000 1.0
C      1  0.4042590000000  0.5196020000000  0.4425230000000 1.0
C      1  0.4589420000000  0.4679140000000  0.4831990000000 1.0
C      1  0.5420160000000  0.5324060000000  0.4747150000000 1.0
C      1  0.4605480000000  0.4691660000000  0.5132280000000 1.0
C      1  0.5386020000000  0.5315020000000  0.5256620000000 1.0
C      1  0.5649260000000  0.5090370000000  0.5619560000000 1.0
C      1  0.4390740000000  0.4877950000000  0.5577070000000 1.0
C      1  0.5598210000000  0.5117790000000  0.4407850000000 1.0
C      1  0.4231550000000  0.4970330000000  0.4345590000000 1.0
C      1  0.5232230000000  0.5118850000000  0.4685870000000 1.0
C      1  0.4772030000000  0.4864090000000  0.4705720000000 1.0
C      1  0.5197530000000  0.5107310000000  0.5308880000000 1.0
C      1  0.4803640000000  0.4924530000000  0.5268860000000 1.0
C      1  0.4536010000000  0.4206910000000  0.4629190000000 1.0
C      1  0.5420010000000  0.5789090000000  0.4532250000000 1.0
C      1  0.4587150000000  0.4269290000000  0.5459200000000 1.0
C      1  0.5397300000000  0.5793010000000  0.5462810000000 1.0
C      1  0.5252600000000  0.4873510000000  0.5822370000000 1.0
C      1  0.4774420000000  0.5092660000000  0.5789460000000 1.0
C      1  0.5232060000000  0.4900020000000  0.4176550000000 1.0
C      1  0.4753800000000  0.5096090000000  0.4187380000000 1.0
C      1  0.4882690000000  0.5328910000000  0.4652240000000 1.0
C      1  0.5117050000000  0.4639770000000  0.4641420000000 1.0
C      1  0.4939280000000  0.5482420000000  0.5226810000000 1.0
C      1  0.5055960000000  0.4504030000000  0.5236470000000 1.0
C      1  0.5912290000000  0.5278670000000  0.5246230000000 1.0
C      1  0.4066180000000  0.4744630000000  0.5256980000000 1.0
C      1  0.5913400000000  0.5277710000000  0.4755670000000 1.0
C      1  0.4057650000000  0.4731310000000  0.4743660000000 1.0
END
