TITL C-2441161-5029-1431 0.0564204175998323 125000 -19326.5830668551 0 0 136 (C1) n - 1
REM
REM in /home/bkarasulu/work/CARBON/AIRSS/Generating-Clusters/ReaxFF-fromJPCA2015/Units_Real/with-SteepDescent/Higher-Symm
REM
REM
REM
REM
REM
REM ./C.cell (1df0a924f5614ab8850e4351716899ee)
REM
REM compiler GCC version 9.2.1 20190827 (Red Hat 9.2.1-1)
REM options -cpp -mtune=generic -march=x86-64 -g -O0 -fpre-include=/usr/include/finclude/math-vector-fortran.h
REM seed -1760000837 418053297 154430878 390433212 -998837581 1140384951 -927187732 -737402373 -2125848853 -823361806 -2100699904 -1380362571 385385770 -1086129030 -501432741 -1216983995 1776078678 1608109962 -2084783648 -1050493492 957199685 1821486233 -1631425903 -1817635319 -531730561 766319351 -1714362278 1146438712 1682860219 2100808425 460606553 357500533 1664837204
REM
CELL 1.54180   50.00000   50.00000   50.00000   90.00000   90.00000   90.00000
LATT -1
SFAC C  
C      1  0.5346600000000  0.5004960000000  0.4207700000000 1.0
C      1  0.5018290000000  0.4179790000000  0.5367520000000 1.0
C      1  0.4171320000000  0.5362910000000  0.4996780000000 1.0
C      1  0.4653610000000  0.4985990000000  0.4221830000000 1.0
C      1  0.5361580000000  0.4992870000000  0.5835570000000 1.0
C      1  0.4646130000000  0.4998820000000  0.5817900000000 1.0
C      1  0.4977490000000  0.5812680000000  0.5362160000000 1.0
C      1  0.4989850000000  0.5720640000000  0.4644860000000 1.0
C      1  0.5008040000000  0.4219990000000  0.4627580000000 1.0
C      1  0.5807590000000  0.4634120000000  0.5001120000000 1.0
C      1  0.4171500000000  0.4615870000000  0.4985850000000 1.0
C      1  0.5839320000000  0.5375160000000  0.4984920000000 1.0
C      1  0.5023420000000  0.5345330000000  0.4231590000000 1.0
C      1  0.4162720000000  0.4991340000000  0.5348140000000 1.0
C      1  0.5373060000000  0.4129920000000  0.5000600000000 1.0
C      1  0.4969080000000  0.4635750000000  0.4195040000000 1.0
C      1  0.5001170000000  0.5372380000000  0.5816140000000 1.0
C      1  0.5006060000000  0.4621870000000  0.5803420000000 1.0
C      1  0.5831830000000  0.5000440000000  0.5352100000000 1.0
C      1  0.5776350000000  0.5007240000000  0.4630240000000 1.0
C      1  0.4219830000000  0.4982510000000  0.4626590000000 1.0
C      1  0.4619560000000  0.5861820000000  0.5007130000000 1.0
C      1  0.4643290000000  0.4190760000000  0.4980910000000 1.0
C      1  0.5360220000000  0.5816020000000  0.4969080000000 1.0
C      1  0.4807800000000  0.4585050000000  0.4962370000000 1.0
C      1  0.4620140000000  0.4909540000000  0.4725820000000 1.0
C      1  0.4961610000000  0.4732200000000  0.4519430000000 1.0
C      1  0.5204850000000  0.5402590000000  0.4982730000000 1.0
C      1  0.4739800000000  0.5484370000000  0.5109510000000 1.0
C      1  0.5263260000000  0.4505860000000  0.5103880000000 1.0
C      1  0.5376500000000  0.5066800000000  0.4734920000000 1.0
C      1  0.4534420000000  0.5111700000000  0.5232790000000 1.0
C      1  0.5470860000000  0.4874340000000  0.5208260000000 1.0
C      1  0.5070770000000  0.5253610000000  0.4533750000000 1.0
C      1  0.4998120000000  0.5239310000000  0.5391110000000 1.0
C      1  0.4960150000000  0.4774960000000  0.5359450000000 1.0
C      1  0.4550240000000  0.4750900000000  0.4923780000000 1.0
C      1  0.4930140000000  0.4626540000000  0.4747280000000 1.0
C      1  0.4762380000000  0.4949650000000  0.4519930000000 1.0
C      1  0.5454740000000  0.5253500000000  0.4930780000000 1.0
C      1  0.5382720000000  0.4727980000000  0.4975390000000 1.0
C      1  0.4628850000000  0.5251340000000  0.4973590000000 1.0
C      1  0.5054650000000  0.5443420000000  0.4738580000000 1.0
C      1  0.4993180000000  0.4534670000000  0.5188740000000 1.0
C      1  0.5008020000000  0.5435790000000  0.5193550000000 1.0
C      1  0.5241130000000  0.5030450000000  0.4500000000000 1.0
C      1  0.5264310000000  0.4923570000000  0.5414800000000 1.0
C      1  0.4726140000000  0.5141650000000  0.5446980000000 1.0
C      1  0.4828550000000  0.4214820000000  0.5571420000000 1.0
C      1  0.4218580000000  0.5584140000000  0.4823050000000 1.0
C      1  0.5552760000000  0.4828590000000  0.4233140000000 1.0
C      1  0.5163550000000  0.5766380000000  0.5569800000000 1.0
C      1  0.4748050000000  0.5609870000000  0.4512700000000 1.0
C      1  0.5239810000000  0.4389160000000  0.4543320000000 1.0
C      1  0.5687460000000  0.4457180000000  0.4801030000000 1.0
C      1  0.4233270000000  0.4432090000000  0.5174430000000 1.0
C      1  0.5766160000000  0.5557960000000  0.5171180000000 1.0
C      1  0.4441820000000  0.5160470000000  0.4230470000000 1.0
C      1  0.5526620000000  0.5189000000000  0.5710040000000 1.0
C      1  0.4489280000000  0.4801730000000  0.5679330000000 1.0
C      1  0.4221780000000  0.4828390000000  0.5561740000000 1.0
C      1  0.5598110000000  0.4172680000000  0.4837900000000 1.0
C      1  0.4827930000000  0.5532680000000  0.4256460000000 1.0
C      1  0.5778780000000  0.5164880000000  0.5567940000000 1.0
C      1  0.5636070000000  0.4782550000000  0.4501640000000 1.0
C      1  0.4341810000000  0.5205580000000  0.4492590000000 1.0
C      1  0.4412270000000  0.5796040000000  0.4825640000000 1.0
C      1  0.4441920000000  0.4247240000000  0.5173840000000 1.0
C      1  0.5547150000000  0.5736560000000  0.5171560000000 1.0
C      1  0.5180440000000  0.4492960000000  0.4285070000000 1.0
C      1  0.5208050000000  0.5515860000000  0.5701760000000 1.0
C      1  0.4816920000000  0.4429990000000  0.5742630000000 1.0
C      1  0.5436750000000  0.5632460000000  0.5841770000000 1.0
C      1  0.5628440000000  0.5833450000000  0.5433730000000 1.0
C      1  0.5848540000000  0.5431240000000  0.5639370000000 1.0
C      1  0.4559360000000  0.4348060000000  0.5842620000000 1.0
C      1  0.5415980000000  0.4369830000000  0.4163890000000 1.0
C      1  0.4577490000000  0.5628230000000  0.4150440000000 1.0
C      1  0.4361880000000  0.4151660000000  0.5434650000000 1.0
C      1  0.5653000000000  0.4129880000000  0.4555240000000 1.0
C      1  0.4340840000000  0.5865440000000  0.4549260000000 1.0
C      1  0.4150000000000  0.4562660000000  0.5641970000000 1.0
C      1  0.5824860000000  0.4558700000000  0.4366250000000 1.0
C      1  0.4171800000000  0.5430620000000  0.4366790000000 1.0
C      1  0.5642180000000  0.5431970000000  0.5843470000000 1.0
C      1  0.5846510000000  0.5637450000000  0.5436130000000 1.0
C      1  0.5430370000000  0.5843720000000  0.5641620000000 1.0
C      1  0.4365700000000  0.4561830000000  0.5835310000000 1.0
C      1  0.4368900000000  0.5424660000000  0.4153080000000 1.0
C      1  0.5633680000000  0.4565220000000  0.4148550000000 1.0
C      1  0.4150050000000  0.4354400000000  0.5438750000000 1.0
C      1  0.4140170000000  0.5649610000000  0.4550010000000 1.0
C      1  0.5847710000000  0.4346520000000  0.4553100000000 1.0
C      1  0.4563550000000  0.4134790000000  0.5641090000000 1.0
C      1  0.4564930000000  0.5814110000000  0.4378080000000 1.0
C      1  0.5425180000000  0.4193940000000  0.4390900000000 1.0
C      1  0.5459440000000  0.5695890000000  0.4723950000000 1.0
C      1  0.5670230000000  0.4760330000000  0.5405040000000 1.0
C      1  0.4763940000000  0.5485570000000  0.5696650000000 1.0
C      1  0.4553060000000  0.4306310000000  0.4734240000000 1.0
C      1  0.5458390000000  0.4325100000000  0.5247240000000 1.0
C      1  0.4546090000000  0.5662870000000  0.5251330000000 1.0
C      1  0.4313830000000  0.5233570000000  0.5398560000000 1.0
C      1  0.5699420000000  0.5265080000000  0.4515810000000 1.0
C      1  0.4302420000000  0.4728950000000  0.4514960000000 1.0
C      1  0.5248260000000  0.4525060000000  0.5675120000000 1.0
C      1  0.4701220000000  0.4503990000000  0.4300290000000 1.0
C      1  0.5316890000000  0.5496150000000  0.4294410000000 1.0
C      1  0.5660740000000  0.5440760000000  0.4754640000000 1.0
C      1  0.4750080000000  0.5679240000000  0.5475700000000 1.0
C      1  0.5420260000000  0.4762130000000  0.5667110000000 1.0
C      1  0.4351210000000  0.4552840000000  0.4757670000000 1.0
C      1  0.4289510000000  0.5468450000000  0.5233860000000 1.0
C      1  0.5704520000000  0.4524440000000  0.5235950000000 1.0
C      1  0.5257040000000  0.4319440000000  0.5469800000000 1.0
C      1  0.5287450000000  0.5695110000000  0.4501740000000 1.0
C      1  0.4743350000000  0.4305130000000  0.4524770000000 1.0
C      1  0.4585760000000  0.5251710000000  0.5684750000000 1.0
C      1  0.4500440000000  0.4698140000000  0.4305720000000 1.0
C      1  0.5503010000000  0.5288580000000  0.4309030000000 1.0
C      1  0.4136740000000  0.5080840000000  0.4883690000000 1.0
C      1  0.5088070000000  0.4895890000000  0.4100390000000 1.0
C      1  0.4887440000000  0.5884600000000  0.4894490000000 1.0
C      1  0.5098330000000  0.4111610000000  0.4884230000000 1.0
C      1  0.5857880000000  0.4903790000000  0.4895100000000 1.0
C      1  0.4111610000000  0.4884700000000  0.5082600000000 1.0
C      1  0.5888740000000  0.5105710000000  0.5087440000000 1.0
C      1  0.4910010000000  0.4890520000000  0.5872830000000 1.0
C      1  0.4906230000000  0.4124420000000  0.5091930000000 1.0
C      1  0.5088240000000  0.5878650000000  0.5088100000000 1.0
C      1  0.4906360000000  0.5096150000000  0.4109520000000 1.0
C      1  0.5096780000000  0.5101720000000  0.5883190000000 1.0
C      1  0.4596980000000  0.5331750000000  0.4688790000000 1.0
C      1  0.5436030000000  0.4626930000000  0.4706880000000 1.0
C      1  0.4718370000000  0.4731270000000  0.5448620000000 1.0
C      1  0.5274760000000  0.5211470000000  0.5464900000000 1.0
END
