TITL C-2441164-471-328 0.0767695749668588 125000 -26157.9539695992 0 0 185 (C1) n - 1
REM
REM in /home/bkarasulu/work/CARBON/AIRSS/Generating-Clusters/ReaxFF-fromJPCA2015/Units_Real/with-SteepDescent/Higher-Symm
REM
REM
REM
REM
REM
REM ./C.cell (1df0a924f5614ab8850e4351716899ee)
REM
REM compiler GCC version 9.2.1 20190827 (Red Hat 9.2.1-1)
REM options -cpp -mtune=generic -march=x86-64 -g -O0 -fpre-include=/usr/include/finclude/math-vector-fortran.h
REM seed 1295490670 1766784281 1783149640 806940753 -2021462711 1528646419 -1673823973 1903749091 -1924638088 1903591870 -869434870 -226803508 -1819978541 823617520 177093133 -117812743 -1712424603 1976387377 -482898980 -381615963 31849163 -1827160873 1933725480 579802362 -1623347768 -823603378 -1560935793 -75023760 -857039075 -411026300 1457900036 -1049103935 -1394630551
REM
CELL 1.54180   50.00000   50.00000   50.00000   90.00000   90.00000   90.00000
LATT -1
SFAC C  
C      1  0.5044690000000  0.5250330000000  0.5607550000000 1.0
C      1  0.5579540000000  0.5283380000000  0.5373070000000 1.0
C      1  0.5607430000000  0.5365860000000  0.4885310000000 1.0
C      1  0.5304260000000  0.5360110000000  0.4472210000000 1.0
C      1  0.4926980000000  0.5570140000000  0.4417980000000 1.0
C      1  0.4613240000000  0.5369250000000  0.4596260000000 1.0
C      1  0.4342400000000  0.5287820000000  0.4986110000000 1.0
C      1  0.4579370000000  0.5423850000000  0.5522860000000 1.0
C      1  0.5863230000000  0.4334670000000  0.5317420000000 1.0
C      1  0.5824120000000  0.4381420000000  0.4577690000000 1.0
C      1  0.5275160000000  0.4365010000000  0.4164140000000 1.0
C      1  0.4580990000000  0.4300670000000  0.4075580000000 1.0
C      1  0.4178790000000  0.4329140000000  0.4725410000000 1.0
C      1  0.4135920000000  0.4324240000000  0.5457060000000 1.0
C      1  0.4702330000000  0.4353030000000  0.5906060000000 1.0
C      1  0.5405680000000  0.4291530000000  0.5908890000000 1.0
C      1  0.4830540000000  0.4877940000000  0.4122790000000 1.0
C      1  0.4330290000000  0.4703170000000  0.4422460000000 1.0
C      1  0.4120210000000  0.4668690000000  0.5131670000000 1.0
C      1  0.4470660000000  0.4733820000000  0.5688620000000 1.0
C      1  0.5175010000000  0.4757970000000  0.5940200000000 1.0
C      1  0.5650370000000  0.4686400000000  0.5604640000000 1.0
C      1  0.5895970000000  0.4712330000000  0.4913100000000 1.0
C      1  0.5530660000000  0.4757540000000  0.4325990000000 1.0
C      1  0.4904680000000  0.4210240000000  0.5779100000000 1.0
C      1  0.5492000000000  0.4246350000000  0.5632430000000 1.0
C      1  0.5797640000000  0.4242150000000  0.5045530000000 1.0
C      1  0.5528510000000  0.4333460000000  0.4578600000000 1.0
C      1  0.5029890000000  0.4221510000000  0.4249730000000 1.0
C      1  0.4464550000000  0.4201230000000  0.4334190000000 1.0
C      1  0.4345930000000  0.4285060000000  0.4996630000000 1.0
C      1  0.4392480000000  0.4240770000000  0.5576760000000 1.0
C      1  0.4359550000000  0.5255200000000  0.4685410000000 1.0
C      1  0.4204920000000  0.5099870000000  0.5161680000000 1.0
C      1  0.4743400000000  0.5249460000000  0.5676850000000 1.0
C      1  0.5302030000000  0.5087900000000  0.5648340000000 1.0
C      1  0.5709280000000  0.5035840000000  0.5275100000000 1.0
C      1  0.5662840000000  0.5112780000000  0.4697610000000 1.0
C      1  0.5245120000000  0.5085230000000  0.4308760000000 1.0
C      1  0.4773200000000  0.5327820000000  0.4347980000000 1.0
C      1  0.5189060000000  0.4546920000000  0.4661280000000 1.0
C      1  0.4932170000000  0.4418490000000  0.4668100000000 1.0
C      1  0.4728930000000  0.4565510000000  0.4813900000000 1.0
C      1  0.4611990000000  0.4452430000000  0.5051510000000 1.0
C      1  0.4795940000000  0.4431490000000  0.5279030000000 1.0
C      1  0.5074670000000  0.4489450000000  0.5329150000000 1.0
C      1  0.5321700000000  0.4493780000000  0.5152250000000 1.0
C      1  0.5355970000000  0.4447240000000  0.4872620000000 1.0
C      1  0.5027800000000  0.5284900000000  0.5352170000000 1.0
C      1  0.5301420000000  0.5329780000000  0.5247800000000 1.0
C      1  0.5363670000000  0.5215180000000  0.4982340000000 1.0
C      1  0.5214920000000  0.5308970000000  0.4743090000000 1.0
C      1  0.4975410000000  0.5180500000000  0.4794580000000 1.0
C      1  0.4747640000000  0.5317100000000  0.4836690000000 1.0
C      1  0.4612580000000  0.5224920000000  0.5060890000000 1.0
C      1  0.4751170000000  0.5370910000000  0.5283030000000 1.0
C      1  0.4613970000000  0.4906520000000  0.5115750000000 1.0
C      1  0.4772380000000  0.4835040000000  0.5365150000000 1.0
C      1  0.5043580000000  0.4765120000000  0.5413430000000 1.0
C      1  0.5348420000000  0.4785490000000  0.5230210000000 1.0
C      1  0.5370320000000  0.4913230000000  0.4965670000000 1.0
C      1  0.5216610000000  0.4838890000000  0.4694530000000 1.0
C      1  0.4925290000000  0.4941660000000  0.4646640000000 1.0
C      1  0.4635670000000  0.4850740000000  0.4789570000000 1.0
C      1  0.5102470000000  0.5896900000000  0.5637220000000 1.0
C      1  0.5509170000000  0.5938060000000  0.5375040000000 1.0
C      1  0.5638010000000  0.5936920000000  0.4868860000000 1.0
C      1  0.5419090000000  0.5900780000000  0.4433150000000 1.0
C      1  0.4897080000000  0.5869280000000  0.4336680000000 1.0
C      1  0.4454110000000  0.5934680000000  0.4604770000000 1.0
C      1  0.4306770000000  0.5908960000000  0.5107080000000 1.0
C      1  0.4610340000000  0.5840720000000  0.5523010000000 1.0
C      1  0.4710240000000  0.6063680000000  0.4685040000000 1.0
C      1  0.4568650000000  0.6038480000000  0.5129760000000 1.0
C      1  0.4731960000000  0.6045740000000  0.5374260000000 1.0
C      1  0.5050270000000  0.6021080000000  0.5367770000000 1.0
C      1  0.5337230000000  0.6087770000000  0.5211480000000 1.0
C      1  0.5411310000000  0.6092090000000  0.4932130000000 1.0
C      1  0.5239510000000  0.6025300000000  0.4655830000000 1.0
C      1  0.4958890000000  0.6068860000000  0.4539530000000 1.0
C      1  0.3972960000000  0.5432210000000  0.5249560000000 1.0
C      1  0.4618310000000  0.5390190000000  0.5926850000000 1.0
C      1  0.5313230000000  0.5424210000000  0.5964110000000 1.0
C      1  0.5935310000000  0.5487060000000  0.5427790000000 1.0
C      1  0.5983000000000  0.5437780000000  0.4699260000000 1.0
C      1  0.5506390000000  0.5434270000000  0.4109470000000 1.0
C      1  0.4676170000000  0.5430650000000  0.4050370000000 1.0
C      1  0.4136540000000  0.5388030000000  0.4547030000000 1.0
C      1  0.5804750000000  0.5569260000000  0.4516190000000 1.0
C      1  0.5237380000000  0.5570380000000  0.4071010000000 1.0
C      1  0.4467270000000  0.5626330000000  0.4188230000000 1.0
C      1  0.4081910000000  0.5618830000000  0.4756660000000 1.0
C      1  0.4173200000000  0.5548260000000  0.5437570000000 1.0
C      1  0.4816730000000  0.5614150000000  0.5951950000000 1.0
C      1  0.5475240000000  0.5569810000000  0.5758750000000 1.0
C      1  0.5914790000000  0.5669680000000  0.5193290000000 1.0
C      1  0.4983640000000  0.5444380000000  0.3950500000000 1.0
C      1  0.4308110000000  0.5395750000000  0.4252000000000 1.0
C      1  0.3955780000000  0.5433600000000  0.4947530000000 1.0
C      1  0.4314310000000  0.5360630000000  0.5631300000000 1.0
C      1  0.5026140000000  0.5429620000000  0.6038530000000 1.0
C      1  0.5684700000000  0.5433160000000  0.5587610000000 1.0
C      1  0.5931030000000  0.5440200000000  0.4997050000000 1.0
C      1  0.5739420000000  0.5371830000000  0.4271330000000 1.0
C      1  0.5635370000000  0.4717530000000  0.5902490000000 1.0
C      1  0.6088990000000  0.4770020000000  0.5128940000000 1.0
C      1  0.5810590000000  0.4818640000000  0.4263340000000 1.0
C      1  0.5060480000000  0.4798410000000  0.3949550000000 1.0
C      1  0.4328560000000  0.4764850000000  0.4131350000000 1.0
C      1  0.3941120000000  0.4745190000000  0.4908320000000 1.0
C      1  0.4197930000000  0.4823690000000  0.5678320000000 1.0
C      1  0.4919240000000  0.4758260000000  0.6095120000000 1.0
C      1  0.3959800000000  0.4480840000000  0.4809820000000 1.0
C      1  0.4110150000000  0.4553420000000  0.5628230000000 1.0
C      1  0.4890820000000  0.4467150000000  0.6091810000000 1.0
C      1  0.5600130000000  0.4465370000000  0.6024200000000 1.0
C      1  0.6073000000000  0.4498780000000  0.5214990000000 1.0
C      1  0.5883550000000  0.4562850000000  0.4370600000000 1.0
C      1  0.5103570000000  0.4509090000000  0.3969660000000 1.0
C      1  0.4377900000000  0.4497000000000  0.4058800000000 1.0
C      1  0.5676710000000  0.4420880000000  0.5523640000000 1.0
C      1  0.5891140000000  0.4429670000000  0.4853690000000 1.0
C      1  0.5487160000000  0.4471740000000  0.4327160000000 1.0
C      1  0.4870880000000  0.4359140000000  0.4070270000000 1.0
C      1  0.4309700000000  0.4411200000000  0.4473960000000 1.0
C      1  0.4134010000000  0.4393240000000  0.5169320000000 1.0
C      1  0.4489070000000  0.4453750000000  0.5752720000000 1.0
C      1  0.5107110000000  0.4329430000000  0.5941970000000 1.0
C      1  0.4889360000000  0.4162060000000  0.5174990000000 1.0
C      1  0.5046090000000  0.4004650000000  0.5381560000000 1.0
C      1  0.5424020000000  0.4025380000000  0.5232030000000 1.0
C      1  0.5459370000000  0.3922990000000  0.4800280000000 1.0
C      1  0.5199970000000  0.3957150000000  0.4704390000000 1.0
C      1  0.4943260000000  0.4130330000000  0.4708560000000 1.0
C      1  0.4652750000000  0.3991490000000  0.4765180000000 1.0
C      1  0.4643600000000  0.4007730000000  0.5208310000000 1.0
C      1  0.4848510000000  0.4016400000000  0.5589220000000 1.0
C      1  0.5330190000000  0.4064520000000  0.5464770000000 1.0
C      1  0.5589750000000  0.4034400000000  0.5025760000000 1.0
C      1  0.5436780000000  0.4062110000000  0.4574500000000 1.0
C      1  0.4916250000000  0.4049860000000  0.4434920000000 1.0
C      1  0.4631680000000  0.4008930000000  0.4482310000000 1.0
C      1  0.4483910000000  0.4018650000000  0.4991160000000 1.0
C      1  0.4580830000000  0.4033310000000  0.5477840000000 1.0
C      1  0.4344090000000  0.5768700000000  0.5363530000000 1.0
C      1  0.4839400000000  0.5789440000000  0.5712450000000 1.0
C      1  0.5377840000000  0.5805970000000  0.5619230000000 1.0
C      1  0.5704990000000  0.5870680000000  0.5154900000000 1.0
C      1  0.5647160000000  0.5802230000000  0.4591890000000 1.0
C      1  0.5222360000000  0.5800700000000  0.4246590000000 1.0
C      1  0.4576400000000  0.5827920000000  0.4367870000000 1.0
C      1  0.4269280000000  0.5828460000000  0.4820240000000 1.0
C      1  0.3960870000000  0.5220070000000  0.4728460000000 1.0
C      1  0.4147230000000  0.5120200000000  0.5615510000000 1.0
C      1  0.4809920000000  0.5212710000000  0.6069420000000 1.0
C      1  0.5431430000000  0.5161830000000  0.5916670000000 1.0
C      1  0.6057260000000  0.5282640000000  0.5249540000000 1.0
C      1  0.5883700000000  0.5112300000000  0.4307590000000 1.0
C      1  0.5112950000000  0.5208870000000  0.3900770000000 1.0
C      1  0.4457310000000  0.5218830000000  0.4072870000000 1.0
C      1  0.4555930000000  0.4943600000000  0.4051630000000 1.0
C      1  0.4067670000000  0.4952950000000  0.4741670000000 1.0
C      1  0.3998270000000  0.5166260000000  0.5368330000000 1.0
C      1  0.4775690000000  0.4953350000000  0.5943340000000 1.0
C      1  0.5420090000000  0.4892040000000  0.6024820000000 1.0
C      1  0.6007860000000  0.5006340000000  0.5295050000000 1.0
C      1  0.5944310000000  0.5167250000000  0.4585680000000 1.0
C      1  0.5262060000000  0.5005040000000  0.4012830000000 1.0
C      1  0.4931720000000  0.5037900000000  0.4350020000000 1.0
C      1  0.4354520000000  0.4906120000000  0.4642190000000 1.0
C      1  0.4331940000000  0.4846750000000  0.5179440000000 1.0
C      1  0.4681280000000  0.4912760000000  0.5639900000000 1.0
C      1  0.5153700000000  0.4839330000000  0.5669700000000 1.0
C      1  0.5521950000000  0.4878100000000  0.5438070000000 1.0
C      1  0.5682550000000  0.4919030000000  0.4930950000000 1.0
C      1  0.5417820000000  0.4942070000000  0.4508430000000 1.0
C      1  0.5302940000000  0.5608860000000  0.5174150000000 1.0
C      1  0.5423590000000  0.5599860000000  0.4922960000000 1.0
C      1  0.5230480000000  0.5735000000000  0.4762000000000 1.0
C      1  0.4976900000000  0.5629410000000  0.4694980000000 1.0
C      1  0.4782430000000  0.5802430000000  0.4797020000000 1.0
C      1  0.4678090000000  0.5778590000000  0.5026930000000 1.0
C      1  0.4829690000000  0.5617960000000  0.5183030000000 1.0
C      1  0.5068700000000  0.5750090000000  0.5235770000000 1.0
C      1  0.4964100000000  0.4677580000000  0.4976960000000 1.0
END
