TITL C-2441162-9305-1428 0.233233966818145 125000 -21539.5198266236 0 0 189 (C1) n - 1
REM
REM in /home/bkarasulu/work/CARBON/AIRSS/Generating-Clusters/ReaxFF-fromJPCA2015/Units_Real/with-SteepDescent/Higher-Symm
REM
REM
REM
REM
REM
REM ./C.cell (1df0a924f5614ab8850e4351716899ee)
REM
REM compiler GCC version 9.2.1 20190827 (Red Hat 9.2.1-1)
REM options -cpp -mtune=generic -march=x86-64 -g -O0 -fpre-include=/usr/include/finclude/math-vector-fortran.h
REM seed -917050008 1661632048 -206608736 -1339921522 1165249973 -1001689472 324517676 1223546065 -1940790170 -402366461 -718390467 1491948633 378636846 1756914525 1416524122 802313321 130282142 -501517474 256832937 -1840907662 -717735680 1027768311 1290043617 199690262 925191301 -1755062901 1456901357 1837375570 1617074055 1477338455 -2064095570 -604223884 1502180830
REM
CELL 1.54180   50.00000   50.00000   50.00000   90.00000   90.00000   90.00000
LATT -1
SFAC C  
C      1  0.5654600000000  0.5937120000000  0.5504980000000 1.0
C      1  0.4247360000000  0.5951690000000  0.5338340000000 1.0
C      1  0.5099000000000  0.5954130000000  0.4172110000000 1.0
C      1  0.5627160000000  0.4025870000000  0.5465730000000 1.0
C      1  0.4256900000000  0.4042800000000  0.5325250000000 1.0
C      1  0.5079150000000  0.4055070000000  0.4175930000000 1.0
C      1  0.5655100000000  0.5935350000000  0.4490530000000 1.0
C      1  0.4236980000000  0.5951310000000  0.4669410000000 1.0
C      1  0.5092130000000  0.5951910000000  0.5824090000000 1.0
C      1  0.5620860000000  0.4067210000000  0.4497770000000 1.0
C      1  0.4284490000000  0.4022920000000  0.4663260000000 1.0
C      1  0.5081690000000  0.4040100000000  0.5817790000000 1.0
C      1  0.4763900000000  0.4838640000000  0.4867340000000 1.0
C      1  0.5230460000000  0.4744640000000  0.4861690000000 1.0
C      1  0.5045210000000  0.4800630000000  0.5289730000000 1.0
C      1  0.4766140000000  0.5223760000000  0.4865140000000 1.0
C      1  0.5270740000000  0.5124950000000  0.4843710000000 1.0
C      1  0.5008920000000  0.5190580000000  0.5262090000000 1.0
C      1  0.4783300000000  0.4804260000000  0.5136480000000 1.0
C      1  0.5297980000000  0.4789350000000  0.5150450000000 1.0
C      1  0.4995540000000  0.4793820000000  0.4728630000000 1.0
C      1  0.4755220000000  0.5188880000000  0.5125000000000 1.0
C      1  0.5254130000000  0.5187990000000  0.5115540000000 1.0
C      1  0.5023770000000  0.5191380000000  0.4713020000000 1.0
C      1  0.4988970000000  0.5493510000000  0.5322620000000 1.0
C      1  0.4745370000000  0.5507400000000  0.4843960000000 1.0
C      1  0.5276510000000  0.5536580000000  0.4858450000000 1.0
C      1  0.5011490000000  0.4509690000000  0.5297960000000 1.0
C      1  0.4735400000000  0.4420650000000  0.4828460000000 1.0
C      1  0.5299890000000  0.4479060000000  0.4871350000000 1.0
C      1  0.5028560000000  0.5511620000000  0.4709140000000 1.0
C      1  0.4729270000000  0.5470820000000  0.5167020000000 1.0
C      1  0.5284780000000  0.5477080000000  0.5145590000000 1.0
C      1  0.4978820000000  0.4523120000000  0.4672070000000 1.0
C      1  0.4736940000000  0.4517490000000  0.5158140000000 1.0
C      1  0.5210690000000  0.4380020000000  0.5125460000000 1.0
C      1  0.5395500000000  0.4145190000000  0.5142690000000 1.0
C      1  0.4681540000000  0.4115620000000  0.5324820000000 1.0
C      1  0.4935140000000  0.4098270000000  0.4555410000000 1.0
C      1  0.5429140000000  0.5886320000000  0.5133670000000 1.0
C      1  0.4684600000000  0.5877560000000  0.5320880000000 1.0
C      1  0.4928070000000  0.5902720000000  0.4531210000000 1.0
C      1  0.5451300000000  0.4088150000000  0.4863780000000 1.0
C      1  0.4689880000000  0.4143020000000  0.4707280000000 1.0
C      1  0.4934000000000  0.4109920000000  0.5445050000000 1.0
C      1  0.5446970000000  0.5908850000000  0.4860910000000 1.0
C      1  0.4679490000000  0.5886410000000  0.4669550000000 1.0
C      1  0.4928540000000  0.5904040000000  0.5463150000000 1.0
C      1  0.5782560000000  0.4500850000000  0.5557010000000 1.0
C      1  0.4121670000000  0.4505980000000  0.5408040000000 1.0
C      1  0.5094400000000  0.4520320000000  0.4057990000000 1.0
C      1  0.5774000000000  0.5489190000000  0.5554690000000 1.0
C      1  0.4122320000000  0.5493950000000  0.5404090000000 1.0
C      1  0.5094830000000  0.5465940000000  0.4090800000000 1.0
C      1  0.5767870000000  0.4520820000000  0.4457250000000 1.0
C      1  0.4120730000000  0.4502420000000  0.4586630000000 1.0
C      1  0.5097340000000  0.4526480000000  0.5938000000000 1.0
C      1  0.5775960000000  0.5492890000000  0.4446620000000 1.0
C      1  0.4121090000000  0.5492330000000  0.4596250000000 1.0
C      1  0.5090510000000  0.5460370000000  0.5914610000000 1.0
C      1  0.5364380000000  0.4854550000000  0.5865840000000 1.0
C      1  0.3992630000000  0.4857780000000  0.4847360000000 1.0
C      1  0.5667930000000  0.4857950000000  0.4185670000000 1.0
C      1  0.5350260000000  0.5144120000000  0.5872030000000 1.0
C      1  0.3988640000000  0.5133040000000  0.4842780000000 1.0
C      1  0.5687940000000  0.5126320000000  0.4203460000000 1.0
C      1  0.5333590000000  0.4844660000000  0.4100770000000 1.0
C      1  0.3995980000000  0.4863270000000  0.5155370000000 1.0
C      1  0.5672720000000  0.4861210000000  0.5803920000000 1.0
C      1  0.5331060000000  0.5141210000000  0.4118840000000 1.0
C      1  0.3997490000000  0.5137630000000  0.5151450000000 1.0
C      1  0.5671990000000  0.5137090000000  0.5800570000000 1.0
C      1  0.5897740000000  0.4377670000000  0.5313960000000 1.0
C      1  0.4274940000000  0.4364410000000  0.5622310000000 1.0
C      1  0.4826100000000  0.4374400000000  0.4064310000000 1.0
C      1  0.5899370000000  0.5637160000000  0.5323950000000 1.0
C      1  0.4275270000000  0.5634780000000  0.5622250000000 1.0
C      1  0.4834360000000  0.5615620000000  0.4066450000000 1.0
C      1  0.5891750000000  0.4378500000000  0.4684600000000 1.0
C      1  0.4279600000000  0.4368600000000  0.4371480000000 1.0
C      1  0.4828160000000  0.4377040000000  0.5944190000000 1.0
C      1  0.5904480000000  0.5636520000000  0.4676350000000 1.0
C      1  0.4269160000000  0.5634120000000  0.4378840000000 1.0
C      1  0.4835800000000  0.5613680000000  0.5942080000000 1.0
C      1  0.4603460000000  0.4580040000000  0.5421440000000 1.0
C      1  0.4834470000000  0.4590560000000  0.4424780000000 1.0
C      1  0.5562210000000  0.4660700000000  0.5171180000000 1.0
C      1  0.4577250000000  0.5421910000000  0.5412090000000 1.0
C      1  0.4824080000000  0.5419870000000  0.4427800000000 1.0
C      1  0.5572170000000  0.5415260000000  0.5145830000000 1.0
C      1  0.4601990000000  0.4583760000000  0.4578390000000 1.0
C      1  0.4831820000000  0.4563410000000  0.5582640000000 1.0
C      1  0.5589170000000  0.4557810000000  0.4906210000000 1.0
C      1  0.4590310000000  0.5427950000000  0.4584650000000 1.0
C      1  0.4820150000000  0.5425110000000  0.5563730000000 1.0
C      1  0.5559800000000  0.5440310000000  0.4865430000000 1.0
C      1  0.4756400000000  0.6099790000000  0.5143400000000 1.0
C      1  0.5001810000000  0.6131100000000  0.4708550000000 1.0
C      1  0.5249820000000  0.6117850000000  0.5142170000000 1.0
C      1  0.4749760000000  0.3889680000000  0.5151300000000 1.0
C      1  0.5005020000000  0.3865200000000  0.4721800000000 1.0
C      1  0.5246980000000  0.3879560000000  0.5142250000000 1.0
C      1  0.4755630000000  0.6103330000000  0.4852290000000 1.0
C      1  0.5001240000000  0.6131380000000  0.5287370000000 1.0
C      1  0.5251080000000  0.6123830000000  0.4854320000000 1.0
C      1  0.4759710000000  0.3893360000000  0.4863940000000 1.0
C      1  0.5001300000000  0.3869020000000  0.5287910000000 1.0
C      1  0.5260630000000  0.3866080000000  0.4856880000000 1.0
C      1  0.6004890000000  0.4592310000000  0.5149470000000 1.0
C      1  0.4375130000000  0.4582710000000  0.5785410000000 1.0
C      1  0.4620510000000  0.4583100000000  0.4056390000000 1.0
C      1  0.5990640000000  0.5422000000000  0.5146530000000 1.0
C      1  0.4371940000000  0.5416920000000  0.5785730000000 1.0
C      1  0.4615540000000  0.5412230000000  0.4063700000000 1.0
C      1  0.6002700000000  0.4590650000000  0.4858490000000 1.0
C      1  0.4376470000000  0.4587480000000  0.4209480000000 1.0
C      1  0.4616090000000  0.4583480000000  0.5945970000000 1.0
C      1  0.5999940000000  0.5428850000000  0.4858080000000 1.0
C      1  0.4370590000000  0.5414790000000  0.4216950000000 1.0
C      1  0.4621390000000  0.5407780000000  0.5932510000000 1.0
C      1  0.5822250000000  0.4798610000000  0.4418880000000 1.0
C      1  0.5044670000000  0.4799270000000  0.5997030000000 1.0
C      1  0.4104290000000  0.4786320000000  0.4585010000000 1.0
C      1  0.5841290000000  0.5214810000000  0.4426960000000 1.0
C      1  0.5059110000000  0.5193040000000  0.5998010000000 1.0
C      1  0.4097330000000  0.5208420000000  0.4581280000000 1.0
C      1  0.5834840000000  0.4783700000000  0.5571610000000 1.0
C      1  0.5045460000000  0.4796640000000  0.3989730000000 1.0
C      1  0.4107130000000  0.4791830000000  0.5417370000000 1.0
C      1  0.5821990000000  0.5206340000000  0.5565150000000 1.0
C      1  0.5062390000000  0.5200330000000  0.3997520000000 1.0
C      1  0.4106610000000  0.5209890000000  0.5412630000000 1.0
C      1  0.4453400000000  0.5864970000000  0.5526760000000 1.0
C      1  0.4816530000000  0.5875970000000  0.4211070000000 1.0
C      1  0.5725110000000  0.5865320000000  0.5236110000000 1.0
C      1  0.4448500000000  0.4130620000000  0.5527150000000 1.0
C      1  0.4795190000000  0.4132230000000  0.4234460000000 1.0
C      1  0.5723970000000  0.4158860000000  0.5228640000000 1.0
C      1  0.4440650000000  0.5866370000000  0.4479380000000 1.0
C      1  0.4809470000000  0.5866310000000  0.5789270000000 1.0
C      1  0.5734840000000  0.5873930000000  0.4763160000000 1.0
C      1  0.4459120000000  0.4144290000000  0.4458580000000 1.0
C      1  0.4805300000000  0.4134460000000  0.5773680000000 1.0
C      1  0.5728410000000  0.4132410000000  0.4767590000000 1.0
C      1  0.5480870000000  0.5463960000000  0.5552560000000 1.0
C      1  0.4274990000000  0.5471320000000  0.5151130000000 1.0
C      1  0.5259020000000  0.5317580000000  0.4334760000000 1.0
C      1  0.5489050000000  0.4504580000000  0.5565330000000 1.0
C      1  0.4256350000000  0.4530880000000  0.5144830000000 1.0
C      1  0.5282150000000  0.4612270000000  0.4261560000000 1.0
C      1  0.5482710000000  0.5462200000000  0.4451710000000 1.0
C      1  0.4279250000000  0.5458840000000  0.4850080000000 1.0
C      1  0.5264240000000  0.5322620000000  0.5673980000000 1.0
C      1  0.5466440000000  0.4570870000000  0.4475110000000 1.0
C      1  0.4239750000000  0.4518490000000  0.4851750000000 1.0
C      1  0.5289750000000  0.4615600000000  0.5729230000000 1.0
C      1  0.4372280000000  0.5733970000000  0.4861060000000 1.0
C      1  0.5417460000000  0.5722080000000  0.4497040000000 1.0
C      1  0.5153020000000  0.5765090000000  0.5590820000000 1.0
C      1  0.4328820000000  0.4256430000000  0.4860450000000 1.0
C      1  0.5406090000000  0.4293650000000  0.4499590000000 1.0
C      1  0.5152930000000  0.4235820000000  0.5590880000000 1.0
C      1  0.4375160000000  0.5734430000000  0.5141490000000 1.0
C      1  0.5409150000000  0.5720230000000  0.5491480000000 1.0
C      1  0.5160670000000  0.5761740000000  0.4403410000000 1.0
C      1  0.4375680000000  0.4268830000000  0.5135910000000 1.0
C      1  0.5417090000000  0.4253740000000  0.5527630000000 1.0
C      1  0.5147440000000  0.4241990000000  0.4412780000000 1.0
C      1  0.4791430000000  0.5208310000000  0.4201610000000 1.0
C      1  0.5784540000000  0.5220190000000  0.5236790000000 1.0
C      1  0.4398340000000  0.5215270000000  0.5557950000000 1.0
C      1  0.4802620000000  0.4785160000000  0.4182190000000 1.0
C      1  0.5814590000000  0.4789880000000  0.5263500000000 1.0
C      1  0.4411720000000  0.4781620000000  0.5558610000000 1.0
C      1  0.4790880000000  0.5199210000000  0.5799940000000 1.0
C      1  0.5801720000000  0.5220850000000  0.4758700000000 1.0
C      1  0.4401600000000  0.5212040000000  0.4440470000000 1.0
C      1  0.4801250000000  0.4782810000000  0.5809810000000 1.0
C      1  0.5786430000000  0.4785850000000  0.4778160000000 1.0
C      1  0.4406940000000  0.4781450000000  0.4442780000000 1.0
C      1  0.5120530000000  0.5034890000000  0.5510940000000 1.0
C      1  0.5141630000000  0.5027450000000  0.4483240000000 1.0
C      1  0.5367870000000  0.4925390000000  0.4647410000000 1.0
C      1  0.4479690000000  0.4980490000000  0.4841450000000 1.0
C      1  0.5404590000000  0.5025650000000  0.5369620000000 1.0
C      1  0.4485070000000  0.4998100000000  0.5155710000000 1.0
C      1  0.4620560000000  0.5005630000000  0.5632870000000 1.0
C      1  0.4615550000000  0.5008640000000  0.4364850000000 1.0
C      1  0.5755930000000  0.5014230000000  0.4953330000000 1.0
END
