TITL C-2441157-2117-701 0.000762282769749229 125000 -5138.25715198001 0 0 37 (Cs) n - 1
REM
REM in /home/bkarasulu/work/CARBON/AIRSS/Generating-Clusters/ReaxFF-fromJPCA2015/Units_Real/with-SteepDescent/Higher-Symm
REM
REM
REM
REM
REM
REM ./C.cell (1df0a924f5614ab8850e4351716899ee)
REM
REM compiler GCC version 9.2.1 20190827 (Red Hat 9.2.1-1)
REM options -cpp -mtune=generic -march=x86-64 -g -O0 -fpre-include=/usr/include/finclude/math-vector-fortran.h
REM seed 2095213158 1950614642 779553818 -1005975476 985446222 872669069 -48365247 -2030283706 -1256197544 1622050877 -720560780 1916220662 244388908 -1844735538 1577043771 -1201948744 -319492446 -391049747 1164693152 -403672018 -1176756179 -951338972 -1502473550 794418951 -44100841 -2128076915 -818383256 2021680373 1629780195 -1634873578 -1825469439 1403048072 -1434203399
REM
CELL 1.54180   50.00000   50.00000   50.00000   90.00000   90.00000   90.00000
LATT -1
SFAC C  
C      1  0.4646970000000  0.5395810000000  0.4852640000000 1.0
C      1  0.4903700000000  0.5399620000000  0.5357890000000 1.0
C      1  0.5323960000000  0.5367730000000  0.5121150000000 1.0
C      1  0.5084200000000  0.5475610000000  0.4611190000000 1.0
C      1  0.4646300000000  0.4534420000000  0.4852560000000 1.0
C      1  0.4901580000000  0.4532730000000  0.5356690000000 1.0
C      1  0.5323140000000  0.4564560000000  0.5120340000000 1.0
C      1  0.5084530000000  0.4455820000000  0.4611600000000 1.0
C      1  0.5565990000000  0.5206540000000  0.5099320000000 1.0
C      1  0.5099970000000  0.5230800000000  0.4435970000000 1.0
C      1  0.4418300000000  0.5232570000000  0.4889720000000 1.0
C      1  0.4906550000000  0.5203130000000  0.5577040000000 1.0
C      1  0.5565630000000  0.4725100000000  0.5098730000000 1.0
C      1  0.5100780000000  0.4700300000000  0.4436160000000 1.0
C      1  0.4417790000000  0.4697710000000  0.4890140000000 1.0
C      1  0.4905590000000  0.4728540000000  0.5576400000000 1.0
C      1  0.5178720000000  0.4825980000000  0.5641760000000 1.0
C      1  0.5617770000000  0.4825890000000  0.4823540000000 1.0
C      1  0.4840910000000  0.4822900000000  0.4445140000000 1.0
C      1  0.4408330000000  0.4822040000000  0.5154780000000 1.0
C      1  0.5179140000000  0.5104260000000  0.5642450000000 1.0
C      1  0.5617860000000  0.5106460000000  0.4823820000000 1.0
C      1  0.4840410000000  0.5107710000000  0.4445330000000 1.0
C      1  0.4408000000000  0.5108510000000  0.5154500000000 1.0
C      1  0.4461350000000  0.4965010000000  0.4759710000000 1.0
C      1  0.4750990000000  0.4966230000000  0.5514060000000 1.0
C      1  0.5236100000000  0.4965830000000  0.4474670000000 1.0
C      1  0.5545480000000  0.4965640000000  0.5266990000000 1.0
C      1  0.5340070000000  0.4965390000000  0.5461900000000 1.0
C      1  0.5418010000000  0.4966270000000  0.4698080000000 1.0
C      1  0.4757740000000  0.4965320000000  0.4724990000000 1.0
C      1  0.4667940000000  0.4965840000000  0.5235820000000 1.0
C      1  0.4906640000000  0.4446360000000  0.4848250000000 1.0
C      1  0.4906940000000  0.5484770000000  0.4848540000000 1.0
C      1  0.5029560000000  0.4633310000000  0.5095930000000 1.0
C      1  0.5030350000000  0.5298870000000  0.5096600000000 1.0
C      1  0.4921300000000  0.4966010000000  0.5011730000000 1.0
END
