TITL C-2441165-58-645 0.0353709357239745 125000 -23331.2031990381 0 0 161 (C1) n - 1
REM
REM in /home/bkarasulu/work/CARBON/AIRSS/Generating-Clusters/ReaxFF-fromJPCA2015/Units_Real/with-SteepDescent/Higher-Symm
REM
REM
REM
REM
REM
REM ./C.cell (1df0a924f5614ab8850e4351716899ee)
REM
REM compiler GCC version 9.2.1 20190827 (Red Hat 9.2.1-1)
REM options -cpp -mtune=generic -march=x86-64 -g -O0 -fpre-include=/usr/include/finclude/math-vector-fortran.h
REM seed -1411921755 -1560782850 -1909296186 -1782717136 -77608821 -1190023283 1152196595 -44105425 -1616691362 789918617 -1458970025 -280029605 1838010753 -150952460 1196917863 -808130628 761002399 288787507 -857167556 462684082 -454714223 1186254205 -214522721 1655841178 -303921442 -1512425607 -2069411273 770411166 -2051650739 772004186 361013091 819685970 -2110738460
REM
CELL 1.54180   50.00000   50.00000   50.00000   90.00000   90.00000   90.00000
LATT -1
SFAC C  
C      1  0.4918860000000  0.5458450000000  0.5958260000000 1.0
C      1  0.4876280000000  0.6075860000000  0.5241450000000 1.0
C      1  0.4970720000000  0.5813700000000  0.4224000000000 1.0
C      1  0.4932700000000  0.4991580000000  0.3909800000000 1.0
C      1  0.4927210000000  0.4140560000000  0.4366630000000 1.0
C      1  0.4880170000000  0.3928000000000  0.5201090000000 1.0
C      1  0.4896490000000  0.4533640000000  0.5969570000000 1.0
C      1  0.4313690000000  0.4274380000000  0.4656300000000 1.0
C      1  0.4304380000000  0.4294200000000  0.5354240000000 1.0
C      1  0.4307920000000  0.4836850000000  0.5782270000000 1.0
C      1  0.4302190000000  0.5510910000000  0.5610190000000 1.0
C      1  0.4294100000000  0.5802130000000  0.4982810000000 1.0
C      1  0.4316860000000  0.5497440000000  0.4365670000000 1.0
C      1  0.4305820000000  0.4812730000000  0.4224840000000 1.0
C      1  0.5096200000000  0.5183570000000  0.4011950000000 1.0
C      1  0.5042770000000  0.4295900000000  0.4179000000000 1.0
C      1  0.5102720000000  0.3945770000000  0.5011590000000 1.0
C      1  0.5087300000000  0.4392350000000  0.5814920000000 1.0
C      1  0.5099030000000  0.5239960000000  0.5958260000000 1.0
C      1  0.5081940000000  0.5919080000000  0.5362780000000 1.0
C      1  0.5035460000000  0.5939060000000  0.4489790000000 1.0
C      1  0.5499080000000  0.4824580000000  0.4767120000000 1.0
C      1  0.5462200000000  0.4648230000000  0.4973130000000 1.0
C      1  0.5560400000000  0.4638010000000  0.5210120000000 1.0
C      1  0.5572000000000  0.4930710000000  0.5479890000000 1.0
C      1  0.5543270000000  0.5189850000000  0.5337570000000 1.0
C      1  0.5500710000000  0.5259560000000  0.5013930000000 1.0
C      1  0.5508940000000  0.5109110000000  0.4773050000000 1.0
C      1  0.4723540000000  0.4397680000000  0.4947060000000 1.0
C      1  0.4774740000000  0.4646720000000  0.5475610000000 1.0
C      1  0.4758810000000  0.5153440000000  0.5560210000000 1.0
C      1  0.4759150000000  0.5530460000000  0.5244760000000 1.0
C      1  0.4746500000000  0.5517510000000  0.4709650000000 1.0
C      1  0.4760900000000  0.5112840000000  0.4409530000000 1.0
C      1  0.4762690000000  0.4632530000000  0.4523230000000 1.0
C      1  0.5378230000000  0.5172660000000  0.4030940000000 1.0
C      1  0.5330410000000  0.4406740000000  0.4213530000000 1.0
C      1  0.5380420000000  0.3966910000000  0.5001770000000 1.0
C      1  0.5371920000000  0.4382520000000  0.5810670000000 1.0
C      1  0.5380590000000  0.5274700000000  0.5976740000000 1.0
C      1  0.5371490000000  0.5947760000000  0.5305290000000 1.0
C      1  0.5313970000000  0.5880040000000  0.4560730000000 1.0
C      1  0.4630900000000  0.4786550000000  0.5255760000000 1.0
C      1  0.4616000000000  0.5070850000000  0.5307530000000 1.0
C      1  0.4613470000000  0.5296300000000  0.5129250000000 1.0
C      1  0.4605340000000  0.5292240000000  0.4838220000000 1.0
C      1  0.4609360000000  0.5061470000000  0.4663760000000 1.0
C      1  0.4612290000000  0.4783680000000  0.4728370000000 1.0
C      1  0.4608880000000  0.4656190000000  0.4993840000000 1.0
C      1  0.5224860000000  0.5402690000000  0.4437830000000 1.0
C      1  0.5243820000000  0.4849920000000  0.4352100000000 1.0
C      1  0.5220050000000  0.4398620000000  0.4707280000000 1.0
C      1  0.5205940000000  0.4330980000000  0.5280120000000 1.0
C      1  0.5471840000000  0.4885200000000  0.5922390000000 1.0
C      1  0.5297030000000  0.5542900000000  0.5565070000000 1.0
C      1  0.5176910000000  0.5678080000000  0.4930840000000 1.0
C      1  0.5796430000000  0.4459290000000  0.5198760000000 1.0
C      1  0.5812220000000  0.4773640000000  0.5497780000000 1.0
C      1  0.5813290000000  0.5267890000000  0.5458030000000 1.0
C      1  0.5850320000000  0.5517270000000  0.5042590000000 1.0
C      1  0.5813390000000  0.5455510000000  0.4762810000000 1.0
C      1  0.5942340000000  0.5002660000000  0.4391680000000 1.0
C      1  0.5892860000000  0.4618200000000  0.4739620000000 1.0
C      1  0.5979910000000  0.4828580000000  0.5256690000000 1.0
C      1  0.6007310000000  0.5121910000000  0.5284930000000 1.0
C      1  0.6058670000000  0.5305010000000  0.5062920000000 1.0
C      1  0.6033330000000  0.5268360000000  0.4771990000000 1.0
C      1  0.6108190000000  0.5070430000000  0.4601160000000 1.0
C      1  0.6033650000000  0.4801210000000  0.4568610000000 1.0
C      1  0.5953570000000  0.4631650000000  0.5026690000000 1.0
C      1  0.5722930000000  0.5313070000000  0.5726860000000 1.0
C      1  0.5693520000000  0.5703770000000  0.5203270000000 1.0
C      1  0.5648900000000  0.5632010000000  0.4590680000000 1.0
C      1  0.5700860000000  0.5083240000000  0.4276820000000 1.0
C      1  0.5684980000000  0.4476510000000  0.4571200000000 1.0
C      1  0.5682380000000  0.4191710000000  0.5154610000000 1.0
C      1  0.5722200000000  0.4544150000000  0.5659400000000 1.0
C      1  0.4525610000000  0.4131920000000  0.5315590000000 1.0
C      1  0.4526360000000  0.4702310000000  0.5898290000000 1.0
C      1  0.4529410000000  0.5519180000000  0.5780410000000 1.0
C      1  0.4514500000000  0.5946060000000  0.5087420000000 1.0
C      1  0.4530630000000  0.5674420000000  0.4320680000000 1.0
C      1  0.4522200000000  0.4877700000000  0.4059270000000 1.0
C      1  0.4542830000000  0.4181160000000  0.4493430000000 1.0
C      1  0.4184540000000  0.5604030000000  0.5158110000000 1.0
C      1  0.4198150000000  0.5506520000000  0.4627400000000 1.0
C      1  0.4202140000000  0.5031140000000  0.4379850000000 1.0
C      1  0.4201900000000  0.4535250000000  0.4593610000000 1.0
C      1  0.4178920000000  0.4390370000000  0.5115350000000 1.0
C      1  0.4194530000000  0.4711920000000  0.5552080000000 1.0
C      1  0.4197530000000  0.5247900000000  0.5566590000000 1.0
C      1  0.4121140000000  0.5278080000000  0.4797480000000 1.0
C      1  0.4123710000000  0.5019050000000  0.4662690000000 1.0
C      1  0.4123200000000  0.4750960000000  0.4780900000000 1.0
C      1  0.4114920000000  0.4672840000000  0.5062830000000 1.0
C      1  0.4120310000000  0.4844460000000  0.5299350000000 1.0
C      1  0.4122110000000  0.5135920000000  0.5306470000000 1.0
C      1  0.4117940000000  0.5327740000000  0.5084750000000 1.0
C      1  0.4798670000000  0.4761230000000  0.4056100000000 1.0
C      1  0.4799410000000  0.4120130000000  0.4594640000000 1.0
C      1  0.4795060000000  0.4117580000000  0.5422490000000 1.0
C      1  0.4802360000000  0.4813880000000  0.5918160000000 1.0
C      1  0.4806400000000  0.5602810000000  0.5722190000000 1.0
C      1  0.4776710000000  0.5966030000000  0.4948030000000 1.0
C      1  0.4788490000000  0.5578590000000  0.4210460000000 1.0
C      1  0.4318340000000  0.4454840000000  0.5570780000000 1.0
C      1  0.4323160000000  0.5105700000000  0.5781510000000 1.0
C      1  0.4309030000000  0.5679850000000  0.5403490000000 1.0
C      1  0.4318240000000  0.5746160000000  0.4720920000000 1.0
C      1  0.4326400000000  0.5251920000000  0.4247640000000 1.0
C      1  0.4323110000000  0.4567570000000  0.4337080000000 1.0
C      1  0.4300530000000  0.4212060000000  0.4928080000000 1.0
C      1  0.5519590000000  0.5880880000000  0.5051180000000 1.0
C      1  0.5482750000000  0.5545840000000  0.4363710000000 1.0
C      1  0.5476550000000  0.4926660000000  0.4167180000000 1.0
C      1  0.5492060000000  0.4280280000000  0.4660790000000 1.0
C      1  0.5456980000000  0.4191040000000  0.5350380000000 1.0
C      1  0.5524480000000  0.4623370000000  0.5870030000000 1.0
C      1  0.5490140000000  0.5483660000000  0.5785380000000 1.0
C      1  0.4571280000000  0.4138170000000  0.5028620000000 1.0
C      1  0.4572240000000  0.4483440000000  0.5713000000000 1.0
C      1  0.4575000000000  0.5238800000000  0.5844270000000 1.0
C      1  0.4565040000000  0.5799930000000  0.5341180000000 1.0
C      1  0.4572450000000  0.5802830000000  0.4577270000000 1.0
C      1  0.4571760000000  0.5154490000000  0.4118180000000 1.0
C      1  0.4578890000000  0.4421880000000  0.4314730000000 1.0
C      1  0.5559240000000  0.4306220000000  0.5603670000000 1.0
C      1  0.5605610000000  0.5118930000000  0.5935540000000 1.0
C      1  0.5503500000000  0.5725610000000  0.5445150000000 1.0
C      1  0.5523240000000  0.5857330000000  0.4737400000000 1.0
C      1  0.5574570000000  0.5333470000000  0.4183060000000 1.0
C      1  0.5526540000000  0.4557580000000  0.4339330000000 1.0
C      1  0.5592550000000  0.4100930000000  0.4880930000000 1.0
C      1  0.5267120000000  0.4692600000000  0.4622610000000 1.0
C      1  0.5224570000000  0.4490490000000  0.5009220000000 1.0
C      1  0.5375130000000  0.4752420000000  0.5394190000000 1.0
C      1  0.5271730000000  0.5266790000000  0.5478790000000 1.0
C      1  0.5308220000000  0.5464300000000  0.5093810000000 1.0
C      1  0.5180070000000  0.5478720000000  0.4716070000000 1.0
C      1  0.5297930000000  0.5111350000000  0.4523070000000 1.0
C      1  0.4903490000000  0.4836950000000  0.4350070000000 1.0
C      1  0.4882450000000  0.4375470000000  0.4704110000000 1.0
C      1  0.4954170000000  0.4368370000000  0.5412970000000 1.0
C      1  0.4871560000000  0.4880490000000  0.5635520000000 1.0
C      1  0.4899810000000  0.5434850000000  0.5494230000000 1.0
C      1  0.4876900000000  0.5661260000000  0.4961540000000 1.0
C      1  0.4873000000000  0.5397180000000  0.4444490000000 1.0
C      1  0.4818160000000  0.5189580000000  0.6023110000000 1.0
C      1  0.4807030000000  0.5929600000000  0.5483660000000 1.0
C      1  0.4796500000000  0.5967920000000  0.4659120000000 1.0
C      1  0.4823070000000  0.5253200000000  0.3971440000000 1.0
C      1  0.4808290000000  0.4452730000000  0.4124180000000 1.0
C      1  0.4804670000000  0.3939860000000  0.4919420000000 1.0
C      1  0.4807320000000  0.4312790000000  0.5787990000000 1.0
C      1  0.5083670000000  0.5121340000000  0.5317810000000 1.0
C      1  0.5081100000000  0.5285220000000  0.5104080000000 1.0
C      1  0.5053110000000  0.5266970000000  0.4840250000000 1.0
C      1  0.5076860000000  0.5058950000000  0.4698530000000 1.0
C      1  0.5054780000000  0.4811330000000  0.4793270000000 1.0
C      1  0.5037550000000  0.4716530000000  0.5053720000000 1.0
C      1  0.5108090000000  0.4833710000000  0.5308210000000 1.0
END
