TITL C-2441161-5029-296 -3.91701264467237e-07 125000 -7080.95126563597 0 0 49 (S4) n - 1
REM
REM in /home/bkarasulu/work/CARBON/AIRSS/Generating-Clusters/ReaxFF-fromJPCA2015/Units_Real/with-SteepDescent/Higher-Symm
REM
REM
REM
REM
REM
REM ./C.cell (1df0a924f5614ab8850e4351716899ee)
REM
REM compiler GCC version 9.2.1 20190827 (Red Hat 9.2.1-1)
REM options -cpp -mtune=generic -march=x86-64 -g -O0 -fpre-include=/usr/include/finclude/math-vector-fortran.h
REM seed 2141562886 -793774556 416543442 1674345796 -1315873412 -1966535504 -45319703 49668525 -1339781299 1936424168 346647277 -530589237 1791266918 1868542233 1656708748 709538755 -488186075 -656350100 399294239 1578345505 -1752174076 -1413938015 373037704 -1330314082 525195836 -229603794 -2116197309 2029119407 188433694 2122029347 -2026539739 -890577055 1835988701
REM
CELL 1.54180   50.00000   50.00000   50.00000   90.00000   90.00000   90.00000
LATT -1
SFAC C  
C      1  0.5701940000000  0.5186210000000  0.4891710000000 1.0
C      1  0.4287930000000  0.5104230000000  0.5183690000000 1.0
C      1  0.5701960000000  0.4812390000000  0.5101580000000 1.0
C      1  0.4287890000000  0.4894370000000  0.4809870000000 1.0
C      1  0.4711980000000  0.4768190000000  0.4434780000000 1.0
C      1  0.5277810000000  0.5561260000000  0.4765570000000 1.0
C      1  0.4712090000000  0.5230410000000  0.5558710000000 1.0
C      1  0.5277850000000  0.4437340000000  0.5227800000000 1.0
C      1  0.4930400000000  0.4585010000000  0.4510770000000 1.0
C      1  0.5059370000000  0.5485250000000  0.4582420000000 1.0
C      1  0.4930490000000  0.5413590000000  0.5482670000000 1.0
C      1  0.5059450000000  0.4513350000000  0.5411000000000 1.0
C      1  0.4589110000000  0.5575690000000  0.4760340000000 1.0
C      1  0.5400780000000  0.5235730000000  0.5573060000000 1.0
C      1  0.4589160000000  0.4422910000000  0.5233170000000 1.0
C      1  0.5400670000000  0.4762870000000  0.4420290000000 1.0
C      1  0.4288610000000  0.4822120000000  0.5098320000000 1.0
C      1  0.5701240000000  0.4897760000000  0.4819470000000 1.0
C      1  0.4288600000000  0.5176480000000  0.4895250000000 1.0
C      1  0.5701270000000  0.5100840000000  0.5173830000000 1.0
C      1  0.4920060000000  0.5030560000000  0.5629840000000 1.0
C      1  0.5069870000000  0.4366180000000  0.5027970000000 1.0
C      1  0.4919940000000  0.4968040000000  0.4363600000000 1.0
C      1  0.5069860000000  0.5632420000000  0.4965450000000 1.0
C      1  0.4715210000000  0.4767720000000  0.4840220000000 1.0
C      1  0.5274610000000  0.5155820000000  0.4765110000000 1.0
C      1  0.4715240000000  0.5230880000000  0.5153260000000 1.0
C      1  0.5274650000000  0.4842780000000  0.5228270000000 1.0
C      1  0.5418280000000  0.5138950000000  0.5281990000000 1.0
C      1  0.4571620000000  0.4713990000000  0.5136400000000 1.0
C      1  0.5418220000000  0.4859650000000  0.4711360000000 1.0
C      1  0.4571600000000  0.5284610000000  0.4857110000000 1.0
C      1  0.5118650000000  0.4740670000000  0.4337170000000 1.0
C      1  0.4871120000000  0.5658840000000  0.4738100000000 1.0
C      1  0.5118780000000  0.5257930000000  0.5656240000000 1.0
C      1  0.4871170000000  0.4339760000000  0.5255350000000 1.0
C      1  0.4999000000000  0.5179600000000  0.4568970000000 1.0
C      1  0.4990830000000  0.5427050000000  0.5177020000000 1.0
C      1  0.4999090000000  0.4819000000000  0.5424460000000 1.0
C      1  0.4990800000000  0.4571550000000  0.4816410000000 1.0
C      1  0.4799910000000  0.5058340000000  0.4776960000000 1.0
C      1  0.5189930000000  0.5219080000000  0.5055740000000 1.0
C      1  0.4799950000000  0.4940260000000  0.5216510000000 1.0
C      1  0.5189920000000  0.4779520000000  0.4937660000000 1.0
C      1  0.5489430000000  0.4649360000000  0.5237200000000 1.0
C      1  0.4500420000000  0.4758770000000  0.4646820000000 1.0
C      1  0.5489380000000  0.5349240000000  0.4756130000000 1.0
C      1  0.4500490000000  0.5239830000000  0.5346700000000 1.0
C      1  0.4994930000000  0.4999300000000  0.4996710000000 1.0
END
