TITL C-2441166-8118-706 0.602930835902829 125000 -3304.52391213715 0 0 132 (Th) n - 1
REM
REM in /home/bkarasulu/work/CARBON/AIRSS/Generating-Clusters/ReaxFF-fromJPCA2015/Units_Real/with-SteepDescent/Higher-Symm
REM
REM
REM
REM
REM
REM ./C.cell (1df0a924f5614ab8850e4351716899ee)
REM
REM compiler GCC version 9.2.1 20190827 (Red Hat 9.2.1-1)
REM options -cpp -mtune=generic -march=x86-64 -g -O0 -fpre-include=/usr/include/finclude/math-vector-fortran.h
REM seed 1545174246 -41218601 1666102812 264439397 1108936825 378304851 791627246 -2078994861 -759376267 770550084 547448048 2066179341 1279348980 -655233397 436152104 -1352398899 -381352841 1790038993 321077809 743740888 -1935844727 274952094 -1746717578 -1286163406 1328145854 -1893502202 1294659552 -383569913 608920318 -1016942296 -548314362 -970055106 2119241814
REM
CELL 1.54180   50.00000   50.00000   50.00000   90.00000   90.00000   90.00000
LATT -1
SFAC C  
C      1  0.4867050000000  0.5814670000000  0.4791330000000 1.0
C      1  0.4791330000000  0.4867050000000  0.5814670000000 1.0
C      1  0.5814670000000  0.4791330000000  0.4867050000000 1.0
C      1  0.4867050000000  0.4185330000000  0.5208670000000 1.0
C      1  0.5132950000000  0.4185330000000  0.4791330000000 1.0
C      1  0.5132950000000  0.5814670000000  0.5208670000000 1.0
C      1  0.4791330000000  0.5132950000000  0.4185330000000 1.0
C      1  0.5208670000000  0.5132950000000  0.5814670000000 1.0
C      1  0.5208670000000  0.4867050000000  0.4185330000000 1.0
C      1  0.5814670000000  0.5208670000000  0.5132950000000 1.0
C      1  0.4185330000000  0.5208670000000  0.4867050000000 1.0
C      1  0.4185330000000  0.4791330000000  0.5132950000000 1.0
C      1  0.5132950000000  0.5814670000000  0.4791330000000 1.0
C      1  0.5208670000000  0.4867050000000  0.5814670000000 1.0
C      1  0.4185330000000  0.4791330000000  0.4867050000000 1.0
C      1  0.5132950000000  0.4185330000000  0.5208670000000 1.0
C      1  0.4867050000000  0.4185330000000  0.4791330000000 1.0
C      1  0.4867050000000  0.5814670000000  0.5208670000000 1.0
C      1  0.5208670000000  0.5132950000000  0.4185330000000 1.0
C      1  0.4791330000000  0.5132950000000  0.5814670000000 1.0
C      1  0.4791330000000  0.4867050000000  0.4185330000000 1.0
C      1  0.4185330000000  0.5208670000000  0.5132950000000 1.0
C      1  0.5814670000000  0.5208670000000  0.4867050000000 1.0
C      1  0.5814670000000  0.4791330000000  0.5132950000000 1.0
C      1  0.5627830000000  0.5131820000000  0.5703940000000 1.0
C      1  0.5703940000000  0.5627830000000  0.5131820000000 1.0
C      1  0.5131820000000  0.5703940000000  0.5627830000000 1.0
C      1  0.5627830000000  0.4868180000000  0.4296060000000 1.0
C      1  0.4372170000000  0.4868180000000  0.5703940000000 1.0
C      1  0.4372170000000  0.5131820000000  0.4296060000000 1.0
C      1  0.5703940000000  0.4372170000000  0.4868180000000 1.0
C      1  0.4296060000000  0.4372170000000  0.5131820000000 1.0
C      1  0.4296060000000  0.5627830000000  0.4868180000000 1.0
C      1  0.5131820000000  0.4296060000000  0.4372170000000 1.0
C      1  0.4868180000000  0.4296060000000  0.5627830000000 1.0
C      1  0.4868180000000  0.5703940000000  0.4372170000000 1.0
C      1  0.4372170000000  0.5131820000000  0.5703940000000 1.0
C      1  0.4296060000000  0.5627830000000  0.5131820000000 1.0
C      1  0.4868180000000  0.5703940000000  0.5627830000000 1.0
C      1  0.4372170000000  0.4868180000000  0.4296060000000 1.0
C      1  0.5627830000000  0.4868180000000  0.5703940000000 1.0
C      1  0.5627830000000  0.5131820000000  0.4296060000000 1.0
C      1  0.4296060000000  0.4372170000000  0.4868180000000 1.0
C      1  0.5703940000000  0.4372170000000  0.5131820000000 1.0
C      1  0.5703940000000  0.5627830000000  0.4868180000000 1.0
C      1  0.4868180000000  0.4296060000000  0.4372170000000 1.0
C      1  0.5131820000000  0.4296060000000  0.5627830000000 1.0
C      1  0.5131820000000  0.5703940000000  0.4372170000000 1.0
C      1  0.5370260000000  0.5332160000000  0.5686080000000 1.0
C      1  0.5686080000000  0.5370260000000  0.5332160000000 1.0
C      1  0.5332160000000  0.5686080000000  0.5370260000000 1.0
C      1  0.5370260000000  0.4667840000000  0.4313920000000 1.0
C      1  0.4629740000000  0.4667840000000  0.5686080000000 1.0
C      1  0.4629740000000  0.5332160000000  0.4313920000000 1.0
C      1  0.5686080000000  0.4629740000000  0.4667840000000 1.0
C      1  0.4313920000000  0.4629740000000  0.5332160000000 1.0
C      1  0.4313920000000  0.5370260000000  0.4667840000000 1.0
C      1  0.5332160000000  0.4313920000000  0.4629740000000 1.0
C      1  0.4667840000000  0.4313920000000  0.5370260000000 1.0
C      1  0.4667840000000  0.5686080000000  0.4629740000000 1.0
C      1  0.4629740000000  0.5332160000000  0.5686080000000 1.0
C      1  0.4313920000000  0.5370260000000  0.5332160000000 1.0
C      1  0.4667840000000  0.5686080000000  0.5370260000000 1.0
C      1  0.4629740000000  0.4667840000000  0.4313920000000 1.0
C      1  0.5370260000000  0.4667840000000  0.5686080000000 1.0
C      1  0.5370260000000  0.5332160000000  0.4313920000000 1.0
C      1  0.4313920000000  0.4629740000000  0.4667840000000 1.0
C      1  0.5686080000000  0.4629740000000  0.5332160000000 1.0
C      1  0.5686080000000  0.5370260000000  0.4667840000000 1.0
C      1  0.4667840000000  0.4313920000000  0.4629740000000 1.0
C      1  0.5332160000000  0.4313920000000  0.5370260000000 1.0
C      1  0.5332160000000  0.5686080000000  0.4629740000000 1.0
C      1  0.5122440000000  0.5344090000000  0.4862820000000 1.0
C      1  0.4862820000000  0.5122440000000  0.5344090000000 1.0
C      1  0.5344090000000  0.4862820000000  0.5122440000000 1.0
C      1  0.5122440000000  0.4655910000000  0.5137180000000 1.0
C      1  0.4877560000000  0.4655910000000  0.4862820000000 1.0
C      1  0.4877560000000  0.5344090000000  0.5137180000000 1.0
C      1  0.4862820000000  0.4877560000000  0.4655910000000 1.0
C      1  0.5137180000000  0.4877560000000  0.5344090000000 1.0
C      1  0.5137180000000  0.5122440000000  0.4655910000000 1.0
C      1  0.5344090000000  0.5137180000000  0.4877560000000 1.0
C      1  0.4655910000000  0.5137180000000  0.5122440000000 1.0
C      1  0.4655910000000  0.4862820000000  0.4877560000000 1.0
C      1  0.4877560000000  0.5344090000000  0.4862820000000 1.0
C      1  0.5137180000000  0.5122440000000  0.5344090000000 1.0
C      1  0.4655910000000  0.4862820000000  0.5122440000000 1.0
C      1  0.4877560000000  0.4655910000000  0.5137180000000 1.0
C      1  0.5122440000000  0.4655910000000  0.4862820000000 1.0
C      1  0.5122440000000  0.5344090000000  0.5137180000000 1.0
C      1  0.5137180000000  0.4877560000000  0.4655910000000 1.0
C      1  0.4862820000000  0.4877560000000  0.5344090000000 1.0
C      1  0.4862820000000  0.5122440000000  0.4655910000000 1.0
C      1  0.4655910000000  0.5137180000000  0.4877560000000 1.0
C      1  0.5344090000000  0.5137180000000  0.5122440000000 1.0
C      1  0.5344090000000  0.4862820000000  0.4877560000000 1.0
C      1  0.4520910000000  0.4493210000000  0.5214690000000 1.0
C      1  0.5214690000000  0.4520910000000  0.4493210000000 1.0
C      1  0.4493210000000  0.5214690000000  0.4520910000000 1.0
C      1  0.4520910000000  0.5506790000000  0.4785310000000 1.0
C      1  0.5479090000000  0.5506790000000  0.5214690000000 1.0
C      1  0.5479090000000  0.4493210000000  0.4785310000000 1.0
C      1  0.5214690000000  0.5479090000000  0.5506790000000 1.0
C      1  0.4785310000000  0.5479090000000  0.4493210000000 1.0
C      1  0.4785310000000  0.4520910000000  0.5506790000000 1.0
C      1  0.4493210000000  0.4785310000000  0.5479090000000 1.0
C      1  0.5506790000000  0.4785310000000  0.4520910000000 1.0
C      1  0.5506790000000  0.5214690000000  0.5479090000000 1.0
C      1  0.5479090000000  0.4493210000000  0.5214690000000 1.0
C      1  0.4785310000000  0.4520910000000  0.4493210000000 1.0
C      1  0.5506790000000  0.5214690000000  0.4520910000000 1.0
C      1  0.5479090000000  0.5506790000000  0.4785310000000 1.0
C      1  0.4520910000000  0.5506790000000  0.5214690000000 1.0
C      1  0.4520910000000  0.4493210000000  0.4785310000000 1.0
C      1  0.4785310000000  0.5479090000000  0.5506790000000 1.0
C      1  0.5214690000000  0.5479090000000  0.4493210000000 1.0
C      1  0.5214690000000  0.4520910000000  0.5506790000000 1.0
C      1  0.5506790000000  0.4785310000000  0.5479090000000 1.0
C      1  0.4493210000000  0.4785310000000  0.4520910000000 1.0
C      1  0.4493210000000  0.5214690000000  0.5479090000000 1.0
C      1  0.5000000000000  0.5218000000000  0.4334150000000 1.0
C      1  0.4334150000000  0.5000000000000  0.5218000000000 1.0
C      1  0.5218000000000  0.4334150000000  0.5000000000000 1.0
C      1  0.5000000000000  0.4782000000000  0.5665850000000 1.0
C      1  0.5000000000000  0.4782000000000  0.4334150000000 1.0
C      1  0.5000000000000  0.5218000000000  0.5665850000000 1.0
C      1  0.4334150000000  0.5000000000000  0.4782000000000 1.0
C      1  0.5665850000000  0.5000000000000  0.5218000000000 1.0
C      1  0.5665850000000  0.5000000000000  0.4782000000000 1.0
C      1  0.5218000000000  0.5665850000000  0.5000000000000 1.0
C      1  0.4782000000000  0.5665850000000  0.5000000000000 1.0
C      1  0.4782000000000  0.4334150000000  0.5000000000000 1.0
END
