TITL C-2441157-2117-478 0.0229390901241589 125000 -14501.4478127954 0 0 101 (C1) n - 1
REM
REM in /home/bkarasulu/work/CARBON/AIRSS/Generating-Clusters/ReaxFF-fromJPCA2015/Units_Real/with-SteepDescent/Higher-Symm
REM
REM
REM
REM
REM
REM ./C.cell (1df0a924f5614ab8850e4351716899ee)
REM
REM compiler GCC version 9.2.1 20190827 (Red Hat 9.2.1-1)
REM options -cpp -mtune=generic -march=x86-64 -g -O0 -fpre-include=/usr/include/finclude/math-vector-fortran.h
REM seed -1061882584 -1861168848 582837431 -30215825 1668861490 -1275302617 1297587019 1068152287 -818688685 -1144233315 217058904 1529025238 -480223453 34501327 31983630 908877276 -434167584 -1596476084 -382730048 -2144851461 -1775565062 1081404846 1320526528 -296390459 -125174778 13022715 1811678570 -1267470411 243489240 -1322166795 -98532261 2060758145 -1638409819
REM
CELL 1.54180   50.00000   50.00000   50.00000   90.00000   90.00000   90.00000
LATT -1
SFAC C  
C      1  0.5881580000000  0.5256140000000  0.5162220000000 1.0
C      1  0.5333020000000  0.5812040000000  0.5156360000000 1.0
C      1  0.4566710000000  0.5770420000000  0.5165690000000 1.0
C      1  0.4122350000000  0.5148240000000  0.5162370000000 1.0
C      1  0.4334310000000  0.4396180000000  0.5167110000000 1.0
C      1  0.5049690000000  0.4118510000000  0.5157690000000 1.0
C      1  0.5718830000000  0.4497500000000  0.5160740000000 1.0
C      1  0.4284280000000  0.4650050000000  0.5314290000000 1.0
C      1  0.4829980000000  0.4241540000000  0.5320430000000 1.0
C      1  0.5492880000000  0.4390300000000  0.5315510000000 1.0
C      1  0.5801230000000  0.5005050000000  0.5304840000000 1.0
C      1  0.5491130000000  0.5614700000000  0.5306500000000 1.0
C      1  0.4821160000000  0.5763040000000  0.5329440000000 1.0
C      1  0.4291140000000  0.5334730000000  0.5317620000000 1.0
C      1  0.5242260000000  0.5525520000000  0.5425130000000 1.0
C      1  0.4711010000000  0.5552750000000  0.5485240000000 1.0
C      1  0.4449330000000  0.5111840000000  0.5392260000000 1.0
C      1  0.4567180000000  0.4641650000000  0.5388940000000 1.0
C      1  0.5019280000000  0.4364340000000  0.5486970000000 1.0
C      1  0.5458780000000  0.4652430000000  0.5426540000000 1.0
C      1  0.5556260000000  0.5139330000000  0.5371270000000 1.0
C      1  0.4880730000000  0.5314370000000  0.5934370000000 1.0
C      1  0.4686700000000  0.5100420000000  0.5947010000000 1.0
C      1  0.4732330000000  0.4811810000000  0.5942540000000 1.0
C      1  0.4982540000000  0.4661560000000  0.5941590000000 1.0
C      1  0.5252300000000  0.4772380000000  0.5941590000000 1.0
C      1  0.5336570000000  0.5051050000000  0.5935330000000 1.0
C      1  0.5172500000000  0.5294800000000  0.5946700000000 1.0
C      1  0.5785320000000  0.4788280000000  0.4710670000000 1.0
C      1  0.5671640000000  0.5468990000000  0.4717010000000 1.0
C      1  0.5044320000000  0.5815600000000  0.4703500000000 1.0
C      1  0.4424300000000  0.5513690000000  0.4723040000000 1.0
C      1  0.4197210000000  0.4856490000000  0.4711180000000 1.0
C      1  0.4620270000000  0.4286830000000  0.4723220000000 1.0
C      1  0.5325750000000  0.4253850000000  0.4716030000000 1.0
C      1  0.4552210000000  0.4658310000000  0.4387530000000 1.0
C      1  0.4983190000000  0.4444650000000  0.4395100000000 1.0
C      1  0.5406650000000  0.4645750000000  0.4411580000000 1.0
C      1  0.5577350000000  0.5099040000000  0.4360390000000 1.0
C      1  0.5252910000000  0.5457420000000  0.4424550000000 1.0
C      1  0.4778920000000  0.5525850000000  0.4357490000000 1.0
C      1  0.4455350000000  0.5126620000000  0.4370040000000 1.0
C      1  0.4721750000000  0.4808540000000  0.5164060000000 1.0
C      1  0.4986220000000  0.4753440000000  0.5061350000000 1.0
C      1  0.5227970000000  0.4822330000000  0.5223780000000 1.0
C      1  0.5348070000000  0.5080280000000  0.5121770000000 1.0
C      1  0.5114320000000  0.5260080000000  0.5232030000000 1.0
C      1  0.4845740000000  0.5287790000000  0.5107710000000 1.0
C      1  0.4662140000000  0.5074790000000  0.5171500000000 1.0
C      1  0.5012250000000  0.4612200000000  0.5640770000000 1.0
C      1  0.5281910000000  0.4732610000000  0.5650500000000 1.0
C      1  0.5374840000000  0.5084530000000  0.5644550000000 1.0
C      1  0.5203790000000  0.5333710000000  0.5652560000000 1.0
C      1  0.4844520000000  0.5341310000000  0.5638320000000 1.0
C      1  0.4659390000000  0.5098930000000  0.5650590000000 1.0
C      1  0.4714550000000  0.4792840000000  0.5648820000000 1.0
C      1  0.4894500000000  0.4362910000000  0.4819290000000 1.0
C      1  0.5423830000000  0.4516320000000  0.4824480000000 1.0
C      1  0.5668210000000  0.5040190000000  0.4813170000000 1.0
C      1  0.5405620000000  0.5539580000000  0.4825640000000 1.0
C      1  0.4838440000000  0.5649550000000  0.4831390000000 1.0
C      1  0.4429950000000  0.5231310000000  0.4814440000000 1.0
C      1  0.4414660000000  0.4674600000000  0.4812090000000 1.0
C      1  0.5338810000000  0.5060870000000  0.4187420000000 1.0
C      1  0.5152400000000  0.5283040000000  0.4203720000000 1.0
C      1  0.4863880000000  0.5301100000000  0.4183650000000 1.0
C      1  0.4677310000000  0.5075670000000  0.4173590000000 1.0
C      1  0.4738120000000  0.4795760000000  0.4180370000000 1.0
C      1  0.4993630000000  0.4668660000000  0.4181210000000 1.0
C      1  0.5255320000000  0.4783260000000  0.4187390000000 1.0
C      1  0.5108410000000  0.5769770000000  0.5335100000000 1.0
C      1  0.4465010000000  0.5555880000000  0.5339230000000 1.0
C      1  0.4223150000000  0.4928130000000  0.5326160000000 1.0
C      1  0.4576650000000  0.4360810000000  0.5323920000000 1.0
C      1  0.5241800000000  0.4249660000000  0.5340050000000 1.0
C      1  0.5730900000000  0.4729970000000  0.5332580000000 1.0
C      1  0.5670470000000  0.5396660000000  0.5309860000000 1.0
C      1  0.4318440000000  0.4868600000000  0.4450820000000 1.0
C      1  0.4677800000000  0.4391410000000  0.4461770000000 1.0
C      1  0.5277470000000  0.4371700000000  0.4458730000000 1.0
C      1  0.5658600000000  0.4829750000000  0.4451850000000 1.0
C      1  0.5551900000000  0.5370280000000  0.4472000000000 1.0
C      1  0.5026240000000  0.5661440000000  0.4457440000000 1.0
C      1  0.4520890000000  0.5437950000000  0.4462120000000 1.0
C      1  0.5366760000000  0.5041500000000  0.4818900000000 1.0
C      1  0.5217560000000  0.5324620000000  0.4749560000000 1.0
C      1  0.4943350000000  0.5378650000000  0.4852110000000 1.0
C      1  0.4624780000000  0.5052310000000  0.4654200000000 1.0
C      1  0.4666130000000  0.4761770000000  0.4681410000000 1.0
C      1  0.4975290000000  0.4611230000000  0.4674140000000 1.0
C      1  0.5260030000000  0.4734090000000  0.4707810000000 1.0
C      1  0.5094720000000  0.4155480000000  0.4872440000000 1.0
C      1  0.5711940000000  0.4553130000000  0.4873830000000 1.0
C      1  0.5830890000000  0.5277760000000  0.4876740000000 1.0
C      1  0.5291710000000  0.5805420000000  0.4866880000000 1.0
C      1  0.4559820000000  0.5726170000000  0.4879940000000 1.0
C      1  0.4175530000000  0.5104960000000  0.4876890000000 1.0
C      1  0.4390170000000  0.4391120000000  0.4880980000000 1.0
C      1  0.5034050000000  0.5005330000000  0.5382180000000 1.0
C      1  0.4960950000000  0.4970640000000  0.4873420000000 1.0
C      1  0.4938420000000  0.5051970000000  0.4595850000000 1.0
END
