TITL C-2441154-10-1435 0.0099997064758592 125000 -6733.01371175027 0 0 48 (C2) n - 1
REM
REM in /home/bkarasulu/work/CARBON/AIRSS/Generating-Clusters/ReaxFF-fromJPCA2015/Units_Real/with-SteepDescent/Higher-Symm
REM
REM
REM
REM
REM
REM ./C.cell (1df0a924f5614ab8850e4351716899ee)
REM
REM compiler GCC version 9.2.1 20190827 (Red Hat 9.2.1-1)
REM options -cpp -mtune=generic -march=x86-64 -g -O0 -fpre-include=/usr/include/finclude/math-vector-fortran.h
REM seed -1565712063 -1074169089 803782007 -311765126 1639023031 -991516787 1253326924 -1693468603 162459669 -1828935618 -1753605968 -1911854430 -903501528 1739928171 -1297957691 -883033940 -1886343152 1312446454 55635663 1194772085 251508195 504321909 -402273096 -927028972 -1811886164 353252704 1071550950 1551129533 -61564051 562754712 -155322754 -1867169361 -1693446816
REM
CELL 1.54180   50.00000   50.00000   50.00000   90.00000   90.00000   90.00000
LATT -1
SFAC C  
C      1  0.5126750000000  0.5141890000000  0.5025360000000 1.0
C      1  0.5136560000000  0.4860080000000  0.4976410000000 1.0
C      1  0.4839510000000  0.5132730000000  0.4988650000000 1.0
C      1  0.4843930000000  0.4855580000000  0.5010810000000 1.0
C      1  0.4539020000000  0.4788110000000  0.4725220000000 1.0
C      1  0.4545640000000  0.5208880000000  0.5271500000000 1.0
C      1  0.5470260000000  0.4815960000000  0.5268870000000 1.0
C      1  0.5472830000000  0.5194790000000  0.4728980000000 1.0
C      1  0.4657670000000  0.4809220000000  0.4475680000000 1.0
C      1  0.4660330000000  0.5189160000000  0.5523900000000 1.0
C      1  0.5340000000000  0.4814720000000  0.5520540000000 1.0
C      1  0.5344510000000  0.5188780000000  0.4478830000000 1.0
C      1  0.5108570000000  0.4461830000000  0.4768160000000 1.0
C      1  0.5111310000000  0.5538370000000  0.5233680000000 1.0
C      1  0.4898460000000  0.4457710000000  0.5230930000000 1.0
C      1  0.4896660000000  0.5539380000000  0.4774200000000 1.0
C      1  0.5056040000000  0.4888120000000  0.4151840000000 1.0
C      1  0.5057330000000  0.5112990000000  0.5847020000000 1.0
C      1  0.4942600000000  0.4894530000000  0.5840420000000 1.0
C      1  0.4942120000000  0.5106900000000  0.4159790000000 1.0
C      1  0.4880230000000  0.4703200000000  0.5649080000000 1.0
C      1  0.4881280000000  0.5296900000000  0.4351110000000 1.0
C      1  0.5118180000000  0.4698460000000  0.4343960000000 1.0
C      1  0.5118720000000  0.5303160000000  0.5653550000000 1.0
C      1  0.4865070000000  0.5411300000000  0.5543470000000 1.0
C      1  0.4864690000000  0.4590960000000  0.4455140000000 1.0
C      1  0.5136560000000  0.5404740000000  0.4459400000000 1.0
C      1  0.5137250000000  0.4597500000000  0.5541730000000 1.0
C      1  0.4638540000000  0.4530920000000  0.5152400000000 1.0
C      1  0.4636760000000  0.5469240000000  0.4847610000000 1.0
C      1  0.5367960000000  0.4545930000000  0.4850140000000 1.0
C      1  0.5368700000000  0.5445960000000  0.5153920000000 1.0
C      1  0.5165550000000  0.4434130000000  0.5296250000000 1.0
C      1  0.5166460000000  0.5563270000000  0.4707530000000 1.0
C      1  0.4841060000000  0.4428980000000  0.4700110000000 1.0
C      1  0.4844360000000  0.5573810000000  0.5298270000000 1.0
C      1  0.5375020000000  0.4847670000000  0.4774470000000 1.0
C      1  0.5361740000000  0.5146100000000  0.5223320000000 1.0
C      1  0.4631220000000  0.4825040000000  0.5217660000000 1.0
C      1  0.4619020000000  0.5174980000000  0.4779290000000 1.0
C      1  0.4597210000000  0.4546760000000  0.4854890000000 1.0
C      1  0.4599120000000  0.5453500000000  0.5144210000000 1.0
C      1  0.5401450000000  0.4567110000000  0.5145840000000 1.0
C      1  0.5407020000000  0.5440270000000  0.4855740000000 1.0
C      1  0.5289070000000  0.4894800000000  0.4498310000000 1.0
C      1  0.5281120000000  0.5106130000000  0.5500240000000 1.0
C      1  0.4709510000000  0.4895870000000  0.5494910000000 1.0
C      1  0.4707030000000  0.5103570000000  0.4506630000000 1.0
END
