TITL C-2441169-1362-696 -0.000286282389955872 125000 -3628.35977446161 0 0 27 (D3h) n - 1
REM
REM in /home/bkarasulu/work/CARBON/AIRSS/Generating-Clusters/ReaxFF-fromJPCA2015/Units_Real/with-SteepDescent/Higher-Symm
REM
REM
REM
REM
REM
REM ./C.cell (1df0a924f5614ab8850e4351716899ee)
REM
REM compiler GCC version 9.2.1 20190827 (Red Hat 9.2.1-1)
REM options -cpp -mtune=generic -march=x86-64 -g -O0 -fpre-include=/usr/include/finclude/math-vector-fortran.h
REM seed -321603748 -1707821342 255561996 -716971120 -1546727030 -228942079 1907066919 -1811008600 2094722247 -1439862864 -1069668542 1463730277 444518686 -1949825208 -2038892591 -1007854271 2066908991 -1464985399 -1579833596 1024041001 -1925803424 -1213120913 2059955206 -1263494265 -1966528993 -855375623 897191072 1593815097 -1732181119 2045285826 -106095597 2016022475 -1925131954
REM
CELL 1.54180   50.00000   50.00000   50.00000   90.00000   90.00000   90.00000
LATT -1
SFAC C  
C      1  0.5397320000000  0.5002470000000  0.4509090000000 1.0
C      1  0.5619990000000  0.5001480000000  0.4879460000000 1.0
C      1  0.5552410000000  0.4994660000000  0.5306000000000 1.0
C      1  0.5226010000000  0.5007890000000  0.5589630000000 1.0
C      1  0.4794900000000  0.4991220000000  0.5597160000000 1.0
C      1  0.4458700000000  0.5008550000000  0.5325070000000 1.0
C      1  0.4376240000000  0.4992090000000  0.4901780000000 1.0
C      1  0.4585750000000  0.5007010000000  0.4523410000000 1.0
C      1  0.4988460000000  0.4994620000000  0.4368580000000 1.0
C      1  0.4993150000000  0.4760880000000  0.4566810000000 1.0
C      1  0.5273900000000  0.4766840000000  0.4663610000000 1.0
C      1  0.5425880000000  0.4766070000000  0.4917930000000 1.0
C      1  0.5378340000000  0.4760970000000  0.5211140000000 1.0
C      1  0.5154620000000  0.4770790000000  0.5405420000000 1.0
C      1  0.4858120000000  0.4758260000000  0.5409030000000 1.0
C      1  0.4627550000000  0.4771300000000  0.5222600000000 1.0
C      1  0.4572410000000  0.4758900000000  0.4931420000000 1.0
C      1  0.4716110000000  0.4770180000000  0.4671880000000 1.0
C      1  0.4991330000000  0.5231040000000  0.4566230000000 1.0
C      1  0.5271690000000  0.5236840000000  0.4662220000000 1.0
C      1  0.5425440000000  0.5236160000000  0.4916450000000 1.0
C      1  0.5380140000000  0.5231050000000  0.5209180000000 1.0
C      1  0.5156080000000  0.5241060000000  0.5403900000000 1.0
C      1  0.4859870000000  0.5228560000000  0.5410660000000 1.0
C      1  0.4629480000000  0.5241570000000  0.5224050000000 1.0
C      1  0.4571270000000  0.5229160000000  0.4933310000000 1.0
C      1  0.4714870000000  0.5240360000000  0.4673970000000 1.0
END
