TITL C-2441168-9922-109 0.0727218931126779 125000 -15400.1402905265 0 0 117 (C1) n - 1
REM
REM in /home/bkarasulu/work/CARBON/AIRSS/Generating-Clusters/ReaxFF-fromJPCA2015/Units_Real/with-SteepDescent/Higher-Symm
REM
REM
REM
REM
REM
REM ./C.cell (1df0a924f5614ab8850e4351716899ee)
REM
REM compiler GCC version 9.2.1 20190827 (Red Hat 9.2.1-1)
REM options -cpp -mtune=generic -march=x86-64 -g -O0 -fpre-include=/usr/include/finclude/math-vector-fortran.h
REM seed 651444542 -451008183 -1222396585 1779343590 -1495504431 -1653213005 2129007475 -1116807107 1245206756 -867450230 902267457 -545830646 328949898 84872033 -1394499499 -2072457476 2067389684 -651819481 -657924805 23731998 -839417572 -1374708282 -955681972 -199577025 -2051229437 613390095 1717524774 548498635 -525512388 1611663755 390404581 1662068659 1244356085
REM
CELL 1.54180   50.00000   50.00000   50.00000   90.00000   90.00000   90.00000
LATT -1
SFAC C  
C      1  0.4705280000000  0.4759120000000  0.4990580000000 1.0
C      1  0.4651940000000  0.5019510000000  0.4909150000000 1.0
C      1  0.4690370000000  0.5247730000000  0.5070310000000 1.0
C      1  0.4917590000000  0.5376660000000  0.4949240000000 1.0
C      1  0.5192620000000  0.5296900000000  0.5008580000000 1.0
C      1  0.5374200000000  0.5120660000000  0.5045990000000 1.0
C      1  0.5356660000000  0.4880010000000  0.4919150000000 1.0
C      1  0.5180820000000  0.4676220000000  0.4985000000000 1.0
C      1  0.4922520000000  0.4589470000000  0.5015930000000 1.0
C      1  0.4011090000000  0.4865220000000  0.4804280000000 1.0
C      1  0.4150020000000  0.5556170000000  0.4828410000000 1.0
C      1  0.4716900000000  0.5928230000000  0.4860260000000 1.0
C      1  0.5371330000000  0.5941900000000  0.4869550000000 1.0
C      1  0.5891230000000  0.5469860000000  0.4853260000000 1.0
C      1  0.5958250000000  0.4795840000000  0.4810710000000 1.0
C      1  0.5605190000000  0.4236510000000  0.4882220000000 1.0
C      1  0.4963170000000  0.3998640000000  0.4852050000000 1.0
C      1  0.4340380000000  0.4274450000000  0.4893260000000 1.0
C      1  0.5879280000000  0.5241590000000  0.5031040000000 1.0
C      1  0.5838100000000  0.4632020000000  0.5022870000000 1.0
C      1  0.5430530000000  0.4279580000000  0.5116660000000 1.0
C      1  0.4770170000000  0.4114490000000  0.5016830000000 1.0
C      1  0.4357020000000  0.4434900000000  0.5138450000000 1.0
C      1  0.4100340000000  0.5061670000000  0.5011630000000 1.0
C      1  0.4350750000000  0.5641470000000  0.5020410000000 1.0
C      1  0.4824970000000  0.5865690000000  0.5131710000000 1.0
C      1  0.5472100000000  0.5741820000000  0.5076820000000 1.0
C      1  0.4519610000000  0.4636410000000  0.5732850000000 1.0
C      1  0.4495930000000  0.5166240000000  0.5712580000000 1.0
C      1  0.4713100000000  0.5517100000000  0.5721750000000 1.0
C      1  0.4957620000000  0.5662510000000  0.5754910000000 1.0
C      1  0.5407250000000  0.5433760000000  0.5734220000000 1.0
C      1  0.5538320000000  0.5165430000000  0.5705520000000 1.0
C      1  0.5495490000000  0.4643440000000  0.5734000000000 1.0
C      1  0.5277570000000  0.4452550000000  0.5714300000000 1.0
C      1  0.4747500000000  0.4447120000000  0.5722680000000 1.0
C      1  0.5361700000000  0.4378040000000  0.4509020000000 1.0
C      1  0.4885130000000  0.4290000000000  0.4475850000000 1.0
C      1  0.4445870000000  0.4545310000000  0.4500840000000 1.0
C      1  0.4348550000000  0.4969590000000  0.4452060000000 1.0
C      1  0.4449450000000  0.5471420000000  0.4479600000000 1.0
C      1  0.4816830000000  0.5626430000000  0.4446850000000 1.0
C      1  0.5354880000000  0.5623980000000  0.4492410000000 1.0
C      1  0.5672900000000  0.5261190000000  0.4475960000000 1.0
C      1  0.5642250000000  0.4819050000000  0.4460890000000 1.0
C      1  0.5754500000000  0.4443280000000  0.4815630000000 1.0
C      1  0.5221320000000  0.4103060000000  0.4881110000000 1.0
C      1  0.4581940000000  0.4146180000000  0.4830510000000 1.0
C      1  0.4167030000000  0.4632370000000  0.4796600000000 1.0
C      1  0.4143300000000  0.5266960000000  0.4806560000000 1.0
C      1  0.4478450000000  0.5793980000000  0.4830770000000 1.0
C      1  0.5118270000000  0.5924070000000  0.4757270000000 1.0
C      1  0.5665180000000  0.5646670000000  0.4869800000000 1.0
C      1  0.5949290000000  0.5064970000000  0.4823740000000 1.0
C      1  0.4675910000000  0.4716810000000  0.4531480000000 1.0
C      1  0.4590980000000  0.4991740000000  0.4641400000000 1.0
C      1  0.4658370000000  0.5257310000000  0.4524060000000 1.0
C      1  0.4888870000000  0.5410380000000  0.4641510000000 1.0
C      1  0.5171840000000  0.5400830000000  0.4527490000000 1.0
C      1  0.5405290000000  0.5165910000000  0.4532570000000 1.0
C      1  0.5414670000000  0.4881730000000  0.4645350000000 1.0
C      1  0.5262840000000  0.4643100000000  0.4520780000000 1.0
C      1  0.4949850000000  0.4561590000000  0.4546890000000 1.0
C      1  0.4971150000000  0.4610200000000  0.4257500000000 1.0
C      1  0.4703240000000  0.4728640000000  0.4237860000000 1.0
C      1  0.4543400000000  0.4975070000000  0.4230070000000 1.0
C      1  0.4670480000000  0.5237670000000  0.4230680000000 1.0
C      1  0.4884920000000  0.5434780000000  0.4229400000000 1.0
C      1  0.5166960000000  0.5374860000000  0.4239020000000 1.0
C      1  0.5374610000000  0.5162070000000  0.4233810000000 1.0
C      1  0.5454870000000  0.4881270000000  0.4242530000000 1.0
C      1  0.5262030000000  0.4660630000000  0.4237570000000 1.0
C      1  0.4879950000000  0.4328410000000  0.5158520000000 1.0
C      1  0.4501640000000  0.4717720000000  0.5185360000000 1.0
C      1  0.4302890000000  0.4951370000000  0.5197740000000 1.0
C      1  0.4476010000000  0.5418960000000  0.5158880000000 1.0
C      1  0.4978630000000  0.5626040000000  0.5090080000000 1.0
C      1  0.5244510000000  0.5547440000000  0.5115950000000 1.0
C      1  0.5621990000000  0.5231030000000  0.5132660000000 1.0
C      1  0.5583780000000  0.4730270000000  0.5153890000000 1.0
C      1  0.5338930000000  0.4568050000000  0.5172160000000 1.0
C      1  0.5325670000000  0.5769830000000  0.5440480000000 1.0
C      1  0.5709120000000  0.5348560000000  0.5379580000000 1.0
C      1  0.5742040000000  0.4803050000000  0.5391640000000 1.0
C      1  0.5509760000000  0.4297710000000  0.5404870000000 1.0
C      1  0.4966090000000  0.4218380000000  0.5413660000000 1.0
C      1  0.4416980000000  0.4376630000000  0.5409760000000 1.0
C      1  0.4205980000000  0.4892500000000  0.5461470000000 1.0
C      1  0.4345610000000  0.5430130000000  0.5415890000000 1.0
C      1  0.4758290000000  0.5808620000000  0.5410270000000 1.0
C      1  0.5822390000000  0.4639630000000  0.4607920000000 1.0
C      1  0.5416290000000  0.4162450000000  0.4676050000000 1.0
C      1  0.4783670000000  0.4077490000000  0.4610710000000 1.0
C      1  0.4242770000000  0.4409240000000  0.4640400000000 1.0
C      1  0.4113780000000  0.5064610000000  0.4590370000000 1.0
C      1  0.4314990000000  0.5680320000000  0.4615010000000 1.0
C      1  0.4885130000000  0.5875070000000  0.4621150000000 1.0
C      1  0.5520970000000  0.5788400000000  0.4638000000000 1.0
C      1  0.5909160000000  0.5284250000000  0.4613150000000 1.0
C      1  0.5317370000000  0.5090710000000  0.5551110000000 1.0
C      1  0.5299580000000  0.4848410000000  0.5632510000000 1.0
C      1  0.5172970000000  0.4643410000000  0.5458290000000 1.0
C      1  0.4898470000000  0.4601660000000  0.5527080000000 1.0
C      1  0.4669730000000  0.4754500000000  0.5482850000000 1.0
C      1  0.4714160000000  0.4972640000000  0.5651560000000 1.0
C      1  0.4701490000000  0.5169540000000  0.5501510000000 1.0
C      1  0.4884680000000  0.5352680000000  0.5516330000000 1.0
C      1  0.5148020000000  0.5312800000000  0.5632970000000 1.0
C      1  0.5524920000000  0.5578920000000  0.5512230000000 1.0
C      1  0.5741030000000  0.5087280000000  0.5511850000000 1.0
C      1  0.5655570000000  0.4546440000000  0.5513990000000 1.0
C      1  0.5250910000000  0.4231460000000  0.5531010000000 1.0
C      1  0.4690580000000  0.4249410000000  0.5516560000000 1.0
C      1  0.4295630000000  0.4613420000000  0.5549820000000 1.0
C      1  0.4250210000000  0.5175490000000  0.5552030000000 1.0
C      1  0.4535740000000  0.5639430000000  0.5517010000000 1.0
C      1  0.5049560000000  0.5813610000000  0.5533130000000 1.0
END
