TITL C-2441160-1326-923 0.049111460755327 125000 -12866.6475217297 0 0 92 (C1) n - 1
REM
REM in /home/bkarasulu/work/CARBON/AIRSS/Generating-Clusters/ReaxFF-fromJPCA2015/Units_Real/with-SteepDescent/Higher-Symm
REM
REM
REM
REM
REM
REM ./C.cell (1df0a924f5614ab8850e4351716899ee)
REM
REM compiler GCC version 9.2.1 20190827 (Red Hat 9.2.1-1)
REM options -cpp -mtune=generic -march=x86-64 -g -O0 -fpre-include=/usr/include/finclude/math-vector-fortran.h
REM seed 256501442 -240300633 -1676844437 -1074657909 1970527131 -1218630373 960559539 1769332178 -635686346 257511457 357327736 1551048569 704933010 -2076140894 -1388831175 -169268763 -2079023606 -647152880 150761690 -213324107 939097747 -245957839 -415906777 537236866 1398127842 1368824453 -1308206306 -1146656907 1453304851 711487323 191800225 130897496 457259133
REM
CELL 1.54180   50.00000   50.00000   50.00000   90.00000   90.00000   90.00000
LATT -1
SFAC C  
C      1  0.5509990000000  0.4434060000000  0.4988600000000 1.0
C      1  0.5546890000000  0.5320700000000  0.4502470000000 1.0
C      1  0.5548830000000  0.5256080000000  0.5422100000000 1.0
C      1  0.4531560000000  0.4549490000000  0.4528900000000 1.0
C      1  0.4529830000000  0.5658230000000  0.4877020000000 1.0
C      1  0.4534980000000  0.4795620000000  0.5642390000000 1.0
C      1  0.4490630000000  0.4738420000000  0.5210070000000 1.0
C      1  0.4509710000000  0.4962450000000  0.4715480000000 1.0
C      1  0.4443690000000  0.5337500000000  0.5170380000000 1.0
C      1  0.4559610000000  0.5317550000000  0.4497390000000 1.0
C      1  0.4516540000000  0.5294660000000  0.5559890000000 1.0
C      1  0.4518150000000  0.4388290000000  0.5008170000000 1.0
C      1  0.4677080000000  0.4725190000000  0.4727440000000 1.0
C      1  0.4685990000000  0.5333780000000  0.5034960000000 1.0
C      1  0.4705630000000  0.4928560000000  0.5240210000000 1.0
C      1  0.5348660000000  0.5649790000000  0.4676480000000 1.0
C      1  0.5357220000000  0.4970470000000  0.5734320000000 1.0
C      1  0.5351800000000  0.4389030000000  0.4598040000000 1.0
C      1  0.5174010000000  0.4231880000000  0.4746130000000 1.0
C      1  0.5171350000000  0.5594410000000  0.4455870000000 1.0
C      1  0.5185780000000  0.5184290000000  0.5780400000000 1.0
C      1  0.4211210000000  0.4962430000000  0.4736580000000 1.0
C      1  0.4185850000000  0.5226920000000  0.5114660000000 1.0
C      1  0.4208930000000  0.4773390000000  0.5163260000000 1.0
C      1  0.5312770000000  0.4878570000000  0.4193390000000 1.0
C      1  0.5326920000000  0.5650510000000  0.5289440000000 1.0
C      1  0.5309820000000  0.4404500000000  0.5442530000000 1.0
C      1  0.4977340000000  0.5825130000000  0.4948840000000 1.0
C      1  0.4979970000000  0.4643060000000  0.5752610000000 1.0
C      1  0.4978150000000  0.4582570000000  0.4399670000000 1.0
C      1  0.5668430000000  0.5518440000000  0.4993450000000 1.0
C      1  0.5662210000000  0.4762190000000  0.5475270000000 1.0
C      1  0.5672540000000  0.4727320000000  0.4589170000000 1.0
C      1  0.5594980000000  0.4481480000000  0.4716430000000 1.0
C      1  0.5599580000000  0.5514990000000  0.4707340000000 1.0
C      1  0.5586330000000  0.5018350000000  0.5580820000000 1.0
C      1  0.4206500000000  0.5240290000000  0.4829080000000 1.0
C      1  0.4195630000000  0.5016370000000  0.5309660000000 1.0
C      1  0.4180890000000  0.4703610000000  0.4878650000000 1.0
C      1  0.5669980000000  0.4800060000000  0.5187360000000 1.0
C      1  0.5745080000000  0.4953880000000  0.4754900000000 1.0
C      1  0.5719610000000  0.5287120000000  0.5164360000000 1.0
C      1  0.5056440000000  0.4987420000000  0.4154320000000 1.0
C      1  0.5064730000000  0.5694500000000  0.5417800000000 1.0
C      1  0.5047220000000  0.4288120000000  0.5441530000000 1.0
C      1  0.5197480000000  0.4604740000000  0.5246360000000 1.0
C      1  0.5262590000000  0.4979050000000  0.4617580000000 1.0
C      1  0.5225410000000  0.5424260000000  0.5132300000000 1.0
C      1  0.5490320000000  0.5742420000000  0.5075350000000 1.0
C      1  0.5479410000000  0.4568030000000  0.5607780000000 1.0
C      1  0.5489310000000  0.4716780000000  0.4338210000000 1.0
C      1  0.5286770000000  0.4254090000000  0.5004970000000 1.0
C      1  0.5302040000000  0.5362280000000  0.4358210000000 1.0
C      1  0.5277310000000  0.5386650000000  0.5597170000000 1.0
C      1  0.5103190000000  0.5150360000000  0.4417180000000 1.0
C      1  0.5012720000000  0.5428610000000  0.5497170000000 1.0
C      1  0.5040740000000  0.4370300000000  0.5144670000000 1.0
C      1  0.5413560000000  0.4704070000000  0.5060930000000 1.0
C      1  0.5503590000000  0.5104440000000  0.4686340000000 1.0
C      1  0.5331820000000  0.5179240000000  0.5225660000000 1.0
C      1  0.4901440000000  0.5114640000000  0.5771620000000 1.0
C      1  0.4885920000000  0.4279090000000  0.4725540000000 1.0
C      1  0.4886840000000  0.5582700000000  0.4524350000000 1.0
C      1  0.4852150000000  0.5290470000000  0.4562760000000 1.0
C      1  0.4796790000000  0.5220850000000  0.5519830000000 1.0
C      1  0.4802330000000  0.4424950000000  0.4958750000000 1.0
C      1  0.4587860000000  0.4807300000000  0.4311790000000 1.0
C      1  0.4591260000000  0.5705610000000  0.5182560000000 1.0
C      1  0.4584410000000  0.4522790000000  0.5538590000000 1.0
C      1  0.5143420000000  0.5000990000000  0.5282590000000 1.0
C      1  0.5142000000000  0.4861140000000  0.4848980000000 1.0
C      1  0.4970550000000  0.5121190000000  0.4855350000000 1.0
C      1  0.4854580000000  0.4423420000000  0.5608300000000 1.0
C      1  0.4845460000000  0.4791120000000  0.4200070000000 1.0
C      1  0.4863550000000  0.5794820000000  0.5216610000000 1.0
C      1  0.5267860000000  0.5802120000000  0.4901000000000 1.0
C      1  0.5265780000000  0.4705360000000  0.5748730000000 1.0
C      1  0.5273100000000  0.4519470000000  0.4374940000000 1.0
C      1  0.4967120000000  0.4834460000000  0.5335680000000 1.0
C      1  0.4952320000000  0.4725320000000  0.4675790000000 1.0
C      1  0.4979890000000  0.5368930000000  0.5008130000000 1.0
C      1  0.4771660000000  0.4384740000000  0.4488570000000 1.0
C      1  0.4781370000000  0.5743160000000  0.4748490000000 1.0
C      1  0.4780270000000  0.4851030000000  0.5792880000000 1.0
C      1  0.4401900000000  0.5433410000000  0.4719650000000 1.0
C      1  0.4388040000000  0.5031350000000  0.5535650000000 1.0
C      1  0.4355320000000  0.4490550000000  0.4790760000000 1.0
C      1  0.4471530000000  0.5046860000000  0.4414910000000 1.0
C      1  0.4464010000000  0.5532590000000  0.5385590000000 1.0
C      1  0.4462120000000  0.4462010000000  0.5285890000000 1.0
C      1  0.4711260000000  0.5063200000000  0.4971310000000 1.0
C      1  0.5785660000000  0.5026820000000  0.5045400000000 1.0
END
