TITL C-2441168-9922-758 0.0763745353635701 125000 -20960.5378609564 0 0 154 (C1) n - 1
REM
REM in /home/bkarasulu/work/CARBON/AIRSS/Generating-Clusters/ReaxFF-fromJPCA2015/Units_Real/with-SteepDescent/Higher-Symm
REM
REM
REM
REM
REM
REM ./C.cell (1df0a924f5614ab8850e4351716899ee)
REM
REM compiler GCC version 9.2.1 20190827 (Red Hat 9.2.1-1)
REM options -cpp -mtune=generic -march=x86-64 -g -O0 -fpre-include=/usr/include/finclude/math-vector-fortran.h
REM seed 1789259399 -673301819 1502020908 -400390499 1296856745 291622713 -448965778 765965571 697742260 -1313060822 893372190 592883750 -1062230579 1076190021 1461033468 -1209847302 -558868362 295385710 1685720207 -825008211 -1594687375 -152003881 -266556309 -67298854 1477977337 994196719 282004864 1033665668 -554199428 -210828479 -2139146833 -1016095017 1776545784
REM
CELL 1.54180   50.00000   50.00000   50.00000   90.00000   90.00000   90.00000
LATT -1
SFAC C  
C      1  0.4879550000000  0.4172440000000  0.4575440000000 1.0
C      1  0.4807480000000  0.5842140000000  0.5460490000000 1.0
C      1  0.5141790000000  0.5774370000000  0.4578230000000 1.0
C      1  0.5192100000000  0.4135270000000  0.5476040000000 1.0
C      1  0.5540200000000  0.4556990000000  0.4179970000000 1.0
C      1  0.5537530000000  0.5439830000000  0.5823520000000 1.0
C      1  0.4439810000000  0.5464500000000  0.4214930000000 1.0
C      1  0.4447780000000  0.4570090000000  0.5791290000000 1.0
C      1  0.5020220000000  0.5667700000000  0.5412620000000 1.0
C      1  0.4835390000000  0.4440450000000  0.4698340000000 1.0
C      1  0.5175050000000  0.4593030000000  0.5323490000000 1.0
C      1  0.5185110000000  0.5413890000000  0.4650800000000 1.0
C      1  0.5432290000000  0.5803270000000  0.5441630000000 1.0
C      1  0.5396060000000  0.4216300000000  0.4578430000000 1.0
C      1  0.4627500000000  0.4242090000000  0.5405920000000 1.0
C      1  0.4630520000000  0.5759470000000  0.4619260000000 1.0
C      1  0.5759210000000  0.5348570000000  0.5661760000000 1.0
C      1  0.5763700000000  0.4641260000000  0.4342780000000 1.0
C      1  0.4219300000000  0.4631580000000  0.5617920000000 1.0
C      1  0.4232160000000  0.5375540000000  0.4395280000000 1.0
C      1  0.6057520000000  0.5095970000000  0.4640530000000 1.0
C      1  0.6028960000000  0.4898930000000  0.5375800000000 1.0
C      1  0.4052700000000  0.4925690000000  0.4626280000000 1.0
C      1  0.3987630000000  0.5054090000000  0.5394780000000 1.0
C      1  0.5696250000000  0.5399550000000  0.5361440000000 1.0
C      1  0.5699360000000  0.4614330000000  0.4650780000000 1.0
C      1  0.4298990000000  0.4589360000000  0.5332500000000 1.0
C      1  0.4341320000000  0.5409210000000  0.4675430000000 1.0
C      1  0.4600810000000  0.5464800000000  0.5361570000000 1.0
C      1  0.4578380000000  0.4447090000000  0.4559280000000 1.0
C      1  0.5425550000000  0.4457350000000  0.5420250000000 1.0
C      1  0.5454300000000  0.5517480000000  0.4555860000000 1.0
C      1  0.4510910000000  0.4722660000000  0.4039140000000 1.0
C      1  0.4500560000000  0.5268970000000  0.5959540000000 1.0
C      1  0.5510830000000  0.5241440000000  0.4082410000000 1.0
C      1  0.5533650000000  0.4774950000000  0.5929040000000 1.0
C      1  0.5753870000000  0.4728500000000  0.5413450000000 1.0
C      1  0.5780200000000  0.5261440000000  0.4579370000000 1.0
C      1  0.4211520000000  0.5292300000000  0.5451240000000 1.0
C      1  0.4216970000000  0.4686600000000  0.4545830000000 1.0
C      1  0.4297930000000  0.4424410000000  0.4665310000000 1.0
C      1  0.4311970000000  0.5541020000000  0.5326140000000 1.0
C      1  0.5723020000000  0.5546670000000  0.4664720000000 1.0
C      1  0.5706810000000  0.4442380000000  0.5322270000000 1.0
C      1  0.5295930000000  0.5455400000000  0.5116620000000 1.0
C      1  0.5322900000000  0.4561270000000  0.4863990000000 1.0
C      1  0.4694430000000  0.4603280000000  0.5064300000000 1.0
C      1  0.4725400000000  0.5451410000000  0.5039290000000 1.0
C      1  0.5419600000000  0.5038430000000  0.4867190000000 1.0
C      1  0.5436170000000  0.5009720000000  0.5155510000000 1.0
C      1  0.4581470000000  0.5018520000000  0.4861200000000 1.0
C      1  0.4548140000000  0.5014170000000  0.5144730000000 1.0
C      1  0.5111240000000  0.4867430000000  0.5397700000000 1.0
C      1  0.5121930000000  0.5132810000000  0.4562790000000 1.0
C      1  0.4727620000000  0.5191700000000  0.5448920000000 1.0
C      1  0.4760750000000  0.4867630000000  0.4424840000000 1.0
C      1  0.4409540000000  0.4787130000000  0.4842370000000 1.0
C      1  0.4325760000000  0.5153040000000  0.5198960000000 1.0
C      1  0.5665050000000  0.5174500000000  0.4830350000000 1.0
C      1  0.5636300000000  0.4812320000000  0.5158130000000 1.0
C      1  0.5767660000000  0.5644640000000  0.5187910000000 1.0
C      1  0.5747150000000  0.4353090000000  0.4801420000000 1.0
C      1  0.4243090000000  0.4336600000000  0.5182080000000 1.0
C      1  0.4259320000000  0.5650360000000  0.4822420000000 1.0
C      1  0.5453250000000  0.5988420000000  0.4973040000000 1.0
C      1  0.5470010000000  0.4004600000000  0.5027220000000 1.0
C      1  0.4533690000000  0.4002160000000  0.4975900000000 1.0
C      1  0.4522570000000  0.6014750000000  0.5030010000000 1.0
C      1  0.5810440000000  0.4913550000000  0.4242010000000 1.0
C      1  0.5770410000000  0.5065630000000  0.5766980000000 1.0
C      1  0.4249980000000  0.4992210000000  0.4211660000000 1.0
C      1  0.4238770000000  0.5005600000000  0.5797000000000 1.0
C      1  0.4657020000000  0.4925780000000  0.5525900000000 1.0
C      1  0.4652070000000  0.5138470000000  0.4446030000000 1.0
C      1  0.5283340000000  0.4988110000000  0.5583790000000 1.0
C      1  0.5332990000000  0.4962700000000  0.4446940000000 1.0
C      1  0.5222440000000  0.4313420000000  0.4782180000000 1.0
C      1  0.5209050000000  0.5715090000000  0.5218010000000 1.0
C      1  0.4777910000000  0.5674010000000  0.4862190000000 1.0
C      1  0.4777480000000  0.4352280000000  0.5181980000000 1.0
C      1  0.4427890000000  0.4121630000000  0.5221130000000 1.0
C      1  0.4420960000000  0.5883340000000  0.4787670000000 1.0
C      1  0.5591260000000  0.5875260000000  0.5209280000000 1.0
C      1  0.5583290000000  0.4118630000000  0.4782690000000 1.0
C      1  0.4882310000000  0.4516780000000  0.5733440000000 1.0
C      1  0.4881350000000  0.5520860000000  0.4242310000000 1.0
C      1  0.5105690000000  0.5512080000000  0.5641290000000 1.0
C      1  0.5133660000000  0.4508250000000  0.4290650000000 1.0
C      1  0.3980560000000  0.5050060000000  0.4879430000000 1.0
C      1  0.3957870000000  0.4925740000000  0.5138410000000 1.0
C      1  0.6065680000000  0.4929590000000  0.4880010000000 1.0
C      1  0.6062520000000  0.5058270000000  0.5133330000000 1.0
C      1  0.4926150000000  0.5249030000000  0.5049080000000 1.0
C      1  0.4904310000000  0.4668040000000  0.4873050000000 1.0
C      1  0.5132990000000  0.4648900000000  0.5047670000000 1.0
C      1  0.5176870000000  0.5307760000000  0.4917850000000 1.0
C      1  0.4178880000000  0.5542490000000  0.5072370000000 1.0
C      1  0.4176190000000  0.4446720000000  0.4927330000000 1.0
C      1  0.5826110000000  0.4456930000000  0.5055890000000 1.0
C      1  0.5838480000000  0.5537960000000  0.4930470000000 1.0
C      1  0.5303860000000  0.5686940000000  0.4360220000000 1.0
C      1  0.5297310000000  0.4316850000000  0.5658590000000 1.0
C      1  0.4702800000000  0.4265420000000  0.4351670000000 1.0
C      1  0.4672000000000  0.5636290000000  0.5612450000000 1.0
C      1  0.4801380000000  0.4798920000000  0.5742700000000 1.0
C      1  0.4793580000000  0.5245680000000  0.4208660000000 1.0
C      1  0.5165420000000  0.5206590000000  0.5732520000000 1.0
C      1  0.5195640000000  0.4788520000000  0.4246140000000 1.0
C      1  0.5439210000000  0.4771960000000  0.4699470000000 1.0
C      1  0.5439880000000  0.5275660000000  0.5274900000000 1.0
C      1  0.4591720000000  0.5264310000000  0.4701930000000 1.0
C      1  0.4581740000000  0.4768810000000  0.5278660000000 1.0
C      1  0.4800040000000  0.5952500000000  0.4994780000000 1.0
C      1  0.4808220000000  0.4085110000000  0.5042580000000 1.0
C      1  0.5203300000000  0.4067940000000  0.4948760000000 1.0
C      1  0.5185530000000  0.5958690000000  0.5037140000000 1.0
C      1  0.4574960000000  0.5266380000000  0.4010220000000 1.0
C      1  0.4602690000000  0.4768930000000  0.5954090000000 1.0
C      1  0.5380870000000  0.4768080000000  0.4030800000000 1.0
C      1  0.5352310000000  0.5233120000000  0.5949350000000 1.0
C      1  0.4846840000000  0.5509790000000  0.5801240000000 1.0
C      1  0.4867040000000  0.4450410000000  0.4198080000000 1.0
C      1  0.5145410000000  0.4485270000000  0.5853300000000 1.0
C      1  0.5157380000000  0.5534970000000  0.4154370000000 1.0
C      1  0.5267820000000  0.4697520000000  0.6008200000000 1.0
C      1  0.5247200000000  0.5297440000000  0.4014170000000 1.0
C      1  0.4798850000000  0.5259140000000  0.5932780000000 1.0
C      1  0.4762860000000  0.4715770000000  0.4170710000000 1.0
C      1  0.5823700000000  0.4738200000000  0.4928390000000 1.0
C      1  0.5836290000000  0.5257070000000  0.5055840000000 1.0
C      1  0.4184590000000  0.5263930000000  0.4963320000000 1.0
C      1  0.4188060000000  0.4722560000000  0.5040430000000 1.0
C      1  0.4055290000000  0.4881840000000  0.5630900000000 1.0
C      1  0.4085790000000  0.5117910000000  0.4399610000000 1.0
C      1  0.5999340000000  0.5040970000000  0.5610160000000 1.0
C      1  0.6018170000000  0.4944420000000  0.4416440000000 1.0
C      1  0.5398710000000  0.5646300000000  0.5674330000000 1.0
C      1  0.5382300000000  0.4354230000000  0.4321610000000 1.0
C      1  0.4630700000000  0.4373110000000  0.5671560000000 1.0
C      1  0.4632890000000  0.5644880000000  0.4345870000000 1.0
C      1  0.5247770000000  0.5961500000000  0.4764070000000 1.0
C      1  0.5244980000000  0.3997980000000  0.5241060000000 1.0
C      1  0.4744280000000  0.3997460000000  0.4769800000000 1.0
C      1  0.4705700000000  0.6003520000000  0.5246880000000 1.0
C      1  0.5599990000000  0.5122680000000  0.4329390000000 1.0
C      1  0.5561860000000  0.4860050000000  0.5656250000000 1.0
C      1  0.4289100000000  0.4726960000000  0.4243950000000 1.0
C      1  0.4307480000000  0.5248750000000  0.5753500000000 1.0
C      1  0.5386160000000  0.5046690000000  0.3939270000000 1.0
C      1  0.5375500000000  0.4964120000000  0.6062630000000 1.0
C      1  0.4555340000000  0.4990930000000  0.3950140000000 1.0
C      1  0.4631120000000  0.5043460000000  0.6044010000000 1.0
C      1  0.4946450000000  0.5101810000000  0.5292420000000 1.0
C      1  0.4943730000000  0.4919090000000  0.4643710000000 1.0
END
