TITL C-2441167-4473-813 0.134780098239709 125000 -16291.3276677944 0 0 134 (C1) n - 1
REM
REM in /home/bkarasulu/work/CARBON/AIRSS/Generating-Clusters/ReaxFF-fromJPCA2015/Units_Real/with-SteepDescent/Higher-Symm
REM
REM
REM
REM
REM
REM ./C.cell (1df0a924f5614ab8850e4351716899ee)
REM
REM compiler GCC version 9.2.1 20190827 (Red Hat 9.2.1-1)
REM options -cpp -mtune=generic -march=x86-64 -g -O0 -fpre-include=/usr/include/finclude/math-vector-fortran.h
REM seed -1180012482 -473265608 562940516 474150219 733940496 -1892105230 -586805782 1614071789 -1399880546 -1953783518 -1960602198 -954875581 839950392 -2059126472 1231507925 221304506 -1485618270 206222710 1440723555 -548155568 33389407 700243733 1013382214 -433800614 -1380312684 -1613722157 162321263 -1626305342 1652095120 1745284909 -425307002 1973233509 -1785230395
REM
CELL 1.54180   50.00000   50.00000   50.00000   90.00000   90.00000   90.00000
LATT -1
SFAC C  
C      1  0.4798030000000  0.5844320000000  0.5296050000000 1.0
C      1  0.4140220000000  0.5051630000000  0.5368440000000 1.0
C      1  0.4631690000000  0.4143950000000  0.5263440000000 1.0
C      1  0.5712590000000  0.4333630000000  0.5218690000000 1.0
C      1  0.5772270000000  0.5448470000000  0.5277830000000 1.0
C      1  0.5816180000000  0.5170750000000  0.5355120000000 1.0
C      1  0.5079170000000  0.5787290000000  0.5323910000000 1.0
C      1  0.4246000000000  0.5308460000000  0.5320410000000 1.0
C      1  0.4437690000000  0.4337390000000  0.5342240000000 1.0
C      1  0.5459050000000  0.4266070000000  0.5331340000000 1.0
C      1  0.4682640000000  0.4693420000000  0.4479540000000 1.0
C      1  0.5208940000000  0.4614150000000  0.4494920000000 1.0
C      1  0.5443390000000  0.5070220000000  0.4491540000000 1.0
C      1  0.5056200000000  0.5407620000000  0.4513310000000 1.0
C      1  0.4599020000000  0.5199850000000  0.4456080000000 1.0
C      1  0.4087280000000  0.4597500000000  0.5136240000000 1.0
C      1  0.5105180000000  0.3988380000000  0.5161240000000 1.0
C      1  0.5990280000000  0.4768770000000  0.5147590000000 1.0
C      1  0.5513420000000  0.5846560000000  0.5142060000000 1.0
C      1  0.4346670000000  0.5736250000000  0.5139310000000 1.0
C      1  0.5494190000000  0.5578030000000  0.5299420000000 1.0
C      1  0.4586100000000  0.5616870000000  0.5297250000000 1.0
C      1  0.4317950000000  0.4766720000000  0.5152160000000 1.0
C      1  0.4971880000000  0.4203710000000  0.5322070000000 1.0
C      1  0.5672400000000  0.4739030000000  0.5233570000000 1.0
C      1  0.4876900000000  0.3989890000000  0.4973450000000 1.0
C      1  0.5975990000000  0.4502880000000  0.5060550000000 1.0
C      1  0.5691560000000  0.5765530000000  0.4926710000000 1.0
C      1  0.4479520000000  0.5896450000000  0.4935630000000 1.0
C      1  0.3981270000000  0.4809500000000  0.4959250000000 1.0
C      1  0.5791920000000  0.4639230000000  0.4593150000000 1.0
C      1  0.5571760000000  0.5656320000000  0.4675900000000 1.0
C      1  0.4540330000000  0.5756230000000  0.4679020000000 1.0
C      1  0.4126700000000  0.4820050000000  0.4704170000000 1.0
C      1  0.4930500000000  0.4078800000000  0.4694590000000 1.0
C      1  0.5210770000000  0.4433680000000  0.5772780000000 1.0
C      1  0.5672210000000  0.4965740000000  0.5676220000000 1.0
C      1  0.5199170000000  0.5592830000000  0.5772260000000 1.0
C      1  0.4488080000000  0.5403680000000  0.5759450000000 1.0
C      1  0.4478750000000  0.4740180000000  0.5705980000000 1.0
C      1  0.5689090000000  0.4695640000000  0.4317650000000 1.0
C      1  0.5454220000000  0.5583900000000  0.4332830000000 1.0
C      1  0.4599980000000  0.5616670000000  0.4326640000000 1.0
C      1  0.4288850000000  0.4790280000000  0.4334220000000 1.0
C      1  0.4985440000000  0.4264740000000  0.4352800000000 1.0
C      1  0.5012470000000  0.5317170000000  0.4785490000000 1.0
C      1  0.4593870000000  0.5112010000000  0.4736580000000 1.0
C      1  0.4730990000000  0.4860780000000  0.4731410000000 1.0
C      1  0.5187060000000  0.4735740000000  0.4800310000000 1.0
C      1  0.5429300000000  0.5192620000000  0.4754830000000 1.0
C      1  0.5434320000000  0.4125690000000  0.4824960000000 1.0
C      1  0.5966630000000  0.5112900000000  0.4831280000000 1.0
C      1  0.5181730000000  0.5943250000000  0.4827450000000 1.0
C      1  0.4151650000000  0.5461380000000  0.4820860000000 1.0
C      1  0.4299690000000  0.4327090000000  0.4827170000000 1.0
C      1  0.5804960000000  0.4900220000000  0.4713930000000 1.0
C      1  0.5318250000000  0.5711550000000  0.4722910000000 1.0
C      1  0.4413000000000  0.5529230000000  0.4709540000000 1.0
C      1  0.4294820000000  0.4594210000000  0.4711790000000 1.0
C      1  0.5183430000000  0.4203570000000  0.4711880000000 1.0
C      1  0.4569990000000  0.4703610000000  0.5132020000000 1.0
C      1  0.5096700000000  0.4418750000000  0.5149740000000 1.0
C      1  0.5522790000000  0.4949150000000  0.5127790000000 1.0
C      1  0.5271390000000  0.5441270000000  0.5150740000000 1.0
C      1  0.4687980000000  0.5364840000000  0.5160020000000 1.0
C      1  0.4762530000000  0.4969000000000  0.4066600000000 1.0
C      1  0.4953190000000  0.4747940000000  0.4080050000000 1.0
C      1  0.5222790000000  0.4863340000000  0.4079150000000 1.0
C      1  0.5195860000000  0.5160910000000  0.4073870000000 1.0
C      1  0.4907860000000  0.5223440000000  0.4074540000000 1.0
C      1  0.5873870000000  0.5291090000000  0.4615090000000 1.0
C      1  0.4984160000000  0.5898960000000  0.4613270000000 1.0
C      1  0.4135160000000  0.5258640000000  0.4608940000000 1.0
C      1  0.4475920000000  0.4246040000000  0.4604610000000 1.0
C      1  0.5565790000000  0.4295820000000  0.4621090000000 1.0
C      1  0.5029150000000  0.5351150000000  0.5794260000000 1.0
C      1  0.4635300000000  0.5151050000000  0.5785100000000 1.0
C      1  0.4721410000000  0.4699270000000  0.5838640000000 1.0
C      1  0.5137630000000  0.4698560000000  0.5867720000000 1.0
C      1  0.5431310000000  0.5073090000000  0.5771570000000 1.0
C      1  0.5634440000000  0.5383820000000  0.4763990000000 1.0
C      1  0.4807270000000  0.5725820000000  0.4765380000000 1.0
C      1  0.4293740000000  0.5059130000000  0.4757990000000 1.0
C      1  0.4732030000000  0.4286820000000  0.4731410000000 1.0
C      1  0.5606520000000  0.4530470000000  0.4772780000000 1.0
C      1  0.4517520000000  0.5208310000000  0.5317700000000 1.0
C      1  0.4630390000000  0.4569290000000  0.5358890000000 1.0
C      1  0.5277520000000  0.4512300000000  0.5339800000000 1.0
C      1  0.5527240000000  0.5131600000000  0.5317310000000 1.0
C      1  0.5052870000000  0.5496510000000  0.5311980000000 1.0
C      1  0.4769030000000  0.5269950000000  0.4912320000000 1.0
C      1  0.4767860000000  0.4764130000000  0.4979110000000 1.0
C      1  0.4990660000000  0.4603500000000  0.4971850000000 1.0
C      1  0.5258980000000  0.4938710000000  0.5045260000000 1.0
C      1  0.5234430000000  0.5241860000000  0.4943780000000 1.0
C      1  0.4375270000000  0.5380400000000  0.4461670000000 1.0
C      1  0.4449110000000  0.4526300000000  0.4475010000000 1.0
C      1  0.5291670000000  0.4344120000000  0.4487090000000 1.0
C      1  0.5747140000000  0.5064260000000  0.4482940000000 1.0
C      1  0.5160270000000  0.5686310000000  0.4487730000000 1.0
C      1  0.4190120000000  0.4992800000000  0.5081350000000 1.0
C      1  0.4710150000000  0.4230480000000  0.5010590000000 1.0
C      1  0.5578380000000  0.4532720000000  0.5057600000000 1.0
C      1  0.5780060000000  0.5505460000000  0.5007220000000 1.0
C      1  0.4762190000000  0.5879430000000  0.5007840000000 1.0
C      1  0.5382840000000  0.4779470000000  0.4326520000000 1.0
C      1  0.5319560000000  0.5307490000000  0.4314780000000 1.0
C      1  0.4810260000000  0.5391250000000  0.4327570000000 1.0
C      1  0.4557900000000  0.4927150000000  0.4304730000000 1.0
C      1  0.4932520000000  0.4565640000000  0.4340380000000 1.0
C      1  0.4731810000000  0.5073930000000  0.5497910000000 1.0
C      1  0.4793230000000  0.4775960000000  0.5450470000000 1.0
C      1  0.5071180000000  0.4710960000000  0.5443950000000 1.0
C      1  0.5278170000000  0.5107690000000  0.5486880000000 1.0
C      1  0.5003550000000  0.5272500000000  0.5505470000000 1.0
C      1  0.5980820000000  0.5062740000000  0.5116080000000 1.0
C      1  0.5242340000000  0.5933290000000  0.5115670000000 1.0
C      1  0.4172900000000  0.5512100000000  0.5109300000000 1.0
C      1  0.4243450000000  0.4351510000000  0.5113890000000 1.0
C      1  0.5382580000000  0.4071100000000  0.5113260000000 1.0
C      1  0.5446610000000  0.5566610000000  0.5622130000000 1.0
C      1  0.4638490000000  0.5604880000000  0.5612470000000 1.0
C      1  0.4267980000000  0.4906600000000  0.5605000000000 1.0
C      1  0.4984800000000  0.4290740000000  0.5617830000000 1.0
C      1  0.5651970000000  0.4705610000000  0.5563610000000 1.0
C      1  0.5474580000000  0.4527450000000  0.5698930000000 1.0
C      1  0.5531530000000  0.5331030000000  0.5744390000000 1.0
C      1  0.4892080000000  0.5608080000000  0.5757690000000 1.0
C      1  0.4347100000000  0.5128550000000  0.5784560000000 1.0
C      1  0.4791740000000  0.4459910000000  0.5721690000000 1.0
C      1  0.5006940000000  0.4926410000000  0.4664650000000 1.0
C      1  0.5139900000000  0.4937750000000  0.5297560000000 1.0
C      1  0.5008370000000  0.5003540000000  0.4397660000000 1.0
C      1  0.4976300000000  0.4936790000000  0.5870850000000 1.0
END
