TITL C-2441168-9922-365 0.0399741261209549 125000 -19153.6741435098 0 0 136 (C1) n - 1
REM
REM in /home/bkarasulu/work/CARBON/AIRSS/Generating-Clusters/ReaxFF-fromJPCA2015/Units_Real/with-SteepDescent/Higher-Symm
REM
REM
REM
REM
REM
REM ./C.cell (1df0a924f5614ab8850e4351716899ee)
REM
REM compiler GCC version 9.2.1 20190827 (Red Hat 9.2.1-1)
REM options -cpp -mtune=generic -march=x86-64 -g -O0 -fpre-include=/usr/include/finclude/math-vector-fortran.h
REM seed 435411746 357738037 2096463910 800956523 1170674023 1907035821 1776877513 -1926957067 -2087702567 -2041241377 -859799200 -1564158278 435647062 -1639289276 1993716596 -725860852 1107135849 162941284 1977264135 -356550810 -206057694 1227142890 -1667615177 -997516105 -1111264749 -1930291200 -175814224 -1796131187 -355188142 1560958985 760285732 -2087289711 -747362661
REM
CELL 1.54180   50.00000   50.00000   50.00000   90.00000   90.00000   90.00000
LATT -1
SFAC C  
C      1  0.5177370000000  0.5590700000000  0.5717720000000 1.0
C      1  0.4638280000000  0.5520820000000  0.5682200000000 1.0
C      1  0.4377890000000  0.5012560000000  0.5657320000000 1.0
C      1  0.4584780000000  0.4479280000000  0.5638630000000 1.0
C      1  0.5109000000000  0.4362110000000  0.5662450000000 1.0
C      1  0.5539790000000  0.4717760000000  0.5660180000000 1.0
C      1  0.5512170000000  0.5278490000000  0.5669880000000 1.0
C      1  0.4953070000000  0.4116430000000  0.4446540000000 1.0
C      1  0.5668980000000  0.4458540000000  0.4377600000000 1.0
C      1  0.5809140000000  0.5205110000000  0.4357270000000 1.0
C      1  0.5368050000000  0.5792050000000  0.4371780000000 1.0
C      1  0.4611400000000  0.5744570000000  0.4380520000000 1.0
C      1  0.4147300000000  0.5164060000000  0.4383360000000 1.0
C      1  0.4347080000000  0.4483410000000  0.4384210000000 1.0
C      1  0.5813800000000  0.4900720000000  0.4674500000000 1.0
C      1  0.5533550000000  0.5571700000000  0.4700640000000 1.0
C      1  0.4885850000000  0.5798350000000  0.4691730000000 1.0
C      1  0.4292160000000  0.5434400000000  0.4678160000000 1.0
C      1  0.4161880000000  0.4742900000000  0.4657430000000 1.0
C      1  0.4693200000000  0.4347010000000  0.4663480000000 1.0
C      1  0.5432930000000  0.4298410000000  0.4699870000000 1.0
C      1  0.5534410000000  0.4198810000000  0.5148740000000 1.0
C      1  0.5973850000000  0.4882620000000  0.5131140000000 1.0
C      1  0.5754040000000  0.5602050000000  0.5172910000000 1.0
C      1  0.4842870000000  0.5947720000000  0.5142530000000 1.0
C      1  0.4177640000000  0.5499260000000  0.5144320000000 1.0
C      1  0.4087040000000  0.4693540000000  0.5141310000000 1.0
C      1  0.4702150000000  0.4092100000000  0.5053890000000 1.0
C      1  0.4651030000000  0.4242130000000  0.5496030000000 1.0
C      1  0.5360780000000  0.4274580000000  0.5563110000000 1.0
C      1  0.5766000000000  0.4848260000000  0.5529660000000 1.0
C      1  0.5433440000000  0.5540900000000  0.5603260000000 1.0
C      1  0.5011310000000  0.5780140000000  0.5562100000000 1.0
C      1  0.4377350000000  0.5514070000000  0.5554030000000 1.0
C      1  0.4220870000000  0.4811020000000  0.5523540000000 1.0
C      1  0.5821360000000  0.4457360000000  0.4886450000000 1.0
C      1  0.5952100000000  0.5313290000000  0.4842030000000 1.0
C      1  0.5294780000000  0.5940740000000  0.4893360000000 1.0
C      1  0.4463870000000  0.5834310000000  0.4879390000000 1.0
C      1  0.3994630000000  0.5125800000000  0.4886540000000 1.0
C      1  0.4297830000000  0.4321810000000  0.4893930000000 1.0
C      1  0.5095250000000  0.4026790000000  0.4946790000000 1.0
C      1  0.4071400000000  0.4925030000000  0.5300710000000 1.0
C      1  0.4518320000000  0.4195670000000  0.5242530000000 1.0
C      1  0.5336200000000  0.4091250000000  0.5335710000000 1.0
C      1  0.5853920000000  0.4690080000000  0.5304540000000 1.0
C      1  0.5872090000000  0.5367800000000  0.5291710000000 1.0
C      1  0.5076750000000  0.5937480000000  0.5324830000000 1.0
C      1  0.4356090000000  0.5663600000000  0.5306150000000 1.0
C      1  0.5574860000000  0.5067760000000  0.4715930000000 1.0
C      1  0.5246680000000  0.5485310000000  0.4707260000000 1.0
C      1  0.4836600000000  0.5499150000000  0.4710210000000 1.0
C      1  0.4420000000000  0.5174290000000  0.4727660000000 1.0
C      1  0.4694340000000  0.4800790000000  0.4661800000000 1.0
C      1  0.4950060000000  0.4442040000000  0.4729120000000 1.0
C      1  0.5405760000000  0.4589950000000  0.4720500000000 1.0
C      1  0.5418490000000  0.5278420000000  0.4232240000000 1.0
C      1  0.5062420000000  0.5528580000000  0.4223010000000 1.0
C      1  0.4627810000000  0.5354450000000  0.4235950000000 1.0
C      1  0.4460900000000  0.4933590000000  0.4230330000000 1.0
C      1  0.4706390000000  0.4533630000000  0.4189080000000 1.0
C      1  0.5165340000000  0.4449390000000  0.4247860000000 1.0
C      1  0.5488360000000  0.4809720000000  0.4237010000000 1.0
C      1  0.5507530000000  0.4507500000000  0.5443320000000 1.0
C      1  0.5698300000000  0.5155480000000  0.5448330000000 1.0
C      1  0.5470550000000  0.5655930000000  0.5298530000000 1.0
C      1  0.4767220000000  0.5664860000000  0.5448470000000 1.0
C      1  0.4310610000000  0.5233400000000  0.5472290000000 1.0
C      1  0.4388480000000  0.4577640000000  0.5397390000000 1.0
C      1  0.4940400000000  0.4262210000000  0.5399860000000 1.0
C      1  0.5053570000000  0.4605370000000  0.5802920000000 1.0
C      1  0.5302510000000  0.4829750000000  0.5791630000000 1.0
C      1  0.5303530000000  0.5123110000000  0.5810520000000 1.0
C      1  0.5069780000000  0.5341210000000  0.5843880000000 1.0
C      1  0.4780920000000  0.5320590000000  0.5839560000000 1.0
C      1  0.4654590000000  0.4992130000000  0.5797830000000 1.0
C      1  0.4760210000000  0.4640520000000  0.5799790000000 1.0
C      1  0.4217440000000  0.4470410000000  0.4643160000000 1.0
C      1  0.4910250000000  0.4016810000000  0.4716670000000 1.0
C      1  0.5712980000000  0.4331630000000  0.4634810000000 1.0
C      1  0.5958610000000  0.5144250000000  0.4597360000000 1.0
C      1  0.5445640000000  0.5848020000000  0.4647730000000 1.0
C      1  0.4621770000000  0.5881430000000  0.4633740000000 1.0
C      1  0.4036870000000  0.5277660000000  0.4626450000000 1.0
C      1  0.5989380000000  0.5187980000000  0.5103010000000 1.0
C      1  0.5323640000000  0.5901670000000  0.5178150000000 1.0
C      1  0.4561060000000  0.5849410000000  0.5151930000000 1.0
C      1  0.4056930000000  0.5217100000000  0.5149480000000 1.0
C      1  0.4248450000000  0.4391850000000  0.5170390000000 1.0
C      1  0.5062550000000  0.4038590000000  0.5237330000000 1.0
C      1  0.5756080000000  0.4400270000000  0.5159320000000 1.0
C      1  0.5445930000000  0.4522890000000  0.4188660000000 1.0
C      1  0.5617320000000  0.5066820000000  0.4171980000000 1.0
C      1  0.5349900000000  0.5559500000000  0.4176650000000 1.0
C      1  0.4778030000000  0.5601490000000  0.4175810000000 1.0
C      1  0.4373130000000  0.5206580000000  0.4190070000000 1.0
C      1  0.4438200000000  0.4652060000000  0.4159040000000 1.0
C      1  0.4904820000000  0.4324290000000  0.4207750000000 1.0
C      1  0.4541990000000  0.4162570000000  0.4827160000000 1.0
C      1  0.5374160000000  0.4136610000000  0.4925410000000 1.0
C      1  0.5916980000000  0.4732330000000  0.4893930000000 1.0
C      1  0.5778220000000  0.5541480000000  0.4896340000000 1.0
C      1  0.5003760000000  0.5940000000000  0.4906170000000 1.0
C      1  0.4263240000000  0.5625670000000  0.4901160000000 1.0
C      1  0.4026680000000  0.4826540000000  0.4892300000000 1.0
C      1  0.4982050000000  0.4603060000000  0.4958580000000 1.0
C      1  0.5297200000000  0.4715810000000  0.4956280000000 1.0
C      1  0.5430760000000  0.5039590000000  0.4959990000000 1.0
C      1  0.5240500000000  0.5310690000000  0.4941850000000 1.0
C      1  0.4798780000000  0.5366520000000  0.4964880000000 1.0
C      1  0.4555260000000  0.5124470000000  0.4971710000000 1.0
C      1  0.4658240000000  0.4803200000000  0.4950060000000 1.0
C      1  0.5560570000000  0.5281010000000  0.4512790000000 1.0
C      1  0.5131890000000  0.5655280000000  0.4494600000000 1.0
C      1  0.4605170000000  0.5473580000000  0.4518950000000 1.0
C      1  0.4330730000000  0.4964700000000  0.4530130000000 1.0
C      1  0.4607060000000  0.4540830000000  0.4498330000000 1.0
C      1  0.5141030000000  0.4339960000000  0.4531560000000 1.0
C      1  0.5581700000000  0.4711710000000  0.4516750000000 1.0
C      1  0.4488640000000  0.5220690000000  0.5238870000000 1.0
C      1  0.4517940000000  0.4748590000000  0.5198310000000 1.0
C      1  0.4901760000000  0.4484100000000  0.5207150000000 1.0
C      1  0.5335660000000  0.4591930000000  0.5223220000000 1.0
C      1  0.5544690000000  0.5023690000000  0.5228390000000 1.0
C      1  0.5306090000000  0.5431600000000  0.5197510000000 1.0
C      1  0.4862370000000  0.5517460000000  0.5212760000000 1.0
C      1  0.5168310000000  0.4759100000000  0.5380900000000 1.0
C      1  0.5303120000000  0.4990140000000  0.5374480000000 1.0
C      1  0.5206990000000  0.5240060000000  0.5377410000000 1.0
C      1  0.4946270000000  0.5298000000000  0.5372940000000 1.0
C      1  0.4728930000000  0.5138770000000  0.5361590000000 1.0
C      1  0.4708940000000  0.4875770000000  0.5364710000000 1.0
C      1  0.4906660000000  0.4705630000000  0.5378720000000 1.0
C      1  0.4940050000000  0.4951120000000  0.4626910000000 1.0
C      1  0.4928620000000  0.4981460000000  0.5690760000000 1.0
C      1  0.4989470000000  0.5096420000000  0.4897010000000 1.0
END
