TITL C-2441157-2117-213 0.0510678565292769 125000 -28122.2466210323 0 0 193 (C1) n - 1
REM
REM in /home/bkarasulu/work/CARBON/AIRSS/Generating-Clusters/ReaxFF-fromJPCA2015/Units_Real/with-SteepDescent/Higher-Symm
REM
REM
REM
REM
REM
REM ./C.cell (1df0a924f5614ab8850e4351716899ee)
REM
REM compiler GCC version 9.2.1 20190827 (Red Hat 9.2.1-1)
REM options -cpp -mtune=generic -march=x86-64 -g -O0 -fpre-include=/usr/include/finclude/math-vector-fortran.h
REM seed -1496142958 -536065538 1181493281 642283511 -1981338577 724159606 619913662 321184529 -901767790 547501833 -230756457 1432923510 2083410669 -459699731 245322051 1445274098 1234244121 1218054481 -1103136468 -1528910571 89941550 1634022822 704178461 -83923193 1064902761 1096666924 -688631310 -551798471 -533246072 1862813283 1329311541 726124147 655948108
REM
CELL 1.54180   50.00000   50.00000   50.00000   90.00000   90.00000   90.00000
LATT -1
SFAC C  
C      1  0.4293950000000  0.4224610000000  0.4904200000000 1.0
C      1  0.5055010000000  0.3929580000000  0.5064460000000 1.0
C      1  0.5853300000000  0.4209530000000  0.4888030000000 1.0
C      1  0.6155490000000  0.5051790000000  0.5152560000000 1.0
C      1  0.5772270000000  0.5862240000000  0.4871760000000 1.0
C      1  0.4935000000000  0.6185820000000  0.5092760000000 1.0
C      1  0.4232060000000  0.5689270000000  0.4898720000000 1.0
C      1  0.3809810000000  0.4925320000000  0.5100310000000 1.0
C      1  0.4342210000000  0.5412990000000  0.5814240000000 1.0
C      1  0.4205460000000  0.4876480000000  0.4172700000000 1.0
C      1  0.4573820000000  0.4351420000000  0.5817640000000 1.0
C      1  0.5122560000000  0.4208020000000  0.4164930000000 1.0
C      1  0.5664840000000  0.4551840000000  0.5837500000000 1.0
C      1  0.5812040000000  0.5133690000000  0.4174820000000 1.0
C      1  0.5447400000000  0.5663080000000  0.5793420000000 1.0
C      1  0.4873960000000  0.5807610000000  0.4168960000000 1.0
C      1  0.5559200000000  0.4446180000000  0.5318620000000 1.0
C      1  0.5789660000000  0.5036930000000  0.4762510000000 1.0
C      1  0.5562260000000  0.5583840000000  0.5239620000000 1.0
C      1  0.4954500000000  0.5820280000000  0.4715870000000 1.0
C      1  0.4467250000000  0.5646120000000  0.5348030000000 1.0
C      1  0.4208570000000  0.4973890000000  0.4699040000000 1.0
C      1  0.4369430000000  0.4493440000000  0.5339440000000 1.0
C      1  0.4940750000000  0.4184530000000  0.4666070000000 1.0
C      1  0.4710880000000  0.5465400000000  0.4381980000000 1.0
C      1  0.4551350000000  0.5151740000000  0.5585530000000 1.0
C      1  0.4571040000000  0.4763570000000  0.4393790000000 1.0
C      1  0.4838270000000  0.4570940000000  0.5595090000000 1.0
C      1  0.5257190000000  0.4567570000000  0.4374870000000 1.0
C      1  0.5493820000000  0.4891420000000  0.5570630000000 1.0
C      1  0.5463440000000  0.5283140000000  0.4400910000000 1.0
C      1  0.5152390000000  0.5474550000000  0.5580750000000 1.0
C      1  0.4717620000000  0.5569990000000  0.4095840000000 1.0
C      1  0.4393140000000  0.5119630000000  0.5872970000000 1.0
C      1  0.4444210000000  0.4722560000000  0.4106380000000 1.0
C      1  0.4875720000000  0.4390620000000  0.5865480000000 1.0
C      1  0.5273470000000  0.4441500000000  0.4091970000000 1.0
C      1  0.5604950000000  0.4835920000000  0.5875710000000 1.0
C      1  0.5563100000000  0.5280720000000  0.4107380000000 1.0
C      1  0.5130080000000  0.5606910000000  0.5851410000000 1.0
C      1  0.5368700000000  0.5448140000000  0.5404290000000 1.0
C      1  0.4977790000000  0.5605510000000  0.4533400000000 1.0
C      1  0.4618020000000  0.5419200000000  0.5493420000000 1.0
C      1  0.4432660000000  0.5010330000000  0.4527970000000 1.0
C      1  0.4598270000000  0.4652180000000  0.5466710000000 1.0
C      1  0.4980900000000  0.4442580000000  0.4495740000000 1.0
C      1  0.5371810000000  0.4587380000000  0.5491330000000 1.0
C      1  0.5596020000000  0.4999920000000  0.4542650000000 1.0
C      1  0.5380320000000  0.4934250000000  0.6028980000000 1.0
C      1  0.5311370000000  0.5182260000000  0.3989990000000 1.0
C      1  0.5092670000000  0.5349820000000  0.6013750000000 1.0
C      1  0.4815670000000  0.5318330000000  0.3982180000000 1.0
C      1  0.4648160000000  0.5069440000000  0.6041690000000 1.0
C      1  0.4685460000000  0.4823140000000  0.3971890000000 1.0
C      1  0.4940030000000  0.4634420000000  0.6042810000000 1.0
C      1  0.5191950000000  0.4696520000000  0.3965950000000 1.0
C      1  0.5411370000000  0.4843100000000  0.4734380000000 1.0
C      1  0.5319690000000  0.5274740000000  0.5221960000000 1.0
C      1  0.5060280000000  0.5439700000000  0.4743320000000 1.0
C      1  0.4796520000000  0.5346500000000  0.5228770000000 1.0
C      1  0.4609800000000  0.5087060000000  0.4760880000000 1.0
C      1  0.4704900000000  0.4831220000000  0.5267630000000 1.0
C      1  0.4922740000000  0.4646950000000  0.4698730000000 1.0
C      1  0.5166940000000  0.4649370000000  0.5293080000000 1.0
C      1  0.4795370000000  0.3921020000000  0.5222230000000 1.0
C      1  0.5595340000000  0.4109540000000  0.4778560000000 1.0
C      1  0.6095330000000  0.4776960000000  0.5237970000000 1.0
C      1  0.5926620000000  0.5629070000000  0.4793070000000 1.0
C      1  0.5183900000000  0.6042590000000  0.5187000000000 1.0
C      1  0.4393900000000  0.5914820000000  0.4762110000000 1.0
C      1  0.3918900000000  0.5175390000000  0.5214960000000 1.0
C      1  0.4082550000000  0.4396470000000  0.4755980000000 1.0
C      1  0.4440520000000  0.5552400000000  0.4460090000000 1.0
C      1  0.4121230000000  0.4874040000000  0.5562910000000 1.0
C      1  0.4457480000000  0.4483780000000  0.4454440000000 1.0
C      1  0.5135340000000  0.4108540000000  0.5544750000000 1.0
C      1  0.5539660000000  0.4471860000000  0.4452190000000 1.0
C      1  0.5716490000000  0.5042610000000  0.5418660000000 1.0
C      1  0.5546440000000  0.5560620000000  0.4463870000000 1.0
C      1  0.4903040000000  0.5873240000000  0.5549870000000 1.0
C      1  0.4832550000000  0.6199490000000  0.4821120000000 1.0
C      1  0.4044000000000  0.5664620000000  0.5146600000000 1.0
C      1  0.3806560000000  0.4833690000000  0.4824050000000 1.0
C      1  0.4304440000000  0.4058500000000  0.5169510000000 1.0
C      1  0.5181350000000  0.3813440000000  0.4805670000000 1.0
C      1  0.5895320000000  0.4250650000000  0.5173990000000 1.0
C      1  0.6176760000000  0.5136350000000  0.4880380000000 1.0
C      1  0.5705480000000  0.5961370000000  0.5132480000000 1.0
C      1  0.5215230000000  0.4693000000000  0.5995030000000 1.0
C      1  0.5384840000000  0.4907620000000  0.4044570000000 1.0
C      1  0.5348880000000  0.5223530000000  0.5962890000000 1.0
C      1  0.5093350000000  0.5380580000000  0.4055970000000 1.0
C      1  0.4808440000000  0.5300430000000  0.5998450000000 1.0
C      1  0.4620450000000  0.5103330000000  0.4040980000000 1.0
C      1  0.4689730000000  0.4781820000000  0.6027910000000 1.0
C      1  0.4909240000000  0.4638480000000  0.4022920000000 1.0
C      1  0.4812900000000  0.5056860000000  0.5619590000000 1.0
C      1  0.4845970000000  0.4906760000000  0.4381850000000 1.0
C      1  0.4967950000000  0.4824730000000  0.5636000000000 1.0
C      1  0.5118640000000  0.4853460000000  0.4378310000000 1.0
C      1  0.5214170000000  0.4963020000000  0.5600570000000 1.0
C      1  0.5183850000000  0.5130440000000  0.4487310000000 1.0
C      1  0.5055900000000  0.5201130000000  0.5552330000000 1.0
C      1  0.4886110000000  0.5183060000000  0.4475160000000 1.0
C      1  0.4103500000000  0.4642970000000  0.5387070000000 1.0
C      1  0.4664980000000  0.4074010000000  0.4576060000000 1.0
C      1  0.5408310000000  0.4055210000000  0.5406710000000 1.0
C      1  0.5980800000000  0.4667550000000  0.4607260000000 1.0
C      1  0.5895880000000  0.5483610000000  0.5433630000000 1.0
C      1  0.5302470000000  0.5982730000000  0.4557230000000 1.0
C      1  0.4660960000000  0.5892510000000  0.5388380000000 1.0
C      1  0.4018160000000  0.5301480000000  0.4551520000000 1.0
C      1  0.4645610000000  0.5099730000000  0.5189350000000 1.0
C      1  0.4700940000000  0.4800570000000  0.4800170000000 1.0
C      1  0.4898800000000  0.4620980000000  0.5194460000000 1.0
C      1  0.5201760000000  0.4639500000000  0.4773530000000 1.0
C      1  0.5270590000000  0.4843210000000  0.5138680000000 1.0
C      1  0.5262460000000  0.5083790000000  0.4779060000000 1.0
C      1  0.5060840000000  0.5205750000000  0.5210280000000 1.0
C      1  0.4859920000000  0.5241580000000  0.4767220000000 1.0
C      1  0.5456320000000  0.5839110000000  0.5562780000000 1.0
C      1  0.4754570000000  0.5951930000000  0.4387420000000 1.0
C      1  0.4155980000000  0.5408190000000  0.5587730000000 1.0
C      1  0.4051790000000  0.4763320000000  0.4387590000000 1.0
C      1  0.4585870000000  0.4170020000000  0.5585820000000 1.0
C      1  0.5266500000000  0.4064000000000  0.4375960000000 1.0
C      1  0.5855650000000  0.4617350000000  0.5647560000000 1.0
C      1  0.5893310000000  0.5339070000000  0.4351000000000 1.0
C      1  0.4171970000000  0.5638260000000  0.5405130000000 1.0
C      1  0.3935060000000  0.4975670000000  0.4580810000000 1.0
C      1  0.4350660000000  0.4199610000000  0.5417630000000 1.0
C      1  0.5086430000000  0.3934480000000  0.4562410000000 1.0
C      1  0.5675520000000  0.4188980000000  0.5372010000000 1.0
C      1  0.6051210000000  0.4947770000000  0.4681910000000 1.0
C      1  0.5715120000000  0.5786480000000  0.5390640000000 1.0
C      1  0.4974340000000  0.6076400000000  0.4575290000000 1.0
C      1  0.4483030000000  0.4009160000000  0.4791040000000 1.0
C      1  0.5342770000000  0.3889300000000  0.5185920000000 1.0
C      1  0.6000400000000  0.4467280000000  0.4824130000000 1.0
C      1  0.6050860000000  0.5346160000000  0.5226100000000 1.0
C      1  0.5494690000000  0.6007250000000  0.4766690000000 1.0
C      1  0.4666340000000  0.6102630000000  0.5193630000000 1.0
C      1  0.4000620000000  0.5470700000000  0.4774930000000 1.0
C      1  0.3895200000000  0.4652350000000  0.5190580000000 1.0
C      1  0.4617030000000  0.4263270000000  0.4362420000000 1.0
C      1  0.5147090000000  0.4265360000000  0.5774260000000 1.0
C      1  0.5769630000000  0.4638950000000  0.4402930000000 1.0
C      1  0.5741220000000  0.5293640000000  0.5587370000000 1.0
C      1  0.5357230000000  0.5769480000000  0.4376140000000 1.0
C      1  0.4850380000000  0.5720470000000  0.5782480000000 1.0
C      1  0.4231910000000  0.5368260000000  0.4371010000000 1.0
C      1  0.4289590000000  0.4833240000000  0.5792680000000 1.0
C      1  0.5015840000000  0.4237260000000  0.4962060000000 1.0
C      1  0.5525910000000  0.4483310000000  0.5034440000000 1.0
C      1  0.5701970000000  0.5048250000000  0.5048150000000 1.0
C      1  0.5474250000000  0.5554620000000  0.4964200000000 1.0
C      1  0.4952900000000  0.5756950000000  0.4999000000000 1.0
C      1  0.4453010000000  0.5525930000000  0.5035490000000 1.0
C      1  0.4278270000000  0.4925480000000  0.4971610000000 1.0
C      1  0.4506630000000  0.4438420000000  0.5032630000000 1.0
C      1  0.5654310000000  0.4880050000000  0.4255970000000 1.0
C      1  0.5544900000000  0.5386530000000  0.5803010000000 1.0
C      1  0.5129560000000  0.5646790000000  0.4209400000000 1.0
C      1  0.4644510000000  0.5509950000000  0.5824780000000 1.0
C      1  0.4360960000000  0.5137360000000  0.4212330000000 1.0
C      1  0.4475670000000  0.4629510000000  0.5879440000000 1.0
C      1  0.4868350000000  0.4372370000000  0.4210200000000 1.0
C      1  0.5348610000000  0.4481540000000  0.5807220000000 1.0
C      1  0.5198080000000  0.5930520000000  0.5454060000000 1.0
C      1  0.4503070000000  0.5844070000000  0.4503780000000 1.0
C      1  0.4055340000000  0.5154160000000  0.5465580000000 1.0
C      1  0.4163310000000  0.4516230000000  0.4505520000000 1.0
C      1  0.4842210000000  0.4057850000000  0.5466500000000 1.0
C      1  0.5503860000000  0.4189330000000  0.4513400000000 1.0
C      1  0.5926560000000  0.4821450000000  0.5474180000000 1.0
C      1  0.5843970000000  0.5562820000000  0.4511280000000 1.0
C      1  0.4565610000000  0.6102820000000  0.4903230000000 1.0
C      1  0.3911310000000  0.5425130000000  0.5048640000000 1.0
C      1  0.3892450000000  0.4560790000000  0.4899290000000 1.0
C      1  0.4541600000000  0.3924650000000  0.5068750000000 1.0
C      1  0.5443350000000  0.3894710000000  0.4908910000000 1.0
C      1  0.6045920000000  0.4511910000000  0.5108860000000 1.0
C      1  0.6067230000000  0.5415780000000  0.4947260000000 1.0
C      1  0.5449470000000  0.6080420000000  0.5042760000000 1.0
C      1  0.4742220000000  0.5544710000000  0.5004540000000 1.0
C      1  0.4431330000000  0.5176470000000  0.5020690000000 1.0
C      1  0.4474380000000  0.4709460000000  0.4926090000000 1.0
C      1  0.4797740000000  0.4399560000000  0.5070160000000 1.0
C      1  0.5274260000000  0.4409970000000  0.4916580000000 1.0
C      1  0.5536130000000  0.4788940000000  0.5016420000000 1.0
C      1  0.5477620000000  0.5249320000000  0.4973350000000 1.0
C      1  0.5187710000000  0.5581080000000  0.4954890000000 1.0
C      1  0.5081760000000  0.4999700000000  0.4997190000000 1.0
END
