TITL C-2441158-471-1094 0.0899456584628909 125000 -23971.3195166109 0 0 175 (C1) n - 1
REM
REM in /home/bkarasulu/work/CARBON/AIRSS/Generating-Clusters/ReaxFF-fromJPCA2015/Units_Real/with-SteepDescent/Higher-Symm
REM
REM
REM
REM
REM
REM ./C.cell (1df0a924f5614ab8850e4351716899ee)
REM
REM compiler GCC version 9.2.1 20190827 (Red Hat 9.2.1-1)
REM options -cpp -mtune=generic -march=x86-64 -g -O0 -fpre-include=/usr/include/finclude/math-vector-fortran.h
REM seed 2121121916 -839362859 -602377764 1730402316 1951372900 32667899 1877150743 919149785 2146010790 -84864893 2143736339 1506319808 -795394936 -122951578 1874680851 -135088807 146243024 -509397873 -149551864 -96994473 -256408165 560909384 -1953257338 -697220118 -303073140 -90641601 -829583330 1174524088 -322349238 -1070043965 1746773850 -639674418 808850900
REM
CELL 1.54180   50.00000   50.00000   50.00000   90.00000   90.00000   90.00000
LATT -1
SFAC C  
C      1  0.4625990000000  0.6021790000000  0.5254680000000 1.0
C      1  0.5160390000000  0.4020820000000  0.4662170000000 1.0
C      1  0.5202820000000  0.5008870000000  0.4356340000000 1.0
C      1  0.4801640000000  0.4940100000000  0.5514950000000 1.0
C      1  0.5649250000000  0.4270780000000  0.4562180000000 1.0
C      1  0.4289960000000  0.5718270000000  0.5415180000000 1.0
C      1  0.4916390000000  0.5098780000000  0.3946180000000 1.0
C      1  0.5071470000000  0.4936960000000  0.6054800000000 1.0
C      1  0.5025810000000  0.5799870000000  0.5747840000000 1.0
C      1  0.4934920000000  0.4195430000000  0.4211840000000 1.0
C      1  0.5079230000000  0.4195000000000  0.4868900000000 1.0
C      1  0.4882200000000  0.5846180000000  0.5296500000000 1.0
C      1  0.4777950000000  0.4167600000000  0.5252170000000 1.0
C      1  0.5147190000000  0.5729480000000  0.4747800000000 1.0
C      1  0.5932660000000  0.4601280000000  0.5241030000000 1.0
C      1  0.4192990000000  0.5388470000000  0.4779350000000 1.0
C      1  0.5378110000000  0.4730840000000  0.4956780000000 1.0
C      1  0.4651150000000  0.5272540000000  0.5006900000000 1.0
C      1  0.4905180000000  0.4854780000000  0.4816820000000 1.0
C      1  0.5114170000000  0.5161750000000  0.5133040000000 1.0
C      1  0.5982860000000  0.5362760000000  0.5451810000000 1.0
C      1  0.4026650000000  0.4643300000000  0.4544910000000 1.0
C      1  0.5029770000000  0.5582940000000  0.4508420000000 1.0
C      1  0.4979250000000  0.4308870000000  0.5673380000000 1.0
C      1  0.4447550000000  0.4130310000000  0.4965460000000 1.0
C      1  0.5553380000000  0.5833630000000  0.5027790000000 1.0
C      1  0.4476020000000  0.5080150000000  0.5079830000000 1.0
C      1  0.5620580000000  0.4871650000000  0.4952110000000 1.0
C      1  0.5847360000000  0.5231660000000  0.5680050000000 1.0
C      1  0.4176150000000  0.4783980000000  0.4327070000000 1.0
C      1  0.5829090000000  0.5410850000000  0.4473880000000 1.0
C      1  0.4127410000000  0.4587070000000  0.5532840000000 1.0
C      1  0.5373770000000  0.5726730000000  0.5537810000000 1.0
C      1  0.4617160000000  0.4258430000000  0.4469840000000 1.0
C      1  0.4982740000000  0.5302200000000  0.4938960000000 1.0
C      1  0.4990820000000  0.4600490000000  0.5183380000000 1.0
C      1  0.4098480000000  0.5097710000000  0.4681390000000 1.0
C      1  0.5950870000000  0.4913820000000  0.5331800000000 1.0
C      1  0.5139270000000  0.6026090000000  0.5301650000000 1.0
C      1  0.4876100000000  0.3930770000000  0.4642550000000 1.0
C      1  0.4360800000000  0.5554360000000  0.4387560000000 1.0
C      1  0.5677860000000  0.4482890000000  0.5655210000000 1.0
C      1  0.4669280000000  0.5830140000000  0.4607890000000 1.0
C      1  0.5416510000000  0.4146560000000  0.5504570000000 1.0
C      1  0.3988360000000  0.4811100000000  0.4784200000000 1.0
C      1  0.6018550000000  0.5199150000000  0.5214400000000 1.0
C      1  0.5383890000000  0.4585450000000  0.4136140000000 1.0
C      1  0.4648960000000  0.5397600000000  0.5822190000000 1.0
C      1  0.5464350000000  0.4913550000000  0.5828800000000 1.0
C      1  0.4540510000000  0.5097640000000  0.4186230000000 1.0
C      1  0.4535410000000  0.4559320000000  0.4737770000000 1.0
C      1  0.5464310000000  0.5396090000000  0.5300210000000 1.0
C      1  0.5106000000000  0.4554180000000  0.4224220000000 1.0
C      1  0.4939790000000  0.5347160000000  0.5792350000000 1.0
C      1  0.4601830000000  0.5702890000000  0.4331080000000 1.0
C      1  0.5435850000000  0.4331430000000  0.5730020000000 1.0
C      1  0.5291560000000  0.4734740000000  0.3920990000000 1.0
C      1  0.4665380000000  0.5306950000000  0.6092130000000 1.0
C      1  0.5000640000000  0.5329960000000  0.5362680000000 1.0
C      1  0.5013670000000  0.4645030000000  0.4624430000000 1.0
C      1  0.4826220000000  0.5621140000000  0.4154620000000 1.0
C      1  0.5184680000000  0.4445940000000  0.5833710000000 1.0
C      1  0.4258530000000  0.5640540000000  0.4655530000000 1.0
C      1  0.5791320000000  0.4427510000000  0.5397440000000 1.0
C      1  0.5019300000000  0.5142120000000  0.5587600000000 1.0
C      1  0.4991770000000  0.4815820000000  0.4383540000000 1.0
C      1  0.4994610000000  0.5832150000000  0.4270140000000 1.0
C      1  0.4923740000000  0.4015410000000  0.5628540000000 1.0
C      1  0.5476840000000  0.5727310000000  0.4371620000000 1.0
C      1  0.4491390000000  0.4264840000000  0.5608410000000 1.0
C      1  0.4718550000000  0.4441590000000  0.5678560000000 1.0
C      1  0.5288490000000  0.5497020000000  0.4393730000000 1.0
C      1  0.4683450000000  0.4947670000000  0.4402470000000 1.0
C      1  0.5321290000000  0.5004000000000  0.5565730000000 1.0
C      1  0.5627260000000  0.4951440000000  0.4270760000000 1.0
C      1  0.4372100000000  0.5050600000000  0.5712050000000 1.0
C      1  0.5207510000000  0.5965520000000  0.5577730000000 1.0
C      1  0.4771750000000  0.4024360000000  0.4386860000000 1.0
C      1  0.4777440000000  0.6037340000000  0.4780660000000 1.0
C      1  0.5326440000000  0.4063710000000  0.5239430000000 1.0
C      1  0.5746380000000  0.4212730000000  0.5079360000000 1.0
C      1  0.4319350000000  0.5828190000000  0.4887210000000 1.0
C      1  0.4726560000000  0.5645670000000  0.5119610000000 1.0
C      1  0.5314450000000  0.4345600000000  0.4857300000000 1.0
C      1  0.4655940000000  0.4045270000000  0.5491800000000 1.0
C      1  0.5261510000000  0.5889930000000  0.4314530000000 1.0
C      1  0.5282650000000  0.5133400000000  0.4592040000000 1.0
C      1  0.4572620000000  0.4981160000000  0.5324940000000 1.0
C      1  0.4828450000000  0.5359610000000  0.4552630000000 1.0
C      1  0.5264780000000  0.4749770000000  0.5449820000000 1.0
C      1  0.5242180000000  0.5420260000000  0.4121700000000 1.0
C      1  0.4750770000000  0.4573870000000  0.5927560000000 1.0
C      1  0.4545530000000  0.6008600000000  0.4967960000000 1.0
C      1  0.5471590000000  0.4154250000000  0.5002580000000 1.0
C      1  0.4526280000000  0.4969490000000  0.4606180000000 1.0
C      1  0.5501610000000  0.5128030000000  0.5382460000000 1.0
C      1  0.4852860000000  0.4450580000000  0.4092770000000 1.0
C      1  0.5134350000000  0.5544680000000  0.5877320000000 1.0
C      1  0.5368240000000  0.5369300000000  0.5919390000000 1.0
C      1  0.4636510000000  0.4643300000000  0.4071000000000 1.0
C      1  0.5833200000000  0.4485280000000  0.4994550000000 1.0
C      1  0.4116310000000  0.5452860000000  0.5047200000000 1.0
C      1  0.5069360000000  0.5993250000000  0.4835020000000 1.0
C      1  0.4922810000000  0.4034680000000  0.5053690000000 1.0
C      1  0.4763910000000  0.4436300000000  0.5159240000000 1.0
C      1  0.5152410000000  0.5532330000000  0.4949330000000 1.0
C      1  0.5644780000000  0.5769320000000  0.4784510000000 1.0
C      1  0.4357830000000  0.4198000000000  0.5218400000000 1.0
C      1  0.5233840000000  0.5510740000000  0.5417220000000 1.0
C      1  0.4758490000000  0.4461500000000  0.4616770000000 1.0
C      1  0.4598660000000  0.5384920000000  0.4729740000000 1.0
C      1  0.5390700000000  0.4591030000000  0.5246090000000 1.0
C      1  0.5389100000000  0.5040470000000  0.4144620000000 1.0
C      1  0.4628640000000  0.4952210000000  0.5823430000000 1.0
C      1  0.4670750000000  0.4932030000000  0.3982400000000 1.0
C      1  0.5325390000000  0.5087070000000  0.6012360000000 1.0
C      1  0.5840890000000  0.4831170000000  0.4783660000000 1.0
C      1  0.4153030000000  0.5217740000000  0.5212240000000 1.0
C      1  0.4785320000000  0.5783950000000  0.5582650000000 1.0
C      1  0.5185160000000  0.4276610000000  0.4324120000000 1.0
C      1  0.4648410000000  0.4740600000000  0.4906590000000 1.0
C      1  0.5347910000000  0.5348920000000  0.5052740000000 1.0
C      1  0.5648650000000  0.5655010000000  0.5635220000000 1.0
C      1  0.4354490000000  0.4348970000000  0.4364380000000 1.0
C      1  0.5264390000000  0.4338750000000  0.5325390000000 1.0
C      1  0.4671420000000  0.5640950000000  0.4832430000000 1.0
C      1  0.5032500000000  0.4657760000000  0.5972380000000 1.0
C      1  0.4962390000000  0.5370160000000  0.4065730000000 1.0
C      1  0.5708290000000  0.5232770000000  0.4277670000000 1.0
C      1  0.4278770000000  0.4766520000000  0.5714680000000 1.0
C      1  0.4208910000000  0.5712430000000  0.5129470000000 1.0
C      1  0.5814870000000  0.4267810000000  0.4799740000000 1.0
C      1  0.4276650000000  0.4405770000000  0.4844730000000 1.0
C      1  0.5699620000000  0.5607110000000  0.5165530000000 1.0
C      1  0.5671060000000  0.4967930000000  0.5212950000000 1.0
C      1  0.4364310000000  0.4992080000000  0.4815400000000 1.0
C      1  0.4032680000000  0.5268820000000  0.5478570000000 1.0
C      1  0.5949270000000  0.4701890000000  0.4563500000000 1.0
C      1  0.5516130000000  0.4694780000000  0.4389200000000 1.0
C      1  0.4480910000000  0.5303890000000  0.5580740000000 1.0
C      1  0.4554520000000  0.4617880000000  0.5132170000000 1.0
C      1  0.5587860000000  0.5292560000000  0.4910620000000 1.0
C      1  0.5730070000000  0.5686150000000  0.4533830000000 1.0
C      1  0.4250790000000  0.4327530000000  0.5456260000000 1.0
C      1  0.5151660000000  0.4953450000000  0.3863130000000 1.0
C      1  0.4800410000000  0.5058380000000  0.6068870000000 1.0
C      1  0.4319960000000  0.5280750000000  0.4267600000000 1.0
C      1  0.5706840000000  0.4762980000000  0.5769790000000 1.0
C      1  0.4692820000000  0.5404620000000  0.5277900000000 1.0
C      1  0.5317360000000  0.4588130000000  0.4695080000000 1.0
C      1  0.5888720000000  0.5340660000000  0.4989020000000 1.0
C      1  0.4092210000000  0.4626910000000  0.4969370000000 1.0
C      1  0.5628410000000  0.5410130000000  0.5786440000000 1.0
C      1  0.4382860000000  0.4601680000000  0.4218740000000 1.0
C      1  0.4486510000000  0.4704660000000  0.5917170000000 1.0
C      1  0.5499590000000  0.5290820000000  0.4084160000000 1.0
C      1  0.5270530000000  0.5988220000000  0.5051630000000 1.0
C      1  0.4699010000000  0.3986480000000  0.4880650000000 1.0
C      1  0.4989220000000  0.4722560000000  0.5437630000000 1.0
C      1  0.4991230000000  0.5162670000000  0.4695000000000 1.0
C      1  0.5923810000000  0.5247340000000  0.4695740000000 1.0
C      1  0.4100210000000  0.4751470000000  0.5276180000000 1.0
C      1  0.6015250000000  0.4976210000000  0.4632970000000 1.0
C      1  0.3985770000000  0.5028410000000  0.5331570000000 1.0
C      1  0.5371170000000  0.4153270000000  0.4502450000000 1.0
C      1  0.4521100000000  0.5883690000000  0.5492200000000 1.0
C      1  0.5521730000000  0.5196990000000  0.4692360000000 1.0
C      1  0.4410830000000  0.4764160000000  0.5312930000000 1.0
C      1  0.5746410000000  0.4523300000000  0.4453200000000 1.0
C      1  0.4235490000000  0.5465730000000  0.5552250000000 1.0
C      1  0.4155200000000  0.5070890000000  0.4382980000000 1.0
C      1  0.5878660000000  0.4949970000000  0.5632220000000 1.0
C      1  0.5843550000000  0.5622140000000  0.5420160000000 1.0
C      1  0.4155740000000  0.4379920000000  0.4573890000000 1.0
C      1  0.5101310000000  0.4867540000000  0.5038790000000 1.0
END
