TITL C-2441162-9305-545 0.0487305434430468 125000 -13179.5711436288 0 0 101 (C1) n - 1
REM
REM in /home/bkarasulu/work/CARBON/AIRSS/Generating-Clusters/ReaxFF-fromJPCA2015/Units_Real/with-SteepDescent/Higher-Symm
REM
REM
REM
REM
REM
REM ./C.cell (1df0a924f5614ab8850e4351716899ee)
REM
REM compiler GCC version 9.2.1 20190827 (Red Hat 9.2.1-1)
REM options -cpp -mtune=generic -march=x86-64 -g -O0 -fpre-include=/usr/include/finclude/math-vector-fortran.h
REM seed 286829207 324471812 -1589834429 -43277181 34811671 -1469332739 -973851512 -2091454241 97690927 -742307781 2083324149 -297949186 -707918275 -1948815541 25331629 1525210176 33680934 -540086076 1712535731 -1490508386 -243182697 1053939691 -751266031 -474441893 1453740061 2112951814 -594562134 1890113761 -310811214 396566424 711896390 1142251321 -399375298
REM
CELL 1.54180   50.00000   50.00000   50.00000   90.00000   90.00000   90.00000
LATT -1
SFAC C  
C      1  0.5128040000000  0.5439870000000  0.5659000000000 1.0
C      1  0.5456380000000  0.5653410000000  0.5113510000000 1.0
C      1  0.5683100000000  0.5104630000000  0.5486810000000 1.0
C      1  0.4810520000000  0.5457590000000  0.4411020000000 1.0
C      1  0.4835140000000  0.4465030000000  0.5657270000000 1.0
C      1  0.5164030000000  0.4488650000000  0.4358370000000 1.0
C      1  0.4520180000000  0.5590510000000  0.4791330000000 1.0
C      1  0.4531030000000  0.4319820000000  0.5119860000000 1.0
C      1  0.5434480000000  0.4394000000000  0.4860090000000 1.0
C      1  0.4437620000000  0.5207530000000  0.4535740000000 1.0
C      1  0.4335830000000  0.4886200000000  0.5427350000000 1.0
C      1  0.5593190000000  0.4813000000000  0.4539750000000 1.0
C      1  0.5617080000000  0.4466970000000  0.5236400000000 1.0
C      1  0.4473420000000  0.5236720000000  0.5633920000000 1.0
C      1  0.5218690000000  0.5628710000000  0.4475930000000 1.0
C      1  0.4377840000000  0.4482870000000  0.4751690000000 1.0
C      1  0.4376910000000  0.5529260000000  0.5225670000000 1.0
C      1  0.5616050000000  0.5521280000000  0.4746380000000 1.0
C      1  0.5515230000000  0.5239230000000  0.4374520000000 1.0
C      1  0.5505300000000  0.4753680000000  0.5633560000000 1.0
C      1  0.4480270000000  0.4779090000000  0.4381560000000 1.0
C      1  0.4759320000000  0.5631370000000  0.5506660000000 1.0
C      1  0.4771150000000  0.4377020000000  0.4473960000000 1.0
C      1  0.5223270000000  0.4371260000000  0.5519770000000 1.0
C      1  0.5485350000000  0.4959940000000  0.4296940000000 1.0
C      1  0.4944320000000  0.4256000000000  0.5481190000000 1.0
C      1  0.4306010000000  0.5450460000000  0.4959630000000 1.0
C      1  0.4514980000000  0.4954320000000  0.5682220000000 1.0
C      1  0.4529130000000  0.5053760000000  0.4300480000000 1.0
C      1  0.5483820000000  0.5034320000000  0.5701050000000 1.0
C      1  0.5051880000000  0.4282760000000  0.4525770000000 1.0
C      1  0.5042150000000  0.5691080000000  0.5487280000000 1.0
C      1  0.4944880000000  0.5696930000000  0.4542720000000 1.0
C      1  0.5700140000000  0.5502300000000  0.5027810000000 1.0
C      1  0.5683230000000  0.4535580000000  0.4962550000000 1.0
C      1  0.4299430000000  0.4485010000000  0.5036510000000 1.0
C      1  0.4532540000000  0.4924890000000  0.5226030000000 1.0
C      1  0.4906030000000  0.5209700000000  0.4551570000000 1.0
C      1  0.5208990000000  0.4589950000000  0.4894010000000 1.0
C      1  0.5468760000000  0.4897640000000  0.4792460000000 1.0
C      1  0.5486680000000  0.5139100000000  0.5274630000000 1.0
C      1  0.4575030000000  0.5103350000000  0.4783850000000 1.0
C      1  0.5116840000000  0.5241440000000  0.5432180000000 1.0
C      1  0.5157980000000  0.4816210000000  0.4573320000000 1.0
C      1  0.4889730000000  0.4763760000000  0.5457510000000 1.0
C      1  0.4714630000000  0.4530840000000  0.5180240000000 1.0
C      1  0.4771590000000  0.5453470000000  0.4873360000000 1.0
C      1  0.5256920000000  0.5432070000000  0.5114810000000 1.0
C      1  0.5218330000000  0.5264190000000  0.4871720000000 1.0
C      1  0.5287310000000  0.4928780000000  0.5265190000000 1.0
C      1  0.4903970000000  0.5306060000000  0.5227390000000 1.0
C      1  0.4682050000000  0.5269260000000  0.5045280000000 1.0
C      1  0.4654650000000  0.4778670000000  0.5000760000000 1.0
C      1  0.5361300000000  0.4789350000000  0.5029500000000 1.0
C      1  0.4795590000000  0.4959990000000  0.4657810000000 1.0
C      1  0.4782010000000  0.5014460000000  0.5333770000000 1.0
C      1  0.5271300000000  0.5044550000000  0.4702840000000 1.0
C      1  0.4990720000000  0.5360580000000  0.4760130000000 1.0
C      1  0.5004320000000  0.4649070000000  0.5215700000000 1.0
C      1  0.4958270000000  0.4689390000000  0.4736170000000 1.0
C      1  0.5823780000000  0.5056100000000  0.4792340000000 1.0
C      1  0.5045140000000  0.4800190000000  0.5817640000000 1.0
C      1  0.4720100000000  0.5819090000000  0.5008030000000 1.0
C      1  0.4171200000000  0.5090830000000  0.5278470000000 1.0
C      1  0.4184730000000  0.4922990000000  0.4826150000000 1.0
C      1  0.5812450000000  0.4918440000000  0.5273470000000 1.0
C      1  0.4949970000000  0.4781340000000  0.4195170000000 1.0
C      1  0.4947790000000  0.5275670000000  0.5822770000000 1.0
C      1  0.5058290000000  0.5213270000000  0.4179970000000 1.0
C      1  0.5248370000000  0.5834290000000  0.4967670000000 1.0
C      1  0.5279700000000  0.4186990000000  0.5012750000000 1.0
C      1  0.4736350000000  0.4160450000000  0.4963750000000 1.0
C      1  0.4620190000000  0.5697950000000  0.5255350000000 1.0
C      1  0.5677650000000  0.5266650000000  0.4617190000000 1.0
C      1  0.5252220000000  0.4617230000000  0.5678340000000 1.0
C      1  0.5379460000000  0.5682950000000  0.4708930000000 1.0
C      1  0.5374070000000  0.4315700000000  0.5277900000000 1.0
C      1  0.4617700000000  0.4326190000000  0.4716400000000 1.0
C      1  0.4308690000000  0.5312020000000  0.5406350000000 1.0
C      1  0.4321220000000  0.4739020000000  0.4624590000000 1.0
C      1  0.5680060000000  0.4697330000000  0.5401900000000 1.0
C      1  0.4730530000000  0.4629290000000  0.4325910000000 1.0
C      1  0.4711200000000  0.5398800000000  0.5680760000000 1.0
C      1  0.5261610000000  0.5377560000000  0.4321230000000 1.0
C      1  0.5207020000000  0.4955170000000  0.4185950000000 1.0
C      1  0.4914400000000  0.4190400000000  0.5199320000000 1.0
C      1  0.4203610000000  0.5176840000000  0.4989700000000 1.0
C      1  0.4790050000000  0.4961550000000  0.5782820000000 1.0
C      1  0.4801500000000  0.5042850000000  0.4184250000000 1.0
C      1  0.5200710000000  0.5050810000000  0.5799270000000 1.0
C      1  0.5064680000000  0.4207960000000  0.4814010000000 1.0
C      1  0.5080820000000  0.5791990000000  0.5216660000000 1.0
C      1  0.4939130000000  0.5802040000000  0.4824260000000 1.0
C      1  0.5797340000000  0.5227490000000  0.5018810000000 1.0
C      1  0.5792540000000  0.4814780000000  0.4991360000000 1.0
C      1  0.4209610000000  0.4760430000000  0.5055290000000 1.0
C      1  0.4535050000000  0.5477270000000  0.4514700000000 1.0
C      1  0.5385270000000  0.4606510000000  0.4494110000000 1.0
C      1  0.4657930000000  0.4583370000000  0.5474450000000 1.0
C      1  0.5348750000000  0.5332370000000  0.5334990000000 1.0
C      1  0.4935650000000  0.4910190000000  0.5069430000000 1.0
END
