TITL C-2441169-1362-1041 0.00828701124943591 125000 -3464.86755710977 0 0 28 (C1) n - 1
REM
REM in /home/bkarasulu/work/CARBON/AIRSS/Generating-Clusters/ReaxFF-fromJPCA2015/Units_Real/with-SteepDescent/Higher-Symm
REM
REM
REM
REM
REM
REM ./C.cell (1df0a924f5614ab8850e4351716899ee)
REM
REM compiler GCC version 9.2.1 20190827 (Red Hat 9.2.1-1)
REM options -cpp -mtune=generic -march=x86-64 -g -O0 -fpre-include=/usr/include/finclude/math-vector-fortran.h
REM seed 146698052 549962405 -449389258 -2127520085 510968825 -1931512402 -1803710621 268397070 142013604 197699588 -1170529208 359876874 -87924121 993489300 -610427112 -1437487076 -1988612817 -243792235 532655368 -1111629120 -1117298667 -1583281728 1473037331 71986880 1923276635 -854702436 -1271466973 -143717401 -1650256619 487756171 -1888692149 -1124420395 188537250
REM
CELL 1.54180   50.00000   50.00000   50.00000   90.00000   90.00000   90.00000
LATT -1
SFAC C  
C      1  0.5228930000000  0.5017840000000  0.4483120000000 1.0
C      1  0.4783210000000  0.5006390000000  0.5521670000000 1.0
C      1  0.5255150000000  0.5014770000000  0.5584310000000 1.0
C      1  0.4771980000000  0.5007870000000  0.4461400000000 1.0
C      1  0.5510140000000  0.5448580000000  0.4860040000000 1.0
C      1  0.4641300000000  0.5420170000000  0.5091910000000 1.0
C      1  0.5507360000000  0.5450160000000  0.5164070000000 1.0
C      1  0.4492210000000  0.5419180000000  0.4842180000000 1.0
C      1  0.4466880000000  0.5131270000000  0.4859780000000 1.0
C      1  0.5525480000000  0.5142810000000  0.5155430000000 1.0
C      1  0.4536750000000  0.5145410000000  0.5145780000000 1.0
C      1  0.5490990000000  0.5142080000000  0.4872830000000 1.0
C      1  0.4722300000000  0.4964950000000  0.4752650000000 1.0
C      1  0.5385040000000  0.4933080000000  0.5326060000000 1.0
C      1  0.4736220000000  0.4964330000000  0.5240020000000 1.0
C      1  0.5247090000000  0.4984630000000  0.4779900000000 1.0
C      1  0.4748500000000  0.4684270000000  0.4852110000000 1.0
C      1  0.5309030000000  0.4718930000000  0.5169710000000 1.0
C      1  0.4763030000000  0.4691900000000  0.5145860000000 1.0
C      1  0.5245050000000  0.4689670000000  0.4900600000000 1.0
C      1  0.5011230000000  0.4897630000000  0.5660000000000 1.0
C      1  0.5009080000000  0.4900240000000  0.4350450000000 1.0
C      1  0.5000910000000  0.5161620000000  0.4396760000000 1.0
C      1  0.5014170000000  0.5158800000000  0.5603320000000 1.0
C      1  0.4946090000000  0.5346710000000  0.5041320000000 1.0
C      1  0.4966550000000  0.5087600000000  0.4924820000000 1.0
C      1  0.4974830000000  0.4613450000000  0.4968230000000 1.0
C      1  0.4980780000000  0.4379220000000  0.4988900000000 1.0
END
