TITL C-2441154-10-1140 -2.58140326468806e-08 125000 -3533.26320271048 0 0 24 (D3h) n - 1
REM
REM in /home/bkarasulu/work/CARBON/AIRSS/Generating-Clusters/ReaxFF-fromJPCA2015/Units_Real/with-SteepDescent/Higher-Symm
REM
REM
REM
REM
REM
REM ./C.cell (1df0a924f5614ab8850e4351716899ee)
REM
REM compiler GCC version 9.2.1 20190827 (Red Hat 9.2.1-1)
REM options -cpp -mtune=generic -march=x86-64 -g -O0 -fpre-include=/usr/include/finclude/math-vector-fortran.h
REM seed 468524826 384054919 1490201217 -1443345796 1831498966 -943016466 581995459 -2087402210 -1011520947 697270976 -188359880 114796940 -1676176345 -270906779 -1207058590 1377282116 270081957 693583996 -1346843796 1628801577 283244414 365982753 495431606 -259940635 -1908949344 -414191696 -1802825272 -1186764577 345342271 1336477632 639545361 1316149325 9587623
REM
CELL 1.54180   50.00000   50.00000   50.00000   90.00000   90.00000   90.00000
LATT -1
SFAC C  
C      1  0.4704760000000  0.4999320000000  0.5333660000000 1.0
C      1  0.5147030000000  0.5256030000000  0.5333660000000 1.0
C      1  0.5148210000000  0.4744660000000  0.5333660000000 1.0
C      1  0.4704760000000  0.4999320000000  0.4666340000000 1.0
C      1  0.5147030000000  0.5256030000000  0.4666340000000 1.0
C      1  0.5148210000000  0.4744660000000  0.4666340000000 1.0
C      1  0.5295240000000  0.4999320000000  0.5333660000000 1.0
C      1  0.4852970000000  0.5256030000000  0.5333660000000 1.0
C      1  0.4851790000000  0.4744660000000  0.5333660000000 1.0
C      1  0.5295240000000  0.4999320000000  0.4666340000000 1.0
C      1  0.4852970000000  0.5256030000000  0.4666340000000 1.0
C      1  0.4851790000000  0.4744660000000  0.4666340000000 1.0
C      1  0.5349820000000  0.5375300000000  0.5149120000000 1.0
C      1  0.5150110000000  0.4509390000000  0.5149120000000 1.0
C      1  0.4500070000000  0.5115310000000  0.5149120000000 1.0
C      1  0.5349820000000  0.5375300000000  0.4850880000000 1.0
C      1  0.5150110000000  0.4509390000000  0.4850880000000 1.0
C      1  0.4500070000000  0.5115310000000  0.4850880000000 1.0
C      1  0.4650180000000  0.5375300000000  0.5149120000000 1.0
C      1  0.4849890000000  0.4509390000000  0.5149120000000 1.0
C      1  0.5499930000000  0.5115310000000  0.5149120000000 1.0
C      1  0.4650180000000  0.5375300000000  0.4850880000000 1.0
C      1  0.4849890000000  0.4509390000000  0.4850880000000 1.0
C      1  0.5499930000000  0.5115310000000  0.4850880000000 1.0
END
