TITL C-2441169-1362-1189 0.0191276636693522 125000 -14557.5266408613 0 0 102 (C1) n - 1
REM
REM in /home/bkarasulu/work/CARBON/AIRSS/Generating-Clusters/ReaxFF-fromJPCA2015/Units_Real/with-SteepDescent/Higher-Symm
REM
REM
REM
REM
REM
REM ./C.cell (1df0a924f5614ab8850e4351716899ee)
REM
REM compiler GCC version 9.2.1 20190827 (Red Hat 9.2.1-1)
REM options -cpp -mtune=generic -march=x86-64 -g -O0 -fpre-include=/usr/include/finclude/math-vector-fortran.h
REM seed -1621766478 -795370924 -1775935781 754243454 618732903 1418578208 1739898500 -1701278985 -1760405463 -930707675 1931781004 673525880 -1084110658 156149875 907773443 -1220320258 -256637969 -1985999528 277238162 140708397 1069099083 -733190577 1004528759 2034414522 143377803 1065598729 -1554541111 1201781731 1122319884 -1955012265 1739369345 1104849023 941543668
REM
CELL 1.54180   50.00000   50.00000   50.00000   90.00000   90.00000   90.00000
LATT -1
SFAC C  
C      1  0.5902410000000  0.4719760000000  0.5186850000000 1.0
C      1  0.5449130000000  0.4790680000000  0.4289990000000 1.0
C      1  0.4418490000000  0.4770390000000  0.4316460000000 1.0
C      1  0.4158530000000  0.4772740000000  0.5335930000000 1.0
C      1  0.5099190000000  0.4696730000000  0.5870140000000 1.0
C      1  0.4594170000000  0.4442120000000  0.5367930000000 1.0
C      1  0.5325750000000  0.4379050000000  0.5505480000000 1.0
C      1  0.5586460000000  0.4435880000000  0.4960310000000 1.0
C      1  0.5094500000000  0.4430170000000  0.4398190000000 1.0
C      1  0.4464030000000  0.4422160000000  0.4728020000000 1.0
C      1  0.5494150000000  0.5198130000000  0.4948700000000 1.0
C      1  0.5031290000000  0.5350340000000  0.4570590000000 1.0
C      1  0.4610350000000  0.5308590000000  0.4796800000000 1.0
C      1  0.4704280000000  0.5327770000000  0.5300710000000 1.0
C      1  0.5195230000000  0.5329350000000  0.5418960000000 1.0
C      1  0.4644940000000  0.4580980000000  0.4277730000000 1.0
C      1  0.4170310000000  0.4581570000000  0.5117260000000 1.0
C      1  0.4862680000000  0.4612270000000  0.5728890000000 1.0
C      1  0.5692660000000  0.4591600000000  0.5333060000000 1.0
C      1  0.5544660000000  0.4618590000000  0.4501270000000 1.0
C      1  0.4369020000000  0.4378050000000  0.5000610000000 1.0
C      1  0.4818760000000  0.4391270000000  0.5544270000000 1.0
C      1  0.5430410000000  0.4371890000000  0.5218730000000 1.0
C      1  0.5467680000000  0.4406650000000  0.4695760000000 1.0
C      1  0.4810580000000  0.4386730000000  0.4430150000000 1.0
C      1  0.5424780000000  0.5018160000000  0.5143100000000 1.0
C      1  0.5124220000000  0.5103660000000  0.4700040000000 1.0
C      1  0.4674380000000  0.5035220000000  0.4722220000000 1.0
C      1  0.4636800000000  0.5066540000000  0.5210190000000 1.0
C      1  0.5170540000000  0.5121000000000  0.5241920000000 1.0
C      1  0.4300920000000  0.4785850000000  0.4955740000000 1.0
C      1  0.4805870000000  0.4877000000000  0.5605630000000 1.0
C      1  0.5645700000000  0.4813250000000  0.5503970000000 1.0
C      1  0.5556850000000  0.4836020000000  0.4678360000000 1.0
C      1  0.4843710000000  0.4790030000000  0.4325270000000 1.0
C      1  0.5414060000000  0.5765890000000  0.4726010000000 1.0
C      1  0.4884210000000  0.5791590000000  0.4532280000000 1.0
C      1  0.4525750000000  0.5766890000000  0.4973570000000 1.0
C      1  0.4782350000000  0.5802850000000  0.5464420000000 1.0
C      1  0.5324470000000  0.5751580000000  0.5286850000000 1.0
C      1  0.4962300000000  0.5442060000000  0.5355820000000 1.0
C      1  0.5598300000000  0.5468780000000  0.4954810000000 1.0
C      1  0.5186710000000  0.5533450000000  0.4418590000000 1.0
C      1  0.4523990000000  0.5530040000000  0.4628000000000 1.0
C      1  0.4490510000000  0.5512820000000  0.5387670000000 1.0
C      1  0.4188970000000  0.5203980000000  0.5006970000000 1.0
C      1  0.4683060000000  0.5329050000000  0.5761150000000 1.0
C      1  0.5646270000000  0.5343410000000  0.5505680000000 1.0
C      1  0.5635990000000  0.5271680000000  0.4520380000000 1.0
C      1  0.4728610000000  0.5212480000000  0.4248580000000 1.0
C      1  0.4394770000000  0.5500270000000  0.4897000000000 1.0
C      1  0.4645880000000  0.5589080000000  0.5630320000000 1.0
C      1  0.5412680000000  0.5519790000000  0.5447900000000 1.0
C      1  0.5594070000000  0.5534620000000  0.4670170000000 1.0
C      1  0.4892700000000  0.5518730000000  0.4382260000000 1.0
C      1  0.5476580000000  0.5092550000000  0.4291530000000 1.0
C      1  0.4444100000000  0.5071640000000  0.4274350000000 1.0
C      1  0.4114890000000  0.5072220000000  0.5285460000000 1.0
C      1  0.5106090000000  0.4989040000000  0.5907810000000 1.0
C      1  0.5935630000000  0.5018410000000  0.5191470000000 1.0
C      1  0.4272230000000  0.5132930000000  0.4482370000000 1.0
C      1  0.4258260000000  0.5194020000000  0.5489120000000 1.0
C      1  0.5395800000000  0.5048880000000  0.5877360000000 1.0
C      1  0.5951340000000  0.5140160000000  0.4939610000000 1.0
C      1  0.5238670000000  0.5157530000000  0.4185180000000 1.0
C      1  0.5476870000000  0.4801580000000  0.5725920000000 1.0
C      1  0.5838020000000  0.4827460000000  0.4714020000000 1.0
C      1  0.5016470000000  0.4825840000000  0.4090790000000 1.0
C      1  0.4142500000000  0.4809570000000  0.4709850000000 1.0
C      1  0.4509760000000  0.4880380000000  0.5627530000000 1.0
C      1  0.5078110000000  0.4809790000000  0.4831890000000 1.0
C      1  0.4796670000000  0.4825530000000  0.4888310000000 1.0
C      1  0.4796350000000  0.4829390000000  0.5176640000000 1.0
C      1  0.5061390000000  0.4819310000000  0.5289960000000 1.0
C      1  0.5239710000000  0.4774290000000  0.5068250000000 1.0
C      1  0.4648880000000  0.5788140000000  0.4704320000000 1.0
C      1  0.4567720000000  0.5777560000000  0.5261080000000 1.0
C      1  0.5042750000000  0.5718620000000  0.5364450000000 1.0
C      1  0.5438720000000  0.5714870000000  0.5020910000000 1.0
C      1  0.5177270000000  0.5793610000000  0.4552120000000 1.0
C      1  0.5136600000000  0.4300420000000  0.5135520000000 1.0
C      1  0.5189400000000  0.4339280000000  0.4661070000000 1.0
C      1  0.4740690000000  0.4322660000000  0.4709510000000 1.0
C      1  0.4629580000000  0.4357770000000  0.5100710000000 1.0
C      1  0.5065430000000  0.4281540000000  0.5418060000000 1.0
C      1  0.4392010000000  0.4668690000000  0.5466530000000 1.0
C      1  0.5319980000000  0.4570400000000  0.5728700000000 1.0
C      1  0.5812790000000  0.4619560000000  0.4935690000000 1.0
C      1  0.5210710000000  0.4646270000000  0.4225650000000 1.0
C      1  0.4326800000000  0.4634900000000  0.4555230000000 1.0
C      1  0.4441330000000  0.5163380000000  0.5699760000000 1.0
C      1  0.5527750000000  0.5247280000000  0.5731330000000 1.0
C      1  0.5872930000000  0.5121200000000  0.4677160000000 1.0
C      1  0.4977100000000  0.5122150000000  0.4095140000000 1.0
C      1  0.4125810000000  0.5105810000000  0.4723380000000 1.0
C      1  0.4893200000000  0.5118340000000  0.5755830000000 1.0
C      1  0.5681950000000  0.5069170000000  0.5350530000000 1.0
C      1  0.5447650000000  0.5099890000000  0.4694610000000 1.0
C      1  0.4794250000000  0.5025600000000  0.4465620000000 1.0
C      1  0.4421250000000  0.5028030000000  0.5032560000000 1.0
C      1  0.5042800000000  0.5203730000000  0.4965880000000 1.0
C      1  0.4992380000000  0.4310270000000  0.4881700000000 1.0
END
