TITL C-2441167-4473-929 2.722216828827e-08 125000 -2421.87397633298 0 0 20 (D4h) n - 1
REM
REM in /home/bkarasulu/work/CARBON/AIRSS/Generating-Clusters/ReaxFF-fromJPCA2015/Units_Real/with-SteepDescent/Higher-Symm
REM
REM
REM
REM
REM
REM ./C.cell (1df0a924f5614ab8850e4351716899ee)
REM
REM compiler GCC version 9.2.1 20190827 (Red Hat 9.2.1-1)
REM options -cpp -mtune=generic -march=x86-64 -g -O0 -fpre-include=/usr/include/finclude/math-vector-fortran.h
REM seed -365180700 -1244846515 992465161 -2100669872 -440775051 -1756913910 1508800730 -37540633 1758796316 -792616585 -145273911 -377622366 -513622275 1489428662 226719288 -138846144 -682729823 146375435 1755467947 -158406454 558628795 -32322848 98018568 2095286271 -59773662 -1243653137 450898485 -1339825476 -621976048 -690523130 1245596033 -574091691 1440231114
REM
CELL 1.54180   50.00000   50.00000   50.00000   90.00000   90.00000   90.00000
LATT -1
SFAC C  
C      1  0.4996130000000  0.4867460000000  0.5535270000000 1.0
C      1  0.4464730000000  0.4867460000000  0.4996130000000 1.0
C      1  0.5003870000000  0.4867460000000  0.4464730000000 1.0
C      1  0.5535270000000  0.4867460000000  0.5003870000000 1.0
C      1  0.4996130000000  0.5157030000000  0.5535270000000 1.0
C      1  0.4464730000000  0.5157030000000  0.4996130000000 1.0
C      1  0.5003870000000  0.5157030000000  0.4464730000000 1.0
C      1  0.5535270000000  0.5157030000000  0.5003870000000 1.0
C      1  0.4722450000000  0.4867460000000  0.4542290000000 1.0
C      1  0.5457710000000  0.4867460000000  0.4722450000000 1.0
C      1  0.5277550000000  0.4867460000000  0.5457710000000 1.0
C      1  0.4542290000000  0.4867460000000  0.5277550000000 1.0
C      1  0.4722450000000  0.5157030000000  0.4542290000000 1.0
C      1  0.5457710000000  0.5157030000000  0.4722450000000 1.0
C      1  0.5277550000000  0.5157030000000  0.5457710000000 1.0
C      1  0.4542290000000  0.5157030000000  0.5277550000000 1.0
C      1  0.4682310000000  0.5012250000000  0.4819600000000 1.0
C      1  0.5180400000000  0.5012250000000  0.4682310000000 1.0
C      1  0.4819600000000  0.5012250000000  0.5317690000000 1.0
C      1  0.5317690000000  0.5012250000000  0.5180400000000 1.0
END
