TITL C-2441164-471-196 0.150769943792281 125000 -26095.4664045201 0 0 200 (C1) n - 1
REM
REM in /home/bkarasulu/work/CARBON/AIRSS/Generating-Clusters/ReaxFF-fromJPCA2015/Units_Real/with-SteepDescent/Higher-Symm
REM
REM
REM
REM
REM
REM ./C.cell (1df0a924f5614ab8850e4351716899ee)
REM
REM compiler GCC version 9.2.1 20190827 (Red Hat 9.2.1-1)
REM options -cpp -mtune=generic -march=x86-64 -g -O0 -fpre-include=/usr/include/finclude/math-vector-fortran.h
REM seed 1361602899 1774309324 -1839018214 2119370246 1354470740 761086801 999785288 1292827765 -256865252 15054095 1762637954 880421649 -571721333 -1278855115 1162507468 421630555 705994743 2093812520 307972090 -1676322795 1715390762 -1380589126 349154218 428604471 -1904637720 -720115416 -1992250337 877367677 873800227 1876161763 1882194083 -1097869736 -1917180818
REM
CELL 1.54180   50.00000   50.00000   50.00000   90.00000   90.00000   90.00000
LATT -1
SFAC C  
C      1  0.4446580000000  0.4804480000000  0.4548430000000 1.0
C      1  0.4989530000000  0.4395520000000  0.4554980000000 1.0
C      1  0.5472700000000  0.4633500000000  0.4559790000000 1.0
C      1  0.5503530000000  0.5270690000000  0.4530190000000 1.0
C      1  0.5052390000000  0.5599520000000  0.4539010000000 1.0
C      1  0.4534850000000  0.5388950000000  0.4558980000000 1.0
C      1  0.4453240000000  0.4700580000000  0.5470530000000 1.0
C      1  0.4961230000000  0.4425970000000  0.5497930000000 1.0
C      1  0.5512570000000  0.4650300000000  0.5431570000000 1.0
C      1  0.5517060000000  0.5279500000000  0.5472960000000 1.0
C      1  0.5038170000000  0.5592710000000  0.5471680000000 1.0
C      1  0.4508340000000  0.5317920000000  0.5468880000000 1.0
C      1  0.5249320000000  0.5395360000000  0.4482770000000 1.0
C      1  0.4787130000000  0.5484340000000  0.4415990000000 1.0
C      1  0.4560250000000  0.5090840000000  0.4516760000000 1.0
C      1  0.4756230000000  0.4552770000000  0.4454330000000 1.0
C      1  0.5209160000000  0.4562260000000  0.4491390000000 1.0
C      1  0.5482810000000  0.4968430000000  0.4496210000000 1.0
C      1  0.5259790000000  0.5397830000000  0.5465790000000 1.0
C      1  0.4756840000000  0.5472760000000  0.5569580000000 1.0
C      1  0.4484650000000  0.5025760000000  0.5576020000000 1.0
C      1  0.4738030000000  0.4601520000000  0.5459120000000 1.0
C      1  0.5233680000000  0.4539920000000  0.5585930000000 1.0
C      1  0.5445790000000  0.4956270000000  0.5462740000000 1.0
C      1  0.5419420000000  0.5987290000000  0.4617390000000 1.0
C      1  0.4358050000000  0.5868670000000  0.4613820000000 1.0
C      1  0.3930570000000  0.4863320000000  0.4606410000000 1.0
C      1  0.4588090000000  0.4011630000000  0.4615010000000 1.0
C      1  0.5628510000000  0.4177940000000  0.4603800000000 1.0
C      1  0.6024310000000  0.5132110000000  0.4577300000000 1.0
C      1  0.5444580000000  0.5949540000000  0.5392820000000 1.0
C      1  0.4357460000000  0.5844870000000  0.5370930000000 1.0
C      1  0.3970620000000  0.4856690000000  0.5363590000000 1.0
C      1  0.4598410000000  0.4004190000000  0.5369680000000 1.0
C      1  0.5728520000000  0.4266720000000  0.5532860000000 1.0
C      1  0.5958530000000  0.5210650000000  0.5536200000000 1.0
C      1  0.5678100000000  0.5408730000000  0.4326030000000 1.0
C      1  0.5011400000000  0.5839620000000  0.4359780000000 1.0
C      1  0.4296140000000  0.5409790000000  0.4351380000000 1.0
C      1  0.4348760000000  0.4629780000000  0.4329850000000 1.0
C      1  0.5033910000000  0.4158400000000  0.4355170000000 1.0
C      1  0.5662000000000  0.4584600000000  0.4321650000000 1.0
C      1  0.5746920000000  0.5390270000000  0.5619790000000 1.0
C      1  0.5017000000000  0.5789280000000  0.5680570000000 1.0
C      1  0.4296480000000  0.5371050000000  0.5677860000000 1.0
C      1  0.4324840000000  0.4552410000000  0.5702410000000 1.0
C      1  0.5009480000000  0.4205030000000  0.5675990000000 1.0
C      1  0.5753760000000  0.4549880000000  0.5580380000000 1.0
C      1  0.5249240000000  0.4857420000000  0.6060470000000 1.0
C      1  0.5260520000000  0.5160260000000  0.6066130000000 1.0
C      1  0.5040150000000  0.5342410000000  0.5988120000000 1.0
C      1  0.4663930000000  0.5124090000000  0.6005990000000 1.0
C      1  0.4679560000000  0.4828470000000  0.6037270000000 1.0
C      1  0.4950660000000  0.4681980000000  0.6004140000000 1.0
C      1  0.5290930000000  0.4842950000000  0.3963800000000 1.0
C      1  0.5253070000000  0.5191240000000  0.3952250000000 1.0
C      1  0.4972090000000  0.5259080000000  0.3947710000000 1.0
C      1  0.4703770000000  0.5113240000000  0.3967360000000 1.0
C      1  0.4733660000000  0.4813570000000  0.3955660000000 1.0
C      1  0.5005790000000  0.4699260000000  0.3984580000000 1.0
C      1  0.4944090000000  0.5306670000000  0.4836890000000 1.0
C      1  0.4789130000000  0.5075010000000  0.4726360000000 1.0
C      1  0.4791420000000  0.4830900000000  0.4858620000000 1.0
C      1  0.5049500000000  0.4725700000000  0.4868560000000 1.0
C      1  0.5225170000000  0.4947400000000  0.4723140000000 1.0
C      1  0.5199220000000  0.5207410000000  0.4846460000000 1.0
C      1  0.4895840000000  0.5316870000000  0.5130360000000 1.0
C      1  0.4773720000000  0.5067560000000  0.5204150000000 1.0
C      1  0.4626820000000  0.4830420000000  0.5081520000000 1.0
C      1  0.5121450000000  0.4654800000000  0.5134860000000 1.0
C      1  0.5254290000000  0.4938320000000  0.5226910000000 1.0
C      1  0.5246680000000  0.5218510000000  0.5108870000000 1.0
C      1  0.4247280000000  0.4241510000000  0.4702470000000 1.0
C      1  0.5282500000000  0.3934860000000  0.4710030000000 1.0
C      1  0.6052340000000  0.4714590000000  0.4666740000000 1.0
C      1  0.5760430000000  0.5757160000000  0.4702450000000 1.0
C      1  0.4724420000000  0.6057040000000  0.4714940000000 1.0
C      1  0.3962910000000  0.5269960000000  0.4709740000000 1.0
C      1  0.4234710000000  0.4215370000000  0.5295540000000 1.0
C      1  0.5338080000000  0.3997160000000  0.5303770000000 1.0
C      1  0.6043460000000  0.4743950000000  0.5249500000000 1.0
C      1  0.5789920000000  0.5741700000000  0.5257650000000 1.0
C      1  0.4727050000000  0.6030470000000  0.5304030000000 1.0
C      1  0.3947220000000  0.5269110000000  0.5290400000000 1.0
C      1  0.5701650000000  0.5063100000000  0.5146030000000 1.0
C      1  0.5200850000000  0.5666220000000  0.5118440000000 1.0
C      1  0.4430330000000  0.5413640000000  0.5153080000000 1.0
C      1  0.4332870000000  0.4916020000000  0.5025720000000 1.0
C      1  0.4795350000000  0.4355940000000  0.5135260000000 1.0
C      1  0.5495330000000  0.4482460000000  0.5157050000000 1.0
C      1  0.5652350000000  0.5129410000000  0.4872610000000 1.0
C      1  0.5286180000000  0.5642700000000  0.4845080000000 1.0
C      1  0.4542550000000  0.5512960000000  0.4828100000000 1.0
C      1  0.4299480000000  0.4790860000000  0.4784950000000 1.0
C      1  0.4732180000000  0.4374990000000  0.4851030000000 1.0
C      1  0.5553660000000  0.4613160000000  0.4875220000000 1.0
C      1  0.4530340000000  0.4144970000000  0.5638230000000 1.0
C      1  0.5493400000000  0.4224710000000  0.5700970000000 1.0
C      1  0.5883390000000  0.4979270000000  0.5690780000000 1.0
C      1  0.5498610000000  0.5767430000000  0.5650560000000 1.0
C      1  0.4513900000000  0.5824740000000  0.5629770000000 1.0
C      1  0.4039970000000  0.4971660000000  0.5632740000000 1.0
C      1  0.4550610000000  0.4182420000000  0.4364100000000 1.0
C      1  0.5472300000000  0.4192480000000  0.4343810000000 1.0
C      1  0.5911490000000  0.4988410000000  0.4328360000000 1.0
C      1  0.5459060000000  0.5828080000000  0.4343290000000 1.0
C      1  0.4519220000000  0.5830670000000  0.4361550000000 1.0
C      1  0.4055870000000  0.4985830000000  0.4349600000000 1.0
C      1  0.5481560000000  0.4616980000000  0.4085290000000 1.0
C      1  0.5554980000000  0.5281530000000  0.4067310000000 1.0
C      1  0.5129240000000  0.5729050000000  0.4129460000000 1.0
C      1  0.4462110000000  0.5357640000000  0.4118630000000 1.0
C      1  0.4445420000000  0.4786050000000  0.4095750000000 1.0
C      1  0.5017090000000  0.4336580000000  0.4122860000000 1.0
C      1  0.5490810000000  0.4736790000000  0.5953900000000 1.0
C      1  0.5504090000000  0.5250550000000  0.5930680000000 1.0
C      1  0.5131740000000  0.5607190000000  0.5900960000000 1.0
C      1  0.4488230000000  0.5360070000000  0.5911080000000 1.0
C      1  0.4418130000000  0.4736430000000  0.5923710000000 1.0
C      1  0.4899570000000  0.4395050000000  0.5908080000000 1.0
C      1  0.4473850000000  0.6008020000000  0.4849240000000 1.0
C      1  0.3884300000000  0.5029940000000  0.4841740000000 1.0
C      1  0.4401820000000  0.4044420000000  0.4843330000000 1.0
C      1  0.5532300000000  0.4014860000000  0.4833230000000 1.0
C      1  0.6127100000000  0.4964490000000  0.4796770000000 1.0
C      1  0.5603740000000  0.5954070000000  0.4842770000000 1.0
C      1  0.4486860000000  0.5988160000000  0.5152600000000 1.0
C      1  0.3884550000000  0.5026140000000  0.5144940000000 1.0
C      1  0.4407450000000  0.4034560000000  0.5146720000000 1.0
C      1  0.5559590000000  0.4052160000000  0.5123620000000 1.0
C      1  0.6099980000000  0.4989460000000  0.5089370000000 1.0
C      1  0.5605460000000  0.5938140000000  0.5146060000000 1.0
C      1  0.4899250000000  0.5266940000000  0.5722800000000 1.0
C      1  0.4733080000000  0.5039690000000  0.5718260000000 1.0
C      1  0.4872560000000  0.4832400000000  0.5580390000000 1.0
C      1  0.5087100000000  0.4758710000000  0.5723880000000 1.0
C      1  0.5260040000000  0.4973060000000  0.5689220000000 1.0
C      1  0.5104860000000  0.5174460000000  0.5573560000000 1.0
C      1  0.4910210000000  0.5269010000000  0.4255060000000 1.0
C      1  0.4730710000000  0.5058960000000  0.4269410000000 1.0
C      1  0.4879700000000  0.4830670000000  0.4386010000000 1.0
C      1  0.5110860000000  0.4739950000000  0.4287720000000 1.0
C      1  0.5288230000000  0.4958280000000  0.4266010000000 1.0
C      1  0.5170050000000  0.5217980000000  0.4278240000000 1.0
C      1  0.5644100000000  0.4995680000000  0.5873280000000 1.0
C      1  0.5402820000000  0.5553400000000  0.5830550000000 1.0
C      1  0.4613360000000  0.5609040000000  0.5806770000000 1.0
C      1  0.4289720000000  0.4959630000000  0.5787640000000 1.0
C      1  0.4642890000000  0.4339120000000  0.5815710000000 1.0
C      1  0.5405260000000  0.4479220000000  0.5822420000000 1.0
C      1  0.5699650000000  0.5048650000000  0.4145140000000 1.0
C      1  0.5374580000000  0.5620630000000  0.4156920000000 1.0
C      1  0.4614740000000  0.5603100000000  0.4185260000000 1.0
C      1  0.4285650000000  0.5010100000000  0.4174120000000 1.0
C      1  0.4723660000000  0.4383990000000  0.4214800000000 1.0
C      1  0.5339750000000  0.4378510000000  0.4149600000000 1.0
C      1  0.4131360000000  0.4434600000000  0.5140720000000 1.0
C      1  0.5093970000000  0.4077150000000  0.5134970000000 1.0
C      1  0.5957550000000  0.4497120000000  0.5131020000000 1.0
C      1  0.5901460000000  0.5521230000000  0.5115570000000 1.0
C      1  0.4965310000000  0.6071420000000  0.5153900000000 1.0
C      1  0.4019060000000  0.5504180000000  0.5144730000000 1.0
C      1  0.4076140000000  0.4412240000000  0.4862190000000 1.0
C      1  0.5053250000000  0.3979480000000  0.4864940000000 1.0
C      1  0.5988540000000  0.4484760000000  0.4848270000000 1.0
C      1  0.5887980000000  0.5543610000000  0.4846480000000 1.0
C      1  0.4958800000000  0.6052170000000  0.4875280000000 1.0
C      1  0.4037950000000  0.5504760000000  0.4865650000000 1.0
C      1  0.5948590000000  0.5229180000000  0.5226550000000 1.0
C      1  0.5195550000000  0.5927250000000  0.5251580000000 1.0
C      1  0.4244920000000  0.5607080000000  0.5250250000000 1.0
C      1  0.4202830000000  0.4700570000000  0.5257540000000 1.0
C      1  0.4839330000000  0.4115900000000  0.5269160000000 1.0
C      1  0.5736870000000  0.4279470000000  0.5232840000000 1.0
C      1  0.5855110000000  0.5291160000000  0.4743560000000 1.0
C      1  0.5197650000000  0.5914440000000  0.4784110000000 1.0
C      1  0.4281110000000  0.5645700000000  0.4778020000000 1.0
C      1  0.4079750000000  0.4652800000000  0.4737090000000 1.0
C      1  0.4809340000000  0.4098740000000  0.4780630000000 1.0
C      1  0.5722270000000  0.4386330000000  0.4777060000000 1.0
C      1  0.4048200000000  0.5250330000000  0.5573180000000 1.0
C      1  0.4284920000000  0.4279200000000  0.5593310000000 1.0
C      1  0.5267930000000  0.4084610000000  0.5576090000000 1.0
C      1  0.5966010000000  0.4742380000000  0.5538770000000 1.0
C      1  0.5749740000000  0.5689400000000  0.5550810000000 1.0
C      1  0.4772940000000  0.5938850000000  0.5588110000000 1.0
C      1  0.4050630000000  0.5261310000000  0.4418360000000 1.0
C      1  0.4330690000000  0.4343450000000  0.4429180000000 1.0
C      1  0.5270090000000  0.4003070000000  0.4424030000000 1.0
C      1  0.5918140000000  0.4710180000000  0.4401710000000 1.0
C      1  0.5698310000000  0.5690860000000  0.4415370000000 1.0
C      1  0.4754770000000  0.5972530000000  0.4434310000000 1.0
C      1  0.5401940000000  0.5465680000000  0.5056770000000 1.0
C      1  0.4804090000000  0.5525810000000  0.4949230000000 1.0
C      1  0.5220690000000  0.4388840000000  0.5137860000000 1.0
C      1  0.5676450000000  0.4857250000000  0.4954990000000 1.0
C      1  0.4600260000000  0.4531800000000  0.5053420000000 1.0
C      1  0.4381110000000  0.5173050000000  0.5085260000000 1.0
C      1  0.4987570000000  0.4983030000000  0.4574350000000 1.0
C      1  0.4989100000000  0.4990450000000  0.5373180000000 1.0
END
