TITL C-2441158-471-1125 0.0353928175110314 125000 -10820.5621253421 0 0 78 (C1) n - 1
REM
REM in /home/bkarasulu/work/CARBON/AIRSS/Generating-Clusters/ReaxFF-fromJPCA2015/Units_Real/with-SteepDescent/Higher-Symm
REM
REM
REM
REM
REM
REM ./C.cell (1df0a924f5614ab8850e4351716899ee)
REM
REM compiler GCC version 9.2.1 20190827 (Red Hat 9.2.1-1)
REM options -cpp -mtune=generic -march=x86-64 -g -O0 -fpre-include=/usr/include/finclude/math-vector-fortran.h
REM seed 1975029785 65100031 -558263688 1178593108 1760943603 -35517920 2003802414 1759646808 -450805027 -1510641582 2039616758 -1851088063 -44084302 -498424074 1901962382 946847854 1677556939 -1791398793 1996293694 -225023185 -638218699 558949632 1326568759 932895416 -529348625 966359933 623820578 -1255388133 -1523577578 431517079 -1650322565 1941477723 -714007515
REM
CELL 1.54180   50.00000   50.00000   50.00000   90.00000   90.00000   90.00000
LATT -1
SFAC C  
C      1  0.5013300000000  0.5027470000000  0.5303710000000 1.0
C      1  0.4960670000000  0.4933890000000  0.4674180000000 1.0
C      1  0.5406660000000  0.4431030000000  0.4604930000000 1.0
C      1  0.4591110000000  0.5561430000000  0.5376220000000 1.0
C      1  0.5176780000000  0.5151380000000  0.4944290000000 1.0
C      1  0.4719930000000  0.4871070000000  0.4991990000000 1.0
C      1  0.4488840000000  0.4671600000000  0.5497520000000 1.0
C      1  0.5510670000000  0.5322270000000  0.4498690000000 1.0
C      1  0.5161560000000  0.4457660000000  0.5529260000000 1.0
C      1  0.4869470000000  0.5555270000000  0.4476550000000 1.0
C      1  0.4927790000000  0.5195180000000  0.4804940000000 1.0
C      1  0.5116440000000  0.4769820000000  0.5219260000000 1.0
C      1  0.4339540000000  0.5190690000000  0.4827990000000 1.0
C      1  0.5641710000000  0.4789100000000  0.5190880000000 1.0
C      1  0.4740020000000  0.4635590000000  0.5611140000000 1.0
C      1  0.5274870000000  0.5392830000000  0.4356400000000 1.0
C      1  0.4521730000000  0.4721250000000  0.4879780000000 1.0
C      1  0.5396900000000  0.5251790000000  0.5113250000000 1.0
C      1  0.4454240000000  0.4920360000000  0.4453040000000 1.0
C      1  0.5551200000000  0.5096350000000  0.5552330000000 1.0
C      1  0.5734150000000  0.4683280000000  0.4934930000000 1.0
C      1  0.4271620000000  0.5302140000000  0.5084410000000 1.0
C      1  0.4236700000000  0.4992820000000  0.4647230000000 1.0
C      1  0.5757410000000  0.5002040000000  0.5356480000000 1.0
C      1  0.4940560000000  0.5078460000000  0.4239170000000 1.0
C      1  0.5059400000000  0.4927600000000  0.5749890000000 1.0
C      1  0.5322580000000  0.5470280000000  0.5291200000000 1.0
C      1  0.4685710000000  0.4563160000000  0.4720450000000 1.0
C      1  0.5287500000000  0.5630780000000  0.4810040000000 1.0
C      1  0.4719820000000  0.4391660000000  0.5182050000000 1.0
C      1  0.4910960000000  0.4525100000000  0.5390490000000 1.0
C      1  0.5142380000000  0.5573270000000  0.4551670000000 1.0
C      1  0.4601650000000  0.5158990000000  0.5273800000000 1.0
C      1  0.5408460000000  0.4827330000000  0.4732940000000 1.0
C      1  0.4802790000000  0.5738510000000  0.5352910000000 1.0
C      1  0.5187830000000  0.4270810000000  0.4653860000000 1.0
C      1  0.4428270000000  0.5537260000000  0.5117910000000 1.0
C      1  0.5597440000000  0.4441000000000  0.4863260000000 1.0
C      1  0.5462350000000  0.4818380000000  0.5587700000000 1.0
C      1  0.4544950000000  0.5200270000000  0.4441100000000 1.0
C      1  0.4149740000000  0.4835610000000  0.5096650000000 1.0
C      1  0.5841830000000  0.5151480000000  0.4912650000000 1.0
C      1  0.5546770000000  0.4380920000000  0.5133100000000 1.0
C      1  0.4496690000000  0.5574860000000  0.4832840000000 1.0
C      1  0.4327120000000  0.4615270000000  0.5051640000000 1.0
C      1  0.5644950000000  0.5353530000000  0.4975580000000 1.0
C      1  0.4585700000000  0.5307580000000  0.4726290000000 1.0
C      1  0.5391550000000  0.4736160000000  0.5316610000000 1.0
C      1  0.5225500000000  0.4687720000000  0.5698580000000 1.0
C      1  0.4781480000000  0.5314340000000  0.4323810000000 1.0
C      1  0.5065920000000  0.5160280000000  0.5562760000000 1.0
C      1  0.4908410000000  0.4833530000000  0.4401080000000 1.0
C      1  0.4586550000000  0.5085690000000  0.5688300000000 1.0
C      1  0.5409720000000  0.4914240000000  0.4312320000000 1.0
C      1  0.4996700000000  0.4178170000000  0.4842940000000 1.0
C      1  0.5001430000000  0.5836580000000  0.5175110000000 1.0
C      1  0.5614430000000  0.5049900000000  0.4465030000000 1.0
C      1  0.4389040000000  0.4939670000000  0.5544580000000 1.0
C      1  0.5312750000000  0.4319190000000  0.5300600000000 1.0
C      1  0.4730940000000  0.5698830000000  0.4706430000000 1.0
C      1  0.5978520000000  0.5104450000000  0.5169020000000 1.0
C      1  0.4020250000000  0.4885160000000  0.4840490000000 1.0
C      1  0.4477920000000  0.4516530000000  0.5258800000000 1.0
C      1  0.5523680000000  0.5485440000000  0.4746810000000 1.0
C      1  0.5256070000000  0.5685920000000  0.5099550000000 1.0
C      1  0.4752910000000  0.4344160000000  0.4900790000000 1.0
C      1  0.4695640000000  0.5298380000000  0.5508920000000 1.0
C      1  0.5327110000000  0.4693520000000  0.4489030000000 1.0
C      1  0.5222510000000  0.5129800000000  0.4232040000000 1.0
C      1  0.4778120000000  0.4872880000000  0.5770260000000 1.0
C      1  0.4806310000000  0.5090190000000  0.5116370000000 1.0
C      1  0.5170850000000  0.4860870000000  0.4890890000000 1.0
C      1  0.5158900000000  0.4280940000000  0.5061060000000 1.0
C      1  0.4868450000000  0.5706830000000  0.4954310000000 1.0
C      1  0.5699470000000  0.4923680000000  0.4737800000000 1.0
C      1  0.4300150000000  0.5065410000000  0.5278090000000 1.0
C      1  0.5334520000000  0.5295520000000  0.5529970000000 1.0
C      1  0.4655410000000  0.4707560000000  0.4461000000000 1.0
END
