TITL C-2441169-1362-1408 0.0361588745881018 125000 -10654.0220923332 0 0 78 (C1) n - 1
REM
REM in /home/bkarasulu/work/CARBON/AIRSS/Generating-Clusters/ReaxFF-fromJPCA2015/Units_Real/with-SteepDescent/Higher-Symm
REM
REM
REM
REM
REM
REM ./C.cell (1df0a924f5614ab8850e4351716899ee)
REM
REM compiler GCC version 9.2.1 20190827 (Red Hat 9.2.1-1)
REM options -cpp -mtune=generic -march=x86-64 -g -O0 -fpre-include=/usr/include/finclude/math-vector-fortran.h
REM seed -1705545173 -726855804 1494674515 -1656665197 -1764391274 -2044599867 293057504 392175984 -1633225258 2060201617 -547960261 -4885437 -1227901941 1910935358 -883154729 -1282115048 -795775520 406133256 1237197644 1496956608 1427637521 1770089024 -1059866679 1586027341 -869720761 798844564 -922471252 1076849893 1849193577 238451387 1812576022 -1659890440 2060869271
REM
CELL 1.54180   50.00000   50.00000   50.00000   90.00000   90.00000   90.00000
LATT -1
SFAC C  
C      1  0.4332000000000  0.5054040000000  0.4849400000000 1.0
C      1  0.5453960000000  0.5053330000000  0.4500410000000 1.0
C      1  0.5200040000000  0.5055000000000  0.5645880000000 1.0
C      1  0.5664540000000  0.4934160000000  0.4848210000000 1.0
C      1  0.4538170000000  0.4937710000000  0.4498700000000 1.0
C      1  0.4795700000000  0.4937190000000  0.5649000000000 1.0
C      1  0.5657290000000  0.4941930000000  0.5144640000000 1.0
C      1  0.4535840000000  0.4937980000000  0.5497840000000 1.0
C      1  0.4796320000000  0.4932430000000  0.4364160000000 1.0
C      1  0.4336160000000  0.5054390000000  0.5145840000000 1.0
C      1  0.5460660000000  0.5060980000000  0.5501180000000 1.0
C      1  0.5195890000000  0.5055320000000  0.4354280000000 1.0
C      1  0.4751760000000  0.4070180000000  0.4850450000000 1.0
C      1  0.5252970000000  0.4066030000000  0.4851290000000 1.0
C      1  0.5001500000000  0.4063900000000  0.5288280000000 1.0
C      1  0.5264770000000  0.5938190000000  0.4867450000000 1.0
C      1  0.4758380000000  0.5936000000000  0.4856380000000 1.0
C      1  0.5002260000000  0.5931650000000  0.5296330000000 1.0
C      1  0.5258290000000  0.5939190000000  0.5160370000000 1.0
C      1  0.4751740000000  0.5931010000000  0.5146790000000 1.0
C      1  0.5015350000000  0.5949710000000  0.4712330000000 1.0
C      1  0.4750210000000  0.4065200000000  0.5147580000000 1.0
C      1  0.5254070000000  0.4069710000000  0.5141990000000 1.0
C      1  0.5001240000000  0.4050990000000  0.4698510000000 1.0
C      1  0.5341200000000  0.5706640000000  0.4715680000000 1.0
C      1  0.5103480000000  0.5720840000000  0.5478370000000 1.0
C      1  0.4568050000000  0.5714090000000  0.4845600000000 1.0
C      1  0.4664630000000  0.4296440000000  0.4686970000000 1.0
C      1  0.4901340000000  0.4277950000000  0.5472850000000 1.0
C      1  0.5439470000000  0.4291230000000  0.4849020000000 1.0
C      1  0.4640440000000  0.4280320000000  0.5317380000000 1.0
C      1  0.4906390000000  0.4269510000000  0.4516290000000 1.0
C      1  0.5438040000000  0.4296900000000  0.5140260000000 1.0
C      1  0.5361820000000  0.5714580000000  0.5320500000000 1.0
C      1  0.5127980000000  0.5744670000000  0.4532030000000 1.0
C      1  0.4559480000000  0.5708810000000  0.5140170000000 1.0
C      1  0.5049090000000  0.4501970000000  0.4607960000000 1.0
C      1  0.5270500000000  0.4529810000000  0.5214150000000 1.0
C      1  0.4630280000000  0.4495070000000  0.5176750000000 1.0
C      1  0.4942450000000  0.5530470000000  0.4541710000000 1.0
C      1  0.4716380000000  0.5475370000000  0.5214590000000 1.0
C      1  0.5375970000000  0.5501190000000  0.5179210000000 1.0
C      1  0.4959500000000  0.5491460000000  0.5375860000000 1.0
C      1  0.4740760000000  0.5498370000000  0.4749810000000 1.0
C      1  0.5291140000000  0.5478990000000  0.4898210000000 1.0
C      1  0.5037990000000  0.4510650000000  0.5379960000000 1.0
C      1  0.5284620000000  0.4523430000000  0.4768420000000 1.0
C      1  0.4708620000000  0.4525290000000  0.4895470000000 1.0
C      1  0.5546940000000  0.4801430000000  0.4605830000000 1.0
C      1  0.5058060000000  0.4800150000000  0.5666350000000 1.0
C      1  0.4380080000000  0.4794230000000  0.4716690000000 1.0
C      1  0.4422910000000  0.5190290000000  0.4598060000000 1.0
C      1  0.4934520000000  0.5195680000000  0.5686190000000 1.0
C      1  0.5626800000000  0.5194130000000  0.4714410000000 1.0
C      1  0.4439310000000  0.5192950000000  0.5392630000000 1.0
C      1  0.4921250000000  0.5184180000000  0.4325910000000 1.0
C      1  0.5602820000000  0.5197380000000  0.5277220000000 1.0
C      1  0.5568780000000  0.4806280000000  0.5398690000000 1.0
C      1  0.5058870000000  0.4798420000000  0.4324240000000 1.0
C      1  0.4388780000000  0.4803300000000  0.5279890000000 1.0
C      1  0.5437210000000  0.4544440000000  0.4529300000000 1.0
C      1  0.5183520000000  0.4539140000000  0.5619240000000 1.0
C      1  0.4394770000000  0.4547340000000  0.4866900000000 1.0
C      1  0.4547400000000  0.5449670000000  0.4532570000000 1.0
C      1  0.4817080000000  0.5456660000000  0.5621710000000 1.0
C      1  0.5607110000000  0.5441180000000  0.4858690000000 1.0
C      1  0.4562240000000  0.5447780000000  0.5457350000000 1.0
C      1  0.4774140000000  0.5422440000000  0.4347030000000 1.0
C      1  0.5625830000000  0.5460220000000  0.5157330000000 1.0
C      1  0.5438460000000  0.4556230000000  0.5455910000000 1.0
C      1  0.5185150000000  0.4534890000000  0.4358820000000 1.0
C      1  0.4376630000000  0.4542560000000  0.5166560000000 1.0
C      1  0.5089310000000  0.5264360000000  0.4895370000000 1.0
C      1  0.5004270000000  0.5143690000000  0.5121250000000 1.0
C      1  0.4806890000000  0.5262020000000  0.4966120000000 1.0
C      1  0.4917150000000  0.4746500000000  0.4899000000000 1.0
C      1  0.4993040000000  0.4883660000000  0.5134890000000 1.0
C      1  0.5201890000000  0.4748540000000  0.4991340000000 1.0
END
