TITL C-2441166-8118-130 0.0620033334203229 125000 -25313.2417806812 0 0 181 (C1) n - 1
REM
REM in /home/bkarasulu/work/CARBON/AIRSS/Generating-Clusters/ReaxFF-fromJPCA2015/Units_Real/with-SteepDescent/Higher-Symm
REM
REM
REM
REM
REM
REM ./C.cell (1df0a924f5614ab8850e4351716899ee)
REM
REM compiler GCC version 9.2.1 20190827 (Red Hat 9.2.1-1)
REM options -cpp -mtune=generic -march=x86-64 -g -O0 -fpre-include=/usr/include/finclude/math-vector-fortran.h
REM seed -176538092 289629048 -1432616979 1470480754 -1360655759 -1361775319 1578399874 -758444672 -1352469739 85350152 1519088715 -671269101 -142370817 219787871 490721870 -200138031 -782389725 995745700 -1773543540 -913766622 237990452 -605200103 656673508 -1523673677 -944611393 -1719733089 -1798379319 -455672161 -853689446 -646859814 1220433552 1112505420 -1589615967
REM
CELL 1.54180   50.00000   50.00000   50.00000   90.00000   90.00000   90.00000
LATT -1
SFAC C  
C      1  0.5353230000000  0.5588340000000  0.4114070000000 1.0
C      1  0.5388810000000  0.6025870000000  0.5288400000000 1.0
C      1  0.5331750000000  0.5110610000000  0.6012220000000 1.0
C      1  0.5376660000000  0.4012980000000  0.5366200000000 1.0
C      1  0.5360390000000  0.4347560000000  0.4163920000000 1.0
C      1  0.4646960000000  0.4518670000000  0.4091410000000 1.0
C      1  0.4652590000000  0.3981860000000  0.5291210000000 1.0
C      1  0.4631210000000  0.4967760000000  0.6051230000000 1.0
C      1  0.4653190000000  0.5986660000000  0.5362810000000 1.0
C      1  0.4656850000000  0.5673410000000  0.4245560000000 1.0
C      1  0.5332700000000  0.4498750000000  0.5378170000000 1.0
C      1  0.5180970000000  0.4441520000000  0.4577750000000 1.0
C      1  0.5293600000000  0.5144240000000  0.4311770000000 1.0
C      1  0.5340440000000  0.5662580000000  0.5020000000000 1.0
C      1  0.5262230000000  0.5198620000000  0.5601890000000 1.0
C      1  0.4683210000000  0.5556100000000  0.5386570000000 1.0
C      1  0.4711230000000  0.5513630000000  0.4617060000000 1.0
C      1  0.4751820000000  0.4854840000000  0.4398710000000 1.0
C      1  0.4787410000000  0.4286780000000  0.5002590000000 1.0
C      1  0.4642540000000  0.4781860000000  0.5624910000000 1.0
C      1  0.4216490000000  0.4576180000000  0.4341910000000 1.0
C      1  0.4214300000000  0.5496600000000  0.4405950000000 1.0
C      1  0.4270260000000  0.5696650000000  0.5261500000000 1.0
C      1  0.4221040000000  0.5008500000000  0.5777740000000 1.0
C      1  0.4283120000000  0.4285980000000  0.5171180000000 1.0
C      1  0.5714870000000  0.5396300000000  0.4394660000000 1.0
C      1  0.5665640000000  0.4601030000000  0.4451850000000 1.0
C      1  0.5788640000000  0.4252540000000  0.5258930000000 1.0
C      1  0.5747330000000  0.5047760000000  0.5734360000000 1.0
C      1  0.5767830000000  0.5731060000000  0.5209580000000 1.0
C      1  0.5557830000000  0.4849980000000  0.5165790000000 1.0
C      1  0.5389900000000  0.4798600000000  0.4929330000000 1.0
C      1  0.5420480000000  0.5029550000000  0.4770260000000 1.0
C      1  0.5559510000000  0.5238800000000  0.4938440000000 1.0
C      1  0.5434320000000  0.5123020000000  0.5180570000000 1.0
C      1  0.4612890000000  0.5119350000000  0.5169240000000 1.0
C      1  0.4519030000000  0.5180810000000  0.4892420000000 1.0
C      1  0.4425840000000  0.4921810000000  0.4808870000000 1.0
C      1  0.4586180000000  0.4755690000000  0.4973330000000 1.0
C      1  0.4466400000000  0.4866990000000  0.5226910000000 1.0
C      1  0.4064470000000  0.4713050000000  0.4534420000000 1.0
C      1  0.4036700000000  0.5363300000000  0.4601280000000 1.0
C      1  0.4075960000000  0.5492920000000  0.5214020000000 1.0
C      1  0.4081870000000  0.4965840000000  0.5532540000000 1.0
C      1  0.4082770000000  0.4471310000000  0.5106500000000 1.0
C      1  0.5927740000000  0.5277980000000  0.4539650000000 1.0
C      1  0.5903900000000  0.4670750000000  0.4588510000000 1.0
C      1  0.5921180000000  0.4501840000000  0.5219700000000 1.0
C      1  0.5946520000000  0.5045940000000  0.5525470000000 1.0
C      1  0.5940890000000  0.5527410000000  0.5113700000000 1.0
C      1  0.4436180000000  0.5965900000000  0.4889980000000 1.0
C      1  0.4459920000000  0.5424160000000  0.5915880000000 1.0
C      1  0.4471460000000  0.4329010000000  0.5606170000000 1.0
C      1  0.4497830000000  0.4227160000000  0.4489090000000 1.0
C      1  0.4454670000000  0.5191840000000  0.4108870000000 1.0
C      1  0.5494120000000  0.4054940000000  0.4894450000000 1.0
C      1  0.5545860000000  0.4647660000000  0.5866650000000 1.0
C      1  0.5544230000000  0.5685660000000  0.5632780000000 1.0
C      1  0.5522960000000  0.5832890000000  0.4518080000000 1.0
C      1  0.5538780000000  0.4803180000000  0.4069060000000 1.0
C      1  0.5122470000000  0.5967420000000  0.5392460000000 1.0
C      1  0.5115080000000  0.4924500000000  0.6091880000000 1.0
C      1  0.5111610000000  0.4010090000000  0.5264910000000 1.0
C      1  0.5103750000000  0.4417180000000  0.4025210000000 1.0
C      1  0.5090660000000  0.5718160000000  0.4137380000000 1.0
C      1  0.4899130000000  0.3995350000000  0.5446250000000 1.0
C      1  0.4879800000000  0.5074980000000  0.6138410000000 1.0
C      1  0.4897790000000  0.6036110000000  0.5214550000000 1.0
C      1  0.4864310000000  0.5551720000000  0.4076490000000 1.0
C      1  0.4872370000000  0.4364450000000  0.4181590000000 1.0
C      1  0.4701050000000  0.5055610000000  0.3983300000000 1.0
C      1  0.4690130000000  0.5968920000000  0.4726070000000 1.0
C      1  0.4726800000000  0.5536420000000  0.5966040000000 1.0
C      1  0.4731980000000  0.4318270000000  0.5776020000000 1.0
C      1  0.4853400000000  0.4044960000000  0.4545160000000 1.0
C      1  0.5213900000000  0.4877000000000  0.3961730000000 1.0
C      1  0.5196500000000  0.3938580000000  0.4753510000000 1.0
C      1  0.5297120000000  0.4494120000000  0.5914880000000 1.0
C      1  0.5177330000000  0.5622650000000  0.5788090000000 1.0
C      1  0.5255560000000  0.5955760000000  0.4542740000000 1.0
C      1  0.4995810000000  0.5217480000000  0.5718280000000 1.0
C      1  0.4940460000000  0.4155510000000  0.5688590000000 1.0
C      1  0.4893660000000  0.4345870000000  0.4492350000000 1.0
C      1  0.4887760000000  0.5269300000000  0.3961060000000 1.0
C      1  0.4904630000000  0.6028340000000  0.4916180000000 1.0
C      1  0.5077040000000  0.4639720000000  0.6019650000000 1.0
C      1  0.5148780000000  0.5688690000000  0.5498430000000 1.0
C      1  0.4985670000000  0.5548910000000  0.4542020000000 1.0
C      1  0.5092150000000  0.4865220000000  0.4271710000000 1.0
C      1  0.5069060000000  0.4213770000000  0.5084630000000 1.0
C      1  0.4433970000000  0.5920130000000  0.5181230000000 1.0
C      1  0.4421900000000  0.5135500000000  0.5945290000000 1.0
C      1  0.4439350000000  0.4160420000000  0.5369780000000 1.0
C      1  0.4445060000000  0.4422380000000  0.4274160000000 1.0
C      1  0.4445380000000  0.5486490000000  0.4241410000000 1.0
C      1  0.5588200000000  0.4058750000000  0.5178860000000 1.0
C      1  0.5549610000000  0.4936830000000  0.5913530000000 1.0
C      1  0.5597850000000  0.5857620000000  0.5400620000000 1.0
C      1  0.5556840000000  0.5628470000000  0.4319800000000 1.0
C      1  0.5565470000000  0.4545210000000  0.4190740000000 1.0
C      1  0.5937730000000  0.4845790000000  0.4811060000000 1.0
C      1  0.5954520000000  0.5123290000000  0.4782500000000 1.0
C      1  0.5920250000000  0.5241330000000  0.5051920000000 1.0
C      1  0.5956980000000  0.5025660000000  0.5241860000000 1.0
C      1  0.5888120000000  0.4777500000000  0.5099640000000 1.0
C      1  0.4045940000000  0.5179690000000  0.4820950000000 1.0
C      1  0.4126880000000  0.4859860000000  0.4792210000000 1.0
C      1  0.4061590000000  0.4745060000000  0.5057770000000 1.0
C      1  0.4139340000000  0.4955650000000  0.5241430000000 1.0
C      1  0.4074370000000  0.5231290000000  0.5087920000000 1.0
C      1  0.4277120000000  0.4277660000000  0.4676370000000 1.0
C      1  0.4252720000000  0.5033050000000  0.4245080000000 1.0
C      1  0.4279590000000  0.5723170000000  0.4822250000000 1.0
C      1  0.4314320000000  0.5436020000000  0.5658110000000 1.0
C      1  0.4237290000000  0.4527470000000  0.5624890000000 1.0
C      1  0.5699670000000  0.5713190000000  0.4723060000000 1.0
C      1  0.5764020000000  0.4989110000000  0.4153930000000 1.0
C      1  0.5710320000000  0.4233230000000  0.4774970000000 1.0
C      1  0.5703860000000  0.4606870000000  0.5625500000000 1.0
C      1  0.5741960000000  0.5483520000000  0.5610260000000 1.0
C      1  0.5368400000000  0.5957390000000  0.5005360000000 1.0
C      1  0.5255010000000  0.5401360000000  0.5978740000000 1.0
C      1  0.5378710000000  0.4248590000000  0.5540190000000 1.0
C      1  0.5313010000000  0.4223600000000  0.4423060000000 1.0
C      1  0.5336740000000  0.5305710000000  0.4053620000000 1.0
C      1  0.4703000000000  0.3996650000000  0.5007100000000 1.0
C      1  0.4649680000000  0.4738830000000  0.5899930000000 1.0
C      1  0.4710770000000  0.5786140000000  0.5571650000000 1.0
C      1  0.4756600000000  0.5886940000000  0.4445980000000 1.0
C      1  0.4751130000000  0.4767490000000  0.3955130000000 1.0
C      1  0.4792600000000  0.4473250000000  0.5222930000000 1.0
C      1  0.4741430000000  0.4598900000000  0.4617760000000 1.0
C      1  0.4663020000000  0.5240610000000  0.4637470000000 1.0
C      1  0.4873070000000  0.5527790000000  0.5158750000000 1.0
C      1  0.4746400000000  0.5115480000000  0.5593240000000 1.0
C      1  0.5157090000000  0.5518160000000  0.5245490000000 1.0
C      1  0.5206800000000  0.5373700000000  0.4496700000000 1.0
C      1  0.5183280000000  0.4720180000000  0.4501580000000 1.0
C      1  0.5264450000000  0.4413730000000  0.5060320000000 1.0
C      1  0.5282230000000  0.4915840000000  0.5552200000000 1.0
C      1  0.4541960000000  0.5340540000000  0.5517000000000 1.0
C      1  0.4451950000000  0.4640230000000  0.5490290000000 1.0
C      1  0.4537390000000  0.4405990000000  0.4722120000000 1.0
C      1  0.4512510000000  0.5027650000000  0.4357190000000 1.0
C      1  0.4522380000000  0.5574530000000  0.4819420000000 1.0
C      1  0.5525340000000  0.4726390000000  0.5434940000000 1.0
C      1  0.5474360000000  0.5415090000000  0.5560770000000 1.0
C      1  0.5520770000000  0.5520030000000  0.4847700000000 1.0
C      1  0.5530040000000  0.4955660000000  0.4315360000000 1.0
C      1  0.5478320000000  0.4337310000000  0.4881720000000 1.0
C      1  0.4095480000000  0.4814710000000  0.4276260000000 1.0
C      1  0.4099760000000  0.5634530000000  0.4615680000000 1.0
C      1  0.4146310000000  0.5577700000000  0.5477040000000 1.0
C      1  0.4108630000000  0.4756140000000  0.5717730000000 1.0
C      1  0.4142930000000  0.4258320000000  0.4929520000000 1.0
C      1  0.5878480000000  0.5214960000000  0.4266580000000 1.0
C      1  0.5821020000000  0.4403100000000  0.4575980000000 1.0
C      1  0.5856400000000  0.4423850000000  0.5478190000000 1.0
C      1  0.5896410000000  0.5271790000000  0.5687910000000 1.0
C      1  0.5872330000000  0.5752160000000  0.4951480000000 1.0
C      1  0.4956050000000  0.5338580000000  0.6026190000000 1.0
C      1  0.5211420000000  0.4250970000000  0.5770320000000 1.0
C      1  0.5144670000000  0.3982540000000  0.4473800000000 1.0
C      1  0.5151380000000  0.5163280000000  0.3889240000000 1.0
C      1  0.5175110000000  0.6049620000000  0.4806280000000 1.0
C      1  0.4813370000000  0.4528420000000  0.5953180000000 1.0
C      1  0.4877640000000  0.5725270000000  0.5812250000000 1.0
C      1  0.5031680000000  0.5911280000000  0.4356480000000 1.0
C      1  0.5019270000000  0.4668390000000  0.3894270000000 1.0
C      1  0.4903470000000  0.3909350000000  0.4808850000000 1.0
C      1  0.4860970000000  0.4717350000000  0.4868700000000 1.0
C      1  0.4873990000000  0.5076650000000  0.4541910000000 1.0
C      1  0.4911120000000  0.5352250000000  0.4933370000000 1.0
C      1  0.4855380000000  0.5118560000000  0.5320170000000 1.0
C      1  0.4847790000000  0.4649650000000  0.5420420000000 1.0
C      1  0.5124840000000  0.5459930000000  0.4772540000000 1.0
C      1  0.5128730000000  0.5000050000000  0.4681690000000 1.0
C      1  0.5144950000000  0.4648200000000  0.4930030000000 1.0
C      1  0.5126540000000  0.4699680000000  0.5469670000000 1.0
C      1  0.5137910000000  0.5170390000000  0.5205770000000 1.0
C      1  0.5009180000000  0.5084470000000  0.4944450000000 1.0
END
