TITL C-2441162-9305-1442 0.00135078728879104 125000 -5188.56043388296 0 0 38 (C1) n - 1
REM
REM in /home/bkarasulu/work/CARBON/AIRSS/Generating-Clusters/ReaxFF-fromJPCA2015/Units_Real/with-SteepDescent/Higher-Symm
REM
REM
REM
REM
REM
REM ./C.cell (1df0a924f5614ab8850e4351716899ee)
REM
REM compiler GCC version 9.2.1 20190827 (Red Hat 9.2.1-1)
REM options -cpp -mtune=generic -march=x86-64 -g -O0 -fpre-include=/usr/include/finclude/math-vector-fortran.h
REM seed -1988559840 662726034 -1493201769 -444727900 -395393544 -1782826264 770308004 -1477403215 1289071699 637129351 -435032130 1435368855 1714146743 1346032503 170893072 -351817347 -1963968282 -1448171000 637715574 -1942275546 -485180181 -1955087590 -8254037 364339514 -3019029 -1356044054 6496628 -784832116 368611286 -619688384 -602850357 2040958249 -1870424375
REM
CELL 1.54180   50.00000   50.00000   50.00000   90.00000   90.00000   90.00000
LATT -1
SFAC C  
C      1  0.5229290000000  0.4519220000000  0.4773930000000 1.0
C      1  0.5092380000000  0.4484810000000  0.5256370000000 1.0
C      1  0.4726820000000  0.4528160000000  0.4909670000000 1.0
C      1  0.5625020000000  0.4859920000000  0.5303200000000 1.0
C      1  0.4470180000000  0.4847260000000  0.5403200000000 1.0
C      1  0.4975500000000  0.4865330000000  0.4304770000000 1.0
C      1  0.4840580000000  0.5077380000000  0.4335860000000 1.0
C      1  0.5665140000000  0.5087430000000  0.5194220000000 1.0
C      1  0.4553670000000  0.5075960000000  0.5482580000000 1.0
C      1  0.4639760000000  0.5191130000000  0.4496790000000 1.0
C      1  0.5594800000000  0.5191420000000  0.4944160000000 1.0
C      1  0.4833580000000  0.5154520000000  0.5514450000000 1.0
C      1  0.5088260000000  0.5529360000000  0.5267640000000 1.0
C      1  0.4733770000000  0.5431710000000  0.4928540000000 1.0
C      1  0.5187040000000  0.5394260000000  0.4793230000000 1.0
C      1  0.5176520000000  0.5068470000000  0.4857370000000 1.0
C      1  0.4974620000000  0.5001930000000  0.5057510000000 1.0
C      1  0.4721530000000  0.5106740000000  0.4957510000000 1.0
C      1  0.5466900000000  0.4672960000000  0.4873920000000 1.0
C      1  0.4950850000000  0.4679740000000  0.5432530000000 1.0
C      1  0.4671600000000  0.4699570000000  0.4672350000000 1.0
C      1  0.5288100000000  0.5523160000000  0.4534390000000 1.0
C      1  0.5307590000000  0.5594760000000  0.5385500000000 1.0
C      1  0.4503570000000  0.5585450000000  0.5003310000000 1.0
C      1  0.4645500000000  0.5403090000000  0.4679770000000 1.0
C      1  0.5417220000000  0.5408810000000  0.4891330000000 1.0
C      1  0.4981470000000  0.5371650000000  0.5440000000000 1.0
C      1  0.5561660000000  0.4623020000000  0.5154450000000 1.0
C      1  0.4646890000000  0.4620070000000  0.5413310000000 1.0
C      1  0.4854690000000  0.4638320000000  0.4440470000000 1.0
C      1  0.4997700000000  0.4957100000000  0.5359450000000 1.0
C      1  0.4613400000000  0.4979830000000  0.4720960000000 1.0
C      1  0.5437370000000  0.4955210000000  0.4821970000000 1.0
C      1  0.4580220000000  0.4587630000000  0.5146840000000 1.0
C      1  0.5118630000000  0.4595360000000  0.4522860000000 1.0
C      1  0.5341540000000  0.4595870000000  0.5328140000000 1.0
C      1  0.5013090000000  0.4467440000000  0.4970600000000 1.0
C      1  0.5026130000000  0.5530010000000  0.4986590000000 1.0
END
