TITL C-2441165-58-973 0.00140247577323543 125000 -2766.30193273192 0 0 21 (C2v) n - 1
REM
REM in /home/bkarasulu/work/CARBON/AIRSS/Generating-Clusters/ReaxFF-fromJPCA2015/Units_Real/with-SteepDescent/Higher-Symm
REM
REM
REM
REM
REM
REM ./C.cell (1df0a924f5614ab8850e4351716899ee)
REM
REM compiler GCC version 9.2.1 20190827 (Red Hat 9.2.1-1)
REM options -cpp -mtune=generic -march=x86-64 -g -O0 -fpre-include=/usr/include/finclude/math-vector-fortran.h
REM seed 1402732823 341732226 2091476148 -1728258604 901422900 -361408095 -990750725 1200566698 2104273003 -326761480 1623741545 -8328919 1758573114 -210000430 -1512234475 435305544 -1771460772 1013914114 -1172940871 1564432156 -1576130374 -1405359974 1382535208 -1981255254 -1392935137 1850501913 439903296 -890266252 -505293146 -565652745 -1263590989 -762125945 -1187857576
REM
CELL 1.54180   50.00000   50.00000   50.00000   90.00000   90.00000   90.00000
LATT -1
SFAC C  
C      1  0.4672030000000  0.5149310000000  0.5239740000000 1.0
C      1  0.5035350000000  0.4657220000000  0.5237800000000 1.0
C      1  0.5297680000000  0.5206510000000  0.5234270000000 1.0
C      1  0.4672030000000  0.5149310000000  0.4765540000000 1.0
C      1  0.5035350000000  0.4657220000000  0.4767480000000 1.0
C      1  0.5297680000000  0.5206510000000  0.4771020000000 1.0
C      1  0.4672030000000  0.4850690000000  0.5239740000000 1.0
C      1  0.5035350000000  0.5342780000000  0.5237800000000 1.0
C      1  0.5297680000000  0.4793490000000  0.5234270000000 1.0
C      1  0.4672030000000  0.4850690000000  0.4765540000000 1.0
C      1  0.5035350000000  0.5342780000000  0.4767480000000 1.0
C      1  0.5297680000000  0.4793490000000  0.4771020000000 1.0
C      1  0.5344950000000  0.5000000000000  0.4554440000000 1.0
C      1  0.4843580000000  0.4694860000000  0.5453920000000 1.0
C      1  0.4843580000000  0.4694860000000  0.4551370000000 1.0
C      1  0.4843580000000  0.5305140000000  0.4551370000000 1.0
C      1  0.5344950000000  0.5000000000000  0.5450850000000 1.0
C      1  0.4843580000000  0.5305140000000  0.5453920000000 1.0
C      1  0.4770730000000  0.5291710000000  0.5002640000000 1.0
C      1  0.4770730000000  0.4708290000000  0.5002640000000 1.0
C      1  0.5374060000000  0.5000000000000  0.5002640000000 1.0
END
