TITL C-2441156-4686-718 0.107372570237422 125000 -17514.0131272199 0 0 138 (C1) n - 1
REM
REM in /home/bkarasulu/work/CARBON/AIRSS/Generating-Clusters/ReaxFF-fromJPCA2015/Units_Real/with-SteepDescent/Higher-Symm
REM
REM
REM
REM
REM
REM ./C.cell (1df0a924f5614ab8850e4351716899ee)
REM
REM compiler GCC version 9.2.1 20190827 (Red Hat 9.2.1-1)
REM options -cpp -mtune=generic -march=x86-64 -g -O0 -fpre-include=/usr/include/finclude/math-vector-fortran.h
REM seed -1322064879 1178558440 -285399134 533405248 1577281235 2097808969 636567742 -1338629230 96428630 2111865540 -1197778523 1579206533 1398769343 -1599278274 590217678 -520480424 1167068563 956475581 -1569326339 -1980073686 -698684309 -2102334242 -1197769326 -1142476698 -1012634991 -406964025 -1111628991 217403256 -1561013822 1704044677 -156300205 1697415110 476821658
REM
CELL 1.54180   50.00000   50.00000   50.00000   90.00000   90.00000   90.00000
LATT -1
SFAC C  
C      1  0.4924920000000  0.4252710000000  0.4786200000000 1.0
C      1  0.5805490000000  0.4680820000000  0.4760780000000 1.0
C      1  0.5538780000000  0.5515080000000  0.4781110000000 1.0
C      1  0.4586220000000  0.5735920000000  0.4797730000000 1.0
C      1  0.4242190000000  0.4804380000000  0.4755180000000 1.0
C      1  0.5088060000000  0.4165120000000  0.5178490000000 1.0
C      1  0.4225080000000  0.4681900000000  0.5225450000000 1.0
C      1  0.4492460000000  0.5600630000000  0.5232590000000 1.0
C      1  0.5441460000000  0.5716260000000  0.5224450000000 1.0
C      1  0.5844750000000  0.4822320000000  0.5165040000000 1.0
C      1  0.5476710000000  0.4214790000000  0.4816190000000 1.0
C      1  0.5860810000000  0.5159990000000  0.4811600000000 1.0
C      1  0.5071290000000  0.5999520000000  0.4776770000000 1.0
C      1  0.4212900000000  0.5377470000000  0.4831410000000 1.0
C      1  0.4418240000000  0.4350090000000  0.4825860000000 1.0
C      1  0.4544190000000  0.4217820000000  0.5157290000000 1.0
C      1  0.4149620000000  0.5157250000000  0.5169510000000 1.0
C      1  0.4894790000000  0.5850720000000  0.5195060000000 1.0
C      1  0.5796340000000  0.5372230000000  0.5163690000000 1.0
C      1  0.5601460000000  0.4352850000000  0.5113080000000 1.0
C      1  0.5246580000000  0.4335930000000  0.5555610000000 1.0
C      1  0.5734640000000  0.5005620000000  0.5546420000000 1.0
C      1  0.5228360000000  0.5719430000000  0.5575570000000 1.0
C      1  0.4391770000000  0.5402660000000  0.5574270000000 1.0
C      1  0.4414600000000  0.4551540000000  0.5569300000000 1.0
C      1  0.4765690000000  0.4302300000000  0.4408370000000 1.0
C      1  0.4267020000000  0.5039850000000  0.4420350000000 1.0
C      1  0.4786900000000  0.5680440000000  0.4431200000000 1.0
C      1  0.5594730000000  0.5411240000000  0.4401470000000 1.0
C      1  0.5613440000000  0.4546960000000  0.4427710000000 1.0
C      1  0.4028990000000  0.4855120000000  0.5546500000000 1.0
C      1  0.4848470000000  0.4060400000000  0.5504670000000 1.0
C      1  0.5870830000000  0.4556150000000  0.5486110000000 1.0
C      1  0.5684200000000  0.5666440000000  0.5552800000000 1.0
C      1  0.4564460000000  0.5846330000000  0.5547070000000 1.0
C      1  0.5941100000000  0.4855750000000  0.4417800000000 1.0
C      1  0.5157830000000  0.4059260000000  0.4480730000000 1.0
C      1  0.4171530000000  0.4560820000000  0.4435180000000 1.0
C      1  0.4317720000000  0.5689330000000  0.4488290000000 1.0
C      1  0.5420160000000  0.5826600000000  0.4496900000000 1.0
C      1  0.5114700000000  0.5321650000000  0.5808560000000 1.0
C      1  0.4719300000000  0.5169520000000  0.5853350000000 1.0
C      1  0.4745570000000  0.4872390000000  0.5843340000000 1.0
C      1  0.5141430000000  0.4756900000000  0.5882990000000 1.0
C      1  0.5331510000000  0.4974410000000  0.5889680000000 1.0
C      1  0.4956230000000  0.5232660000000  0.4116300000000 1.0
C      1  0.5253980000000  0.5211600000000  0.4114040000000 1.0
C      1  0.5233170000000  0.4788630000000  0.4133060000000 1.0
C      1  0.4948710000000  0.4706870000000  0.4157580000000 1.0
C      1  0.4711350000000  0.5057800000000  0.4173550000000 1.0
C      1  0.4782330000000  0.5173280000000  0.5288230000000 1.0
C      1  0.4703610000000  0.4876350000000  0.5273860000000 1.0
C      1  0.4938190000000  0.4727950000000  0.5325870000000 1.0
C      1  0.5301130000000  0.4950350000000  0.5327860000000 1.0
C      1  0.5155190000000  0.5318960000000  0.5268110000000 1.0
C      1  0.5144410000000  0.5205230000000  0.4646830000000 1.0
C      1  0.5302920000000  0.4834040000000  0.4681460000000 1.0
C      1  0.4915200000000  0.4760350000000  0.4602700000000 1.0
C      1  0.4714390000000  0.4946400000000  0.4722140000000 1.0
C      1  0.4852370000000  0.5243280000000  0.4716420000000 1.0
C      1  0.4795540000000  0.4081310000000  0.5210520000000 1.0
C      1  0.5821410000000  0.4534580000000  0.5192850000000 1.0
C      1  0.5727330000000  0.5639810000000  0.5254220000000 1.0
C      1  0.4617570000000  0.5875760000000  0.5253830000000 1.0
C      1  0.4028140000000  0.4902830000000  0.5250650000000 1.0
C      1  0.5226570000000  0.4088960000000  0.4764650000000 1.0
C      1  0.4192760000000  0.4514840000000  0.4734150000000 1.0
C      1  0.4310030000000  0.5642770000000  0.4778140000000 1.0
C      1  0.5322450000000  0.5852400000000  0.4784500000000 1.0
C      1  0.5981310000000  0.4913390000000  0.4713480000000 1.0
C      1  0.4199220000000  0.5233860000000  0.5452600000000 1.0
C      1  0.4521470000000  0.4317010000000  0.5428700000000 1.0
C      1  0.5499910000000  0.4339470000000  0.5427450000000 1.0
C      1  0.5767410000000  0.5270860000000  0.5446600000000 1.0
C      1  0.4974890000000  0.5811820000000  0.5478120000000 1.0
C      1  0.5767530000000  0.5220820000000  0.4528190000000 1.0
C      1  0.5482550000000  0.4322910000000  0.4541600000000 1.0
C      1  0.4519680000000  0.4360510000000  0.4533370000000 1.0
C      1  0.4196240000000  0.5286730000000  0.4549950000000 1.0
C      1  0.5008970000000  0.5828900000000  0.4513570000000 1.0
C      1  0.4875220000000  0.4066500000000  0.4547280000000 1.0
C      1  0.5894420000000  0.4572720000000  0.4496410000000 1.0
C      1  0.5655180000000  0.5662250000000  0.4552020000000 1.0
C      1  0.4566890000000  0.5839430000000  0.4528860000000 1.0
C      1  0.4070020000000  0.4832490000000  0.4501410000000 1.0
C      1  0.5140030000000  0.4082110000000  0.5455980000000 1.0
C      1  0.4128200000000  0.4582100000000  0.5494590000000 1.0
C      1  0.4335470000000  0.5673820000000  0.5478050000000 1.0
C      1  0.5466130000000  0.5859330000000  0.5486770000000 1.0
C      1  0.5949130000000  0.4840730000000  0.5441770000000 1.0
C      1  0.5173490000000  0.5619350000000  0.4932270000000 1.0
C      1  0.4464980000000  0.5326590000000  0.4979530000000 1.0
C      1  0.4559960000000  0.4563450000000  0.4969390000000 1.0
C      1  0.5190540000000  0.4426230000000  0.5084910000000 1.0
C      1  0.5678080000000  0.5011310000000  0.4999760000000 1.0
C      1  0.4868840000000  0.5647600000000  0.4973720000000 1.0
C      1  0.5545780000000  0.5325920000000  0.5004130000000 1.0
C      1  0.5423230000000  0.4562500000000  0.5025430000000 1.0
C      1  0.4817230000000  0.4457280000000  0.4963160000000 1.0
C      1  0.4378100000000  0.5054780000000  0.5014580000000 1.0
C      1  0.5161370000000  0.4542850000000  0.4259060000000 1.0
C      1  0.5428490000000  0.4992210000000  0.4193510000000 1.0
C      1  0.5116600000000  0.5435470000000  0.4251430000000 1.0
C      1  0.4579960000000  0.5289850000000  0.4298390000000 1.0
C      1  0.4684130000000  0.4778080000000  0.4247500000000 1.0
C      1  0.4904640000000  0.4647670000000  0.5779790000000 1.0
C      1  0.4517730000000  0.5007050000000  0.5729430000000 1.0
C      1  0.4860380000000  0.5424930000000  0.5784110000000 1.0
C      1  0.5375740000000  0.5252450000000  0.5798900000000 1.0
C      1  0.5394060000000  0.4723120000000  0.5727760000000 1.0
C      1  0.4755300000000  0.5403130000000  0.4486920000000 1.0
C      1  0.4468240000000  0.4892440000000  0.4574010000000 1.0
C      1  0.4925490000000  0.4475370000000  0.4585850000000 1.0
C      1  0.5552780000000  0.4744330000000  0.4627640000000 1.0
C      1  0.5362780000000  0.5382510000000  0.4597760000000 1.0
C      1  0.5283710000000  0.5520960000000  0.5377320000000 1.0
C      1  0.5478790000000  0.4883980000000  0.5516090000000 1.0
C      1  0.4973490000000  0.4522150000000  0.5533990000000 1.0
C      1  0.4471850000000  0.4749900000000  0.5368840000000 1.0
C      1  0.4621780000000  0.5388780000000  0.5396170000000 1.0
C      1  0.5195740000000  0.5710270000000  0.4348270000000 1.0
C      1  0.4325880000000  0.5435610000000  0.4342470000000 1.0
C      1  0.4450650000000  0.4552480000000  0.4336120000000 1.0
C      1  0.5272500000000  0.4292370000000  0.4353160000000 1.0
C      1  0.5708250000000  0.5019230000000  0.4329670000000 1.0
C      1  0.4787560000000  0.5703600000000  0.5667200000000 1.0
C      1  0.5613510000000  0.5400680000000  0.5647880000000 1.0
C      1  0.5623440000000  0.4491470000000  0.5627120000000 1.0
C      1  0.4747350000000  0.4312010000000  0.5616180000000 1.0
C      1  0.4234190000000  0.5036930000000  0.5657820000000 1.0
C      1  0.4764710000000  0.5347450000000  0.4995110000000 1.0
C      1  0.5246750000000  0.5342970000000  0.5006200000000 1.0
C      1  0.5404570000000  0.4870340000000  0.5072450000000 1.0
C      1  0.5000670000000  0.4631360000000  0.5073030000000 1.0
C      1  0.4592330000000  0.4860630000000  0.4998600000000 1.0
C      1  0.5117250000000  0.4949670000000  0.4518120000000 1.0
C      1  0.5054000000000  0.5085120000000  0.5406880000000 1.0
C      1  0.5116660000000  0.4919480000000  0.4936130000000 1.0
END
