TITL C-2441157-2117-1286 0.0751383164211579 125000 -19823.1381462501 0 0 143 (C1) n - 1
REM
REM in /home/bkarasulu/work/CARBON/AIRSS/Generating-Clusters/ReaxFF-fromJPCA2015/Units_Real/with-SteepDescent/Higher-Symm
REM
REM
REM
REM
REM
REM ./C.cell (1df0a924f5614ab8850e4351716899ee)
REM
REM compiler GCC version 9.2.1 20190827 (Red Hat 9.2.1-1)
REM options -cpp -mtune=generic -march=x86-64 -g -O0 -fpre-include=/usr/include/finclude/math-vector-fortran.h
REM seed -271256211 527670599 -1581204650 1694062132 793650747 2036547005 -876823210 1845435659 1858209179 602882746 206058494 17899512 764765467 -1846168467 -753735715 -1033449218 -343608494 -1761257076 -909223693 55300649 1786176499 89821248 6716001 -721750683 -1501854500 -513389261 -1958377913 2054329067 -1934387116 -1373871609 1073753225 1902770173 -277344496
REM
CELL 1.54180   50.00000   50.00000   50.00000   90.00000   90.00000   90.00000
LATT -1
SFAC C  
C      1  0.4000700000000  0.5302420000000  0.4809710000000 1.0
C      1  0.4524420000000  0.5308000000000  0.5830870000000 1.0
C      1  0.5655920000000  0.5313130000000  0.5708220000000 1.0
C      1  0.5894740000000  0.5319320000000  0.4591060000000 1.0
C      1  0.4874820000000  0.5288210000000  0.4057290000000 1.0
C      1  0.4012030000000  0.4751760000000  0.4862900000000 1.0
C      1  0.4570140000000  0.4766580000000  0.5916460000000 1.0
C      1  0.5751690000000  0.4762580000000  0.5691620000000 1.0
C      1  0.5860820000000  0.4781450000000  0.4535050000000 1.0
C      1  0.4817620000000  0.4752180000000  0.4008040000000 1.0
C      1  0.4223370000000  0.4833030000000  0.5322400000000 1.0
C      1  0.5076640000000  0.4800280000000  0.5886390000000 1.0
C      1  0.5846180000000  0.4810710000000  0.5188380000000 1.0
C      1  0.5470550000000  0.4811990000000  0.4244920000000 1.0
C      1  0.4444550000000  0.4748160000000  0.4323580000000 1.0
C      1  0.4647550000000  0.4164870000000  0.4690920000000 1.0
C      1  0.4621170000000  0.4182030000000  0.5246650000000 1.0
C      1  0.5114580000000  0.4196200000000  0.5460990000000 1.0
C      1  0.5456310000000  0.4181930000000  0.5043270000000 1.0
C      1  0.5181800000000  0.4181110000000  0.4565170000000 1.0
C      1  0.5489470000000  0.5132400000000  0.5868360000000 1.0
C      1  0.5986600000000  0.5144570000000  0.4802950000000 1.0
C      1  0.5110690000000  0.5117800000000  0.4079610000000 1.0
C      1  0.4062930000000  0.5136190000000  0.4584930000000 1.0
C      1  0.4327220000000  0.5130950000000  0.5710020000000 1.0
C      1  0.5566730000000  0.4989160000000  0.4801070000000 1.0
C      1  0.4839370000000  0.4958570000000  0.4450830000000 1.0
C      1  0.4446350000000  0.5056660000000  0.4875330000000 1.0
C      1  0.4681840000000  0.5061660000000  0.5400980000000 1.0
C      1  0.5344630000000  0.4986630000000  0.5477640000000 1.0
C      1  0.4180640000000  0.4687610000000  0.4409850000000 1.0
C      1  0.4199410000000  0.4699810000000  0.5591280000000 1.0
C      1  0.5347880000000  0.4695170000000  0.5965650000000 1.0
C      1  0.6020900000000  0.4691510000000  0.4972310000000 1.0
C      1  0.5306040000000  0.4693390000000  0.4022090000000 1.0
C      1  0.4779690000000  0.4474220000000  0.5597440000000 1.0
C      1  0.5466450000000  0.4497260000000  0.5386640000000 1.0
C      1  0.5502840000000  0.4505130000000  0.4681030000000 1.0
C      1  0.4873340000000  0.4469960000000  0.4378620000000 1.0
C      1  0.4352720000000  0.4416420000000  0.4971580000000 1.0
C      1  0.4025080000000  0.5210670000000  0.5082130000000 1.0
C      1  0.4785860000000  0.5215410000000  0.5909560000000 1.0
C      1  0.5809000000000  0.5218690000000  0.5481920000000 1.0
C      1  0.5732560000000  0.5229650000000  0.4373910000000 1.0
C      1  0.4610630000000  0.5221860000000  0.4148920000000 1.0
C      1  0.5133840000000  0.4854010000000  0.4706590000000 1.0
C      1  0.4704660000000  0.4651040000000  0.4759740000000 1.0
C      1  0.4714650000000  0.4645210000000  0.5161050000000 1.0
C      1  0.5019330000000  0.4791440000000  0.5372630000000 1.0
C      1  0.5215860000000  0.4773930000000  0.4996290000000 1.0
C      1  0.5311520000000  0.5109290000000  0.4293640000000 1.0
C      1  0.4351690000000  0.5197830000000  0.4618270000000 1.0
C      1  0.4351470000000  0.5110920000000  0.5414450000000 1.0
C      1  0.5225670000000  0.5085120000000  0.5742820000000 1.0
C      1  0.5764890000000  0.5090320000000  0.4997630000000 1.0
C      1  0.5311510000000  0.5081820000000  0.4633880000000 1.0
C      1  0.4837940000000  0.5137760000000  0.4684190000000 1.0
C      1  0.4645570000000  0.5193700000000  0.5085700000000 1.0
C      1  0.4963960000000  0.5070530000000  0.5369580000000 1.0
C      1  0.5316890000000  0.5010880000000  0.5194310000000 1.0
C      1  0.4736680000000  0.5751930000000  0.4994270000000 1.0
C      1  0.4926720000000  0.5800630000000  0.5252010000000 1.0
C      1  0.5207410000000  0.5864160000000  0.5143620000000 1.0
C      1  0.5203470000000  0.5866500000000  0.4857930000000 1.0
C      1  0.4928520000000  0.5863420000000  0.4769340000000 1.0
C      1  0.4626570000000  0.5479070000000  0.5036580000000 1.0
C      1  0.4974790000000  0.5507090000000  0.5272330000000 1.0
C      1  0.5340690000000  0.5277130000000  0.5131070000000 1.0
C      1  0.5208840000000  0.5355140000000  0.4704760000000 1.0
C      1  0.4936670000000  0.5393800000000  0.4629040000000 1.0
C      1  0.4517930000000  0.5758480000000  0.5519120000000 1.0
C      1  0.5336830000000  0.5749640000000  0.5588760000000 1.0
C      1  0.5683940000000  0.5761250000000  0.4841390000000 1.0
C      1  0.5152530000000  0.5809440000000  0.4411480000000 1.0
C      1  0.4391960000000  0.5804320000000  0.4667900000000 1.0
C      1  0.5848660000000  0.4939440000000  0.5476380000000 1.0
C      1  0.5727940000000  0.4947220000000  0.4342650000000 1.0
C      1  0.4628270000000  0.4926790000000  0.4188600000000 1.0
C      1  0.4035230000000  0.4923340000000  0.5100530000000 1.0
C      1  0.4805260000000  0.4935910000000  0.5952510000000 1.0
C      1  0.4409790000000  0.4345190000000  0.5364600000000 1.0
C      1  0.5171560000000  0.4322970000000  0.5717330000000 1.0
C      1  0.5716440000000  0.4335590000000  0.5057660000000 1.0
C      1  0.5289610000000  0.4340090000000  0.4333560000000 1.0
C      1  0.4458590000000  0.4303270000000  0.4518910000000 1.0
C      1  0.4984990000000  0.4526210000000  0.5787280000000 1.0
C      1  0.5682550000000  0.4564390000000  0.5209010000000 1.0
C      1  0.5438630000000  0.4564040000000  0.4409030000000 1.0
C      1  0.4600110000000  0.4545220000000  0.4454840000000 1.0
C      1  0.4422140000000  0.4583610000000  0.5182500000000 1.0
C      1  0.5036270000000  0.5350090000000  0.5775400000000 1.0
C      1  0.5760510000000  0.5364940000000  0.5200590000000 1.0
C      1  0.5458000000000  0.5378000000000  0.4331380000000 1.0
C      1  0.4507220000000  0.5384670000000  0.4369050000000 1.0
C      1  0.4229740000000  0.5364800000000  0.5259700000000 1.0
C      1  0.6048330000000  0.4867550000000  0.4743810000000 1.0
C      1  0.5078950000000  0.4858330000000  0.3949770000000 1.0
C      1  0.4012960000000  0.4853150000000  0.4588270000000 1.0
C      1  0.4311980000000  0.4859490000000  0.5806310000000 1.0
C      1  0.5578980000000  0.4861740000000  0.5914190000000 1.0
C      1  0.4365990000000  0.5535080000000  0.4999940000000 1.0
C      1  0.4903680000000  0.5497720000000  0.5542720000000 1.0
C      1  0.5504540000000  0.5472890000000  0.5241030000000 1.0
C      1  0.5406350000000  0.5502640000000  0.4600290000000 1.0
C      1  0.4804330000000  0.5537950000000  0.4417330000000 1.0
C      1  0.5480320000000  0.4731990000000  0.4883490000000 1.0
C      1  0.5001650000000  0.4743470000000  0.4478610000000 1.0
C      1  0.4570120000000  0.4855030000000  0.4813840000000 1.0
C      1  0.4757330000000  0.4733540000000  0.5418130000000 1.0
C      1  0.5273050000000  0.4712440000000  0.5462430000000 1.0
C      1  0.5830770000000  0.5589520000000  0.5026640000000 1.0
C      1  0.5243430000000  0.5608800000000  0.4237420000000 1.0
C      1  0.4346310000000  0.5612100000000  0.4479760000000 1.0
C      1  0.4294670000000  0.5588030000000  0.5442040000000 1.0
C      1  0.5213120000000  0.5582860000000  0.5796620000000 1.0
C      1  0.4573560000000  0.4502180000000  0.5796620000000 1.0
C      1  0.5624460000000  0.4508950000000  0.5649670000000 1.0
C      1  0.5786970000000  0.4515360000000  0.4614710000000 1.0
C      1  0.4897000000000  0.4493020000000  0.4085090000000 1.0
C      1  0.4135480000000  0.4491250000000  0.4818340000000 1.0
C      1  0.5181140000000  0.4441150000000  0.4082910000000 1.0
C      1  0.4203360000000  0.4429950000000  0.4546090000000 1.0
C      1  0.4342840000000  0.4450760000000  0.5624110000000 1.0
C      1  0.5413600000000  0.4444960000000  0.5833090000000 1.0
C      1  0.5908390000000  0.4447730000000  0.4866880000000 1.0
C      1  0.5735390000000  0.5491470000000  0.4777360000000 1.0
C      1  0.4973040000000  0.5524800000000  0.4177570000000 1.0
C      1  0.4257570000000  0.5440790000000  0.4743830000000 1.0
C      1  0.4448380000000  0.5537950000000  0.5666970000000 1.0
C      1  0.5461720000000  0.5528120000000  0.5697730000000 1.0
C      1  0.4550330000000  0.4209480000000  0.4961830000000 1.0
C      1  0.4844200000000  0.4235570000000  0.5415760000000 1.0
C      1  0.5326310000000  0.4246090000000  0.5292100000000 1.0
C      1  0.5363930000000  0.4235930000000  0.4779800000000 1.0
C      1  0.4899150000000  0.4231140000000  0.4564010000000 1.0
C      1  0.4880080000000  0.5827570000000  0.4490230000000 1.0
C      1  0.4437190000000  0.5823890000000  0.4941800000000 1.0
C      1  0.4804800000000  0.5770790000000  0.5527500000000 1.0
C      1  0.5407450000000  0.5743960000000  0.5308430000000 1.0
C      1  0.5432890000000  0.5768910000000  0.4693050000000 1.0
C      1  0.4902870000000  0.5114000000000  0.4969120000000 1.0
C      1  0.4915560000000  0.4632430000000  0.4963940000000 1.0
C      1  0.5071680000000  0.5334750000000  0.5067060000000 1.0
END
