TITL C-2441166-8118-1405 0.000657171243537849 125000 -7520.45444618358 0 0 55 (C1) n - 1
REM
REM in /home/bkarasulu/work/CARBON/AIRSS/Generating-Clusters/ReaxFF-fromJPCA2015/Units_Real/with-SteepDescent/Higher-Symm
REM
REM
REM
REM
REM
REM ./C.cell (1df0a924f5614ab8850e4351716899ee)
REM
REM compiler GCC version 9.2.1 20190827 (Red Hat 9.2.1-1)
REM options -cpp -mtune=generic -march=x86-64 -g -O0 -fpre-include=/usr/include/finclude/math-vector-fortran.h
REM seed 112852445 -1794050736 -1872579761 1114131462 -67864160 -70187836 884357225 2050205 727426594 -1816406630 -146589921 -1288960541 -565805175 1021233780 -1251244410 692187401 -1052080901 1912407082 1249277343 215538435 1552509011 1968314819 1927582577 -567023852 458562360 -420936771 -1107148823 1167470927 -136529712 -2029956713 -1748428719 -537794065 1621562328
REM
CELL 1.54180   50.00000   50.00000   50.00000   90.00000   90.00000   90.00000
LATT -1
SFAC C  
C      1  0.4673280000000  0.4975500000000  0.5365330000000 1.0
C      1  0.4671030000000  0.5342290000000  0.5138800000000 1.0
C      1  0.4673230000000  0.5236810000000  0.4719480000000 1.0
C      1  0.4673560000000  0.4812600000000  0.4702940000000 1.0
C      1  0.4662250000000  0.4639620000000  0.5097540000000 1.0
C      1  0.4819180000000  0.4316300000000  0.4837730000000 1.0
C      1  0.4840480000000  0.4652310000000  0.5609010000000 1.0
C      1  0.4835960000000  0.5462980000000  0.5527140000000 1.0
C      1  0.4840560000000  0.5640330000000  0.4711950000000 1.0
C      1  0.4843470000000  0.4921710000000  0.4317160000000 1.0
C      1  0.4481960000000  0.5174660000000  0.4544500000000 1.0
C      1  0.4536410000000  0.4572720000000  0.4676630000000 1.0
C      1  0.4477590000000  0.4589020000000  0.5279950000000 1.0
C      1  0.4483850000000  0.5128370000000  0.5474580000000 1.0
C      1  0.4483420000000  0.5492140000000  0.5026140000000 1.0
C      1  0.4545490000000  0.4420620000000  0.4919040000000 1.0
C      1  0.4555740000000  0.4735200000000  0.5512480000000 1.0
C      1  0.4553440000000  0.5398100000000  0.5413090000000 1.0
C      1  0.4556870000000  0.5515480000000  0.4751570000000 1.0
C      1  0.4565090000000  0.4920730000000  0.4442140000000 1.0
C      1  0.5432560000000  0.4722240000000  0.4636200000000 1.0
C      1  0.5435450000000  0.4570720000000  0.5163400000000 1.0
C      1  0.5443360000000  0.5020010000000  0.5460580000000 1.0
C      1  0.5442310000000  0.5444630000000  0.5119850000000 1.0
C      1  0.5445640000000  0.5254390000000  0.4615730000000 1.0
C      1  0.5202820000000  0.4833040000000  0.4812300000000 1.0
C      1  0.5207540000000  0.4775720000000  0.5104060000000 1.0
C      1  0.5208880000000  0.5026240000000  0.5251050000000 1.0
C      1  0.5210990000000  0.5248500000000  0.5053740000000 1.0
C      1  0.5209120000000  0.5133010000000  0.4782000000000 1.0
C      1  0.5643800000000  0.4856730000000  0.4792600000000 1.0
C      1  0.5640770000000  0.4759030000000  0.5069850000000 1.0
C      1  0.5645350000000  0.4991550000000  0.5248730000000 1.0
C      1  0.5644830000000  0.5233670000000  0.5083690000000 1.0
C      1  0.5646440000000  0.5150090000000  0.4803480000000 1.0
C      1  0.4966510000000  0.5223370000000  0.5628580000000 1.0
C      1  0.4968530000000  0.5664910000000  0.4967710000000 1.0
C      1  0.4968120000000  0.5178960000000  0.4361100000000 1.0
C      1  0.4937190000000  0.4472870000000  0.4608760000000 1.0
C      1  0.4967620000000  0.4481930000000  0.5414850000000 1.0
C      1  0.4992180000000  0.4659040000000  0.4366320000000 1.0
C      1  0.4984900000000  0.4281460000000  0.5078600000000 1.0
C      1  0.4990450000000  0.4884750000000  0.5721220000000 1.0
C      1  0.4990640000000  0.5639090000000  0.5351490000000 1.0
C      1  0.4990420000000  0.5519140000000  0.4485750000000 1.0
C      1  0.4950420000000  0.5387030000000  0.5035280000000 1.0
C      1  0.4950420000000  0.5149540000000  0.4646680000000 1.0
C      1  0.4941290000000  0.4716230000000  0.4763270000000 1.0
C      1  0.4944880000000  0.4668340000000  0.5199220000000 1.0
C      1  0.4948060000000  0.5092720000000  0.5373330000000 1.0
C      1  0.5291640000000  0.4692030000000  0.4378540000000 1.0
C      1  0.5239310000000  0.4370360000000  0.5139940000000 1.0
C      1  0.5251180000000  0.4931520000000  0.5641690000000 1.0
C      1  0.5243780000000  0.5590260000000  0.5253700000000 1.0
C      1  0.5249720000000  0.5429410000000  0.4519500000000 1.0
END
