TITL C-2441157-2117-1470 0.10994449936868 125000 -18261.2905361236 0 0 142 (C1) n - 1
REM
REM in /home/bkarasulu/work/CARBON/AIRSS/Generating-Clusters/ReaxFF-fromJPCA2015/Units_Real/with-SteepDescent/Higher-Symm
REM
REM
REM
REM
REM
REM ./C.cell (1df0a924f5614ab8850e4351716899ee)
REM
REM compiler GCC version 9.2.1 20190827 (Red Hat 9.2.1-1)
REM options -cpp -mtune=generic -march=x86-64 -g -O0 -fpre-include=/usr/include/finclude/math-vector-fortran.h
REM seed -1564489919 1047276701 -1260912762 -1032599733 -675601137 -754479200 -769739973 785406023 516776920 -2106957407 -1668896496 -711756530 -1660878450 -1191795395 -635977000 2068665300 -1795386857 23010325 -1049588767 -1815917100 992501125 2144489750 -2086850002 -1293315264 922270975 848284785 -474618881 -1687444276 888914126 1101110426 215952672 -936459046 44354757
REM
CELL 1.54180   50.00000   50.00000   50.00000   90.00000   90.00000   90.00000
LATT -1
SFAC C  
C      1  0.5144000000000  0.4781030000000  0.5838020000000 1.0
C      1  0.4848660000000  0.4791370000000  0.5847560000000 1.0
C      1  0.4002700000000  0.4769030000000  0.5004990000000 1.0
C      1  0.6024210000000  0.4773570000000  0.5004210000000 1.0
C      1  0.4719560000000  0.5880370000000  0.5395120000000 1.0
C      1  0.5291960000000  0.5887010000000  0.5392050000000 1.0
C      1  0.5617140000000  0.4976940000000  0.4997750000000 1.0
C      1  0.4403440000000  0.4980280000000  0.4978560000000 1.0
C      1  0.5776650000000  0.4572850000000  0.4671120000000 1.0
C      1  0.4249450000000  0.4579530000000  0.4701290000000 1.0
C      1  0.4055770000000  0.4700810000000  0.5296230000000 1.0
C      1  0.5957260000000  0.4695050000000  0.5317160000000 1.0
C      1  0.4375120000000  0.4322150000000  0.4701020000000 1.0
C      1  0.5618010000000  0.4327510000000  0.4699990000000 1.0
C      1  0.5142480000000  0.5225660000000  0.5497470000000 1.0
C      1  0.4868630000000  0.5237170000000  0.5503720000000 1.0
C      1  0.4710680000000  0.4467190000000  0.4387140000000 1.0
C      1  0.5266040000000  0.4532730000000  0.4438920000000 1.0
C      1  0.5147970000000  0.5959160000000  0.5153480000000 1.0
C      1  0.4864800000000  0.5926680000000  0.5152880000000 1.0
C      1  0.5572060000000  0.5101480000000  0.5960080000000 1.0
C      1  0.4427010000000  0.5116830000000  0.5975050000000 1.0
C      1  0.5217020000000  0.4958960000000  0.5143210000000 1.0
C      1  0.4771570000000  0.4942600000000  0.5173580000000 1.0
C      1  0.5129050000000  0.4736320000000  0.4902410000000 1.0
C      1  0.4843890000000  0.4806100000000  0.4933220000000 1.0
C      1  0.5111160000000  0.4495740000000  0.4681720000000 1.0
C      1  0.4822580000000  0.4440050000000  0.4638570000000 1.0
C      1  0.5222560000000  0.4926160000000  0.4698710000000 1.0
C      1  0.4780570000000  0.4950270000000  0.4684700000000 1.0
C      1  0.5467430000000  0.5474250000000  0.5675680000000 1.0
C      1  0.4516510000000  0.5479210000000  0.5663370000000 1.0
C      1  0.5497170000000  0.4349180000000  0.4431770000000 1.0
C      1  0.4446310000000  0.4365840000000  0.4417870000000 1.0
C      1  0.5734720000000  0.5419260000000  0.5233970000000 1.0
C      1  0.4239740000000  0.5416180000000  0.5252940000000 1.0
C      1  0.4198930000000  0.5403250000000  0.4553800000000 1.0
C      1  0.5872630000000  0.5412540000000  0.4613470000000 1.0
C      1  0.4441760000000  0.5176530000000  0.4252790000000 1.0
C      1  0.5545130000000  0.5311240000000  0.4300990000000 1.0
C      1  0.4732760000000  0.5195280000000  0.4238660000000 1.0
C      1  0.5267140000000  0.5191240000000  0.4268070000000 1.0
C      1  0.4433710000000  0.5527830000000  0.4911420000000 1.0
C      1  0.5486720000000  0.5539000000000  0.4886080000000 1.0
C      1  0.5686480000000  0.4545500000000  0.4338130000000 1.0
C      1  0.4281260000000  0.4591280000000  0.4346190000000 1.0
C      1  0.4198040000000  0.5091500000000  0.5538180000000 1.0
C      1  0.5787580000000  0.5081670000000  0.5527450000000 1.0
C      1  0.4855540000000  0.4142870000000  0.5488810000000 1.0
C      1  0.5146500000000  0.4153380000000  0.5500090000000 1.0
C      1  0.4857080000000  0.4572230000000  0.5440170000000 1.0
C      1  0.5127400000000  0.4563890000000  0.5371960000000 1.0
C      1  0.5124190000000  0.5847280000000  0.4655690000000 1.0
C      1  0.4840230000000  0.5811300000000  0.4678190000000 1.0
C      1  0.5816020000000  0.4771470000000  0.5561910000000 1.0
C      1  0.4184430000000  0.4776650000000  0.5551120000000 1.0
C      1  0.4421390000000  0.4604730000000  0.5602970000000 1.0
C      1  0.5573860000000  0.4600240000000  0.5614530000000 1.0
C      1  0.5123330000000  0.4853760000000  0.5396510000000 1.0
C      1  0.4856030000000  0.4861210000000  0.5421360000000 1.0
C      1  0.5970890000000  0.5376680000000  0.5085790000000 1.0
C      1  0.4049940000000  0.5379560000000  0.5057750000000 1.0
C      1  0.4197640000000  0.4460740000000  0.5213940000000 1.0
C      1  0.5831170000000  0.4460070000000  0.5213650000000 1.0
C      1  0.5323010000000  0.5027080000000  0.5779810000000 1.0
C      1  0.4679370000000  0.5044300000000  0.5790720000000 1.0
C      1  0.4865030000000  0.5050920000000  0.4016860000000 1.0
C      1  0.5161230000000  0.5058710000000  0.4026240000000 1.0
C      1  0.4598100000000  0.4459350000000  0.4856200000000 1.0
C      1  0.5473920000000  0.4449430000000  0.4914670000000 1.0
C      1  0.5574150000000  0.4710320000000  0.4844640000000 1.0
C      1  0.4450980000000  0.4727850000000  0.4849830000000 1.0
C      1  0.5148940000000  0.4964450000000  0.4431330000000 1.0
C      1  0.4868630000000  0.4956370000000  0.4411820000000 1.0
C      1  0.5558350000000  0.4509870000000  0.5341830000000 1.0
C      1  0.4456030000000  0.4455990000000  0.5357070000000 1.0
C      1  0.5485150000000  0.5227220000000  0.4902010000000 1.0
C      1  0.4551640000000  0.5257880000000  0.4916290000000 1.0
C      1  0.5991240000000  0.4975410000000  0.4790140000000 1.0
C      1  0.4048940000000  0.4978160000000  0.4780340000000 1.0
C      1  0.4724050000000  0.4260020000000  0.5032730000000 1.0
C      1  0.5290750000000  0.4276420000000  0.5041950000000 1.0
C      1  0.4686680000000  0.5639140000000  0.4505060000000 1.0
C      1  0.5234670000000  0.5651240000000  0.4470470000000 1.0
C      1  0.4487380000000  0.5045570000000  0.5508520000000 1.0
C      1  0.5501160000000  0.5027810000000  0.5493710000000 1.0
C      1  0.5826720000000  0.5241650000000  0.4378770000000 1.0
C      1  0.4162720000000  0.5207620000000  0.4338960000000 1.0
C      1  0.4466920000000  0.5789030000000  0.5010600000000 1.0
C      1  0.5597530000000  0.5758290000000  0.5025540000000 1.0
C      1  0.4321410000000  0.5741150000000  0.4760350000000 1.0
C      1  0.5677320000000  0.5625440000000  0.4658840000000 1.0
C      1  0.5149430000000  0.4315600000000  0.5736190000000 1.0
C      1  0.4842830000000  0.4345730000000  0.5711300000000 1.0
C      1  0.4860040000000  0.5289190000000  0.5790250000000 1.0
C      1  0.5166200000000  0.5293190000000  0.5778390000000 1.0
C      1  0.4090470000000  0.4502270000000  0.4934240000000 1.0
C      1  0.5942060000000  0.4513010000000  0.4940800000000 1.0
C      1  0.5325830000000  0.4301630000000  0.5313080000000 1.0
C      1  0.4645970000000  0.4234130000000  0.5301030000000 1.0
C      1  0.5237130000000  0.5419650000000  0.5300090000000 1.0
C      1  0.4743420000000  0.5440830000000  0.5340570000000 1.0
C      1  0.6004010000000  0.5262650000000  0.4823990000000 1.0
C      1  0.4074130000000  0.5271440000000  0.4789480000000 1.0
C      1  0.5511460000000  0.5576200000000  0.4419920000000 1.0
C      1  0.4397700000000  0.5617610000000  0.4512280000000 1.0
C      1  0.5845060000000  0.5151380000000  0.5216300000000 1.0
C      1  0.4072930000000  0.5206010000000  0.5287250000000 1.0
C      1  0.4153080000000  0.4951140000000  0.4500700000000 1.0
C      1  0.5863030000000  0.4976310000000  0.4519710000000 1.0
C      1  0.4859850000000  0.4573780000000  0.4172920000000 1.0
C      1  0.5144950000000  0.4599740000000  0.4186580000000 1.0
C      1  0.4883290000000  0.4146050000000  0.4614460000000 1.0
C      1  0.5173490000000  0.4179440000000  0.4627470000000 1.0
C      1  0.5117970000000  0.5402180000000  0.4568030000000 1.0
C      1  0.4826080000000  0.5389560000000  0.4557340000000 1.0
C      1  0.5567720000000  0.5834690000000  0.5292630000000 1.0
C      1  0.4458010000000  0.5822600000000  0.5295980000000 1.0
C      1  0.4370490000000  0.5593560000000  0.5441140000000 1.0
C      1  0.5627880000000  0.5581540000000  0.5456410000000 1.0
C      1  0.5316170000000  0.4557130000000  0.5773780000000 1.0
C      1  0.4657930000000  0.4577440000000  0.5793660000000 1.0
C      1  0.4673030000000  0.5198630000000  0.4685750000000 1.0
C      1  0.5281380000000  0.5203680000000  0.4729990000000 1.0
C      1  0.4715480000000  0.4796590000000  0.4069610000000 1.0
C      1  0.5296520000000  0.4801980000000  0.4050710000000 1.0
C      1  0.5597850000000  0.4922220000000  0.4426230000000 1.0
C      1  0.4445050000000  0.4943170000000  0.4438330000000 1.0
C      1  0.5484090000000  0.4873130000000  0.5244290000000 1.0
C      1  0.4509070000000  0.4934210000000  0.5247740000000 1.0
C      1  0.5153210000000  0.5645770000000  0.5482780000000 1.0
C      1  0.4852940000000  0.5652370000000  0.5512330000000 1.0
C      1  0.5168330000000  0.5759550000000  0.4936170000000 1.0
C      1  0.4874770000000  0.5697770000000  0.4956730000000 1.0
C      1  0.5169360000000  0.4056430000000  0.4896510000000 1.0
C      1  0.4871710000000  0.4052010000000  0.4888360000000 1.0
C      1  0.5677290000000  0.5295420000000  0.5769860000000 1.0
C      1  0.4317650000000  0.5304740000000  0.5785610000000 1.0
C      1  0.4841790000000  0.5371160000000  0.5066900000000 1.0
C      1  0.5109680000000  0.5250060000000  0.5102890000000 1.0
C      1  0.5562980000000  0.4764120000000  0.4187880000000 1.0
C      1  0.4465500000000  0.4767180000000  0.4214800000000 1.0
END
