TITL C-2441168-9922-220 0.00924850420643976 125000 -9885.63328157612 0 0 69 (C3) n - 1
REM
REM in /home/bkarasulu/work/CARBON/AIRSS/Generating-Clusters/ReaxFF-fromJPCA2015/Units_Real/with-SteepDescent/Higher-Symm
REM
REM
REM
REM
REM
REM ./C.cell (1df0a924f5614ab8850e4351716899ee)
REM
REM compiler GCC version 9.2.1 20190827 (Red Hat 9.2.1-1)
REM options -cpp -mtune=generic -march=x86-64 -g -O0 -fpre-include=/usr/include/finclude/math-vector-fortran.h
REM seed 1197438890 273094218 -1232156415 -452539563 -1431694621 -255412682 1232174535 776717303 -805224874 345394969 998926161 1261721572 2066833380 371359842 -451472780 1761150648 -1226647206 665620297 -2035424204 90177677 1590351896 959607733 1390305092 647422484 1106304066 771079776 -1823848990 1710457573 -580752366 -1278105787 -138592872 469061655 1129548939
REM
CELL 1.54180   50.00000   50.00000   50.00000   90.00000   90.00000   90.00000
LATT -1
SFAC C  
C      1  0.5547290000000  0.5086240000000  0.4572810000000 1.0
C      1  0.5546060000000  0.4587420000000  0.5139880000000 1.0
C      1  0.5545610000000  0.5327250000000  0.5287630000000 1.0
C      1  0.5441670000000  0.4630780000000  0.4512020000000 1.0
C      1  0.5442590000000  0.4760300000000  0.5567310000000 1.0
C      1  0.5442900000000  0.5611880000000  0.4923510000000 1.0
C      1  0.4820880000000  0.4776880000000  0.5249110000000 1.0
C      1  0.4821470000000  0.5327480000000  0.5066220000000 1.0
C      1  0.4817940000000  0.4894860000000  0.4684330000000 1.0
C      1  0.4519410000000  0.5368610000000  0.5468460000000 1.0
C      1  0.4518150000000  0.5221290000000  0.4447320000000 1.0
C      1  0.4518990000000  0.4410640000000  0.5083650000000 1.0
C      1  0.4711740000000  0.4743170000000  0.5543490000000 1.0
C      1  0.4711610000000  0.5598950000000  0.4948870000000 1.0
C      1  0.4709970000000  0.4656320000000  0.4507070000000 1.0
C      1  0.5203470000000  0.4269630000000  0.4856260000000 1.0
C      1  0.5203390000000  0.5240420000000  0.5704550000000 1.0
C      1  0.5204310000000  0.5489800000000  0.4438970000000 1.0
C      1  0.4636570000000  0.5626730000000  0.5381400000000 1.0
C      1  0.4635580000000  0.5016900000000  0.4267710000000 1.0
C      1  0.4636530000000  0.4356540000000  0.5350510000000 1.0
C      1  0.4944020000000  0.5649240000000  0.5415010000000 1.0
C      1  0.4943130000000  0.5034790000000  0.4231050000000 1.0
C      1  0.4944430000000  0.4315890000000  0.5353720000000 1.0
C      1  0.5185440000000  0.5751170000000  0.4904070000000 1.0
C      1  0.5185780000000  0.4542640000000  0.4398630000000 1.0
C      1  0.5185620000000  0.4706820000000  0.5698400000000 1.0
C      1  0.5070440000000  0.4971810000000  0.5758920000000 1.0
C      1  0.5070870000000  0.5671050000000  0.4643970000000 1.0
C      1  0.5070530000000  0.4356240000000  0.4596200000000 1.0
C      1  0.4919650000000  0.4597130000000  0.5027560000000 1.0
C      1  0.4920400000000  0.5223560000000  0.5332190000000 1.0
C      1  0.4919640000000  0.5175480000000  0.4639400000000 1.0
C      1  0.5692590000000  0.4842310000000  0.5063710000000 1.0
C      1  0.5692760000000  0.5133840000000  0.5105380000000 1.0
C      1  0.5693060000000  0.5024180000000  0.4832190000000 1.0
C      1  0.4747190000000  0.5383410000000  0.4525890000000 1.0
C      1  0.4747230000000  0.4395050000000  0.4903280000000 1.0
C      1  0.4747410000000  0.5217680000000  0.5569030000000 1.0
C      1  0.4513340000000  0.5262910000000  0.5202200000000 1.0
C      1  0.4511270000000  0.5044200000000  0.4672640000000 1.0
C      1  0.4513610000000  0.4694300000000  0.5124810000000 1.0
C      1  0.4286420000000  0.5126240000000  0.5106860000000 1.0
C      1  0.4284880000000  0.5029450000000  0.4839650000000 1.0
C      1  0.4286400000000  0.4846380000000  0.5056960000000 1.0
C      1  0.5069850000000  0.5298800000000  0.4257600000000 1.0
C      1  0.5069910000000  0.4206840000000  0.5111970000000 1.0
C      1  0.5069210000000  0.5492880000000  0.5629830000000 1.0
C      1  0.4512250000000  0.5733240000000  0.5122510000000 1.0
C      1  0.4510460000000  0.4739540000000  0.4304290000000 1.0
C      1  0.4510990000000  0.4526790000000  0.5572120000000 1.0
C      1  0.5424660000000  0.4892540000000  0.4382350000000 1.0
C      1  0.5425290000000  0.4518090000000  0.5403790000000 1.0
C      1  0.5424650000000  0.5590000000000  0.5214880000000 1.0
C      1  0.5145220000000  0.4477670000000  0.5499870000000 1.0
C      1  0.5144710000000  0.5693080000000  0.5201650000000 1.0
C      1  0.5144690000000  0.4829050000000  0.4299080000000 1.0
C      1  0.5433470000000  0.5352370000000  0.4566030000000 1.0
C      1  0.5430300000000  0.4450880000000  0.4912680000000 1.0
C      1  0.5431610000000  0.5199190000000  0.5520780000000 1.0
C      1  0.4784350000000  0.4389080000000  0.4613450000000 1.0
C      1  0.4784530000000  0.4970430000000  0.5720590000000 1.0
C      1  0.4784960000000  0.5638480000000  0.4663550000000 1.0
C      1  0.5058740000000  0.5252070000000  0.4879700000000 1.0
C      1  0.5055600000000  0.4770900000000  0.4842700000000 1.0
C      1  0.5058220000000  0.4977050000000  0.5277000000000 1.0
C      1  0.5336430000000  0.4701100000000  0.4787490000000 1.0
C      1  0.5338580000000  0.4964250000000  0.5368090000000 1.0
C      1  0.5339080000000  0.5337770000000  0.4845170000000 1.0
END
