TITL C-2441154-10-981 0.0469700657825964 125000 -11459.7453644762 0 0 85 (C1) n - 1
REM
REM in /home/bkarasulu/work/CARBON/AIRSS/Generating-Clusters/ReaxFF-fromJPCA2015/Units_Real/with-SteepDescent/Higher-Symm
REM
REM
REM
REM
REM
REM ./C.cell (1df0a924f5614ab8850e4351716899ee)
REM
REM compiler GCC version 9.2.1 20190827 (Red Hat 9.2.1-1)
REM options -cpp -mtune=generic -march=x86-64 -g -O0 -fpre-include=/usr/include/finclude/math-vector-fortran.h
REM seed -2099295091 -2105413264 1315602467 2084316693 1557156707 -2012708099 -59644153 -105312064 2009431383 -564102186 -895335427 517903809 1254209792 353814045 2148076 1448108662 -1462790030 -99092768 1430514701 2100112532 -1409443767 1867493426 -2102310862 1742753881 380985916 -1755680550 -790522733 720686679 511785202 822703122 1668235430 -357366994 84186053
REM
CELL 1.54180   50.00000   50.00000   50.00000   90.00000   90.00000   90.00000
LATT -1
SFAC C  
C      1  0.5006420000000  0.4471100000000  0.4387080000000 1.0
C      1  0.5069410000000  0.5149200000000  0.4245110000000 1.0
C      1  0.4933610000000  0.5677060000000  0.4600250000000 1.0
C      1  0.5043410000000  0.5707980000000  0.5281480000000 1.0
C      1  0.5030920000000  0.5204650000000  0.5735270000000 1.0
C      1  0.5012920000000  0.4529810000000  0.5645010000000 1.0
C      1  0.5053970000000  0.4214720000000  0.5018440000000 1.0
C      1  0.5261960000000  0.4788600000000  0.4352190000000 1.0
C      1  0.5289550000000  0.5522300000000  0.4439630000000 1.0
C      1  0.5268160000000  0.5728540000000  0.4928090000000 1.0
C      1  0.5267740000000  0.5504570000000  0.5573390000000 1.0
C      1  0.5281580000000  0.4831180000000  0.5743910000000 1.0
C      1  0.5259620000000  0.4399520000000  0.5342500000000 1.0
C      1  0.5295490000000  0.4301170000000  0.4634560000000 1.0
C      1  0.5100570000000  0.5367360000000  0.4986510000000 1.0
C      1  0.5089150000000  0.5244060000000  0.5253510000000 1.0
C      1  0.5119920000000  0.4957470000000  0.5265920000000 1.0
C      1  0.5121850000000  0.4605810000000  0.5205840000000 1.0
C      1  0.5114760000000  0.4720980000000  0.4814020000000 1.0
C      1  0.5202330000000  0.4895810000000  0.4604160000000 1.0
C      1  0.5125460000000  0.5148840000000  0.4765530000000 1.0
C      1  0.4830670000000  0.5612470000000  0.5466010000000 1.0
C      1  0.4827120000000  0.4999990000000  0.5774970000000 1.0
C      1  0.4834130000000  0.4380190000000  0.5480430000000 1.0
C      1  0.4836430000000  0.4231920000000  0.4821560000000 1.0
C      1  0.4841840000000  0.4666090000000  0.4272890000000 1.0
C      1  0.4844070000000  0.5323920000000  0.4281110000000 1.0
C      1  0.4784900000000  0.5768690000000  0.4811090000000 1.0
C      1  0.4461530000000  0.4444930000000  0.5117590000000 1.0
C      1  0.4456470000000  0.4558790000000  0.4643820000000 1.0
C      1  0.4451550000000  0.5039070000000  0.4424440000000 1.0
C      1  0.4463770000000  0.5479920000000  0.4683990000000 1.0
C      1  0.4451880000000  0.5544300000000  0.5177460000000 1.0
C      1  0.4457620000000  0.5217780000000  0.5529520000000 1.0
C      1  0.4460230000000  0.4725280000000  0.5500540000000 1.0
C      1  0.4811350000000  0.4916200000000  0.5318580000000 1.0
C      1  0.4843190000000  0.4674350000000  0.5157810000000 1.0
C      1  0.4823190000000  0.4679250000000  0.4868980000000 1.0
C      1  0.4722210000000  0.4880790000000  0.4693730000000 1.0
C      1  0.4784940000000  0.5162820000000  0.4720750000000 1.0
C      1  0.4805810000000  0.5320580000000  0.4974620000000 1.0
C      1  0.4795000000000  0.5201710000000  0.5247600000000 1.0
C      1  0.5331810000000  0.5612170000000  0.5324650000000 1.0
C      1  0.5308990000000  0.5110720000000  0.5692460000000 1.0
C      1  0.5355020000000  0.4556700000000  0.5577710000000 1.0
C      1  0.5317980000000  0.4292120000000  0.4917910000000 1.0
C      1  0.5360300000000  0.4518320000000  0.4426890000000 1.0
C      1  0.5326520000000  0.5249530000000  0.4363340000000 1.0
C      1  0.5397960000000  0.5656790000000  0.4686160000000 1.0
C      1  0.5002730000000  0.4766690000000  0.5808030000000 1.0
C      1  0.5029170000000  0.4218080000000  0.5314830000000 1.0
C      1  0.5005180000000  0.4260400000000  0.4584150000000 1.0
C      1  0.5037950000000  0.4863050000000  0.4179270000000 1.0
C      1  0.5003560000000  0.5561740000000  0.4360170000000 1.0
C      1  0.5014560000000  0.5826560000000  0.5009380000000 1.0
C      1  0.5000760000000  0.5495890000000  0.5670600000000 1.0
C      1  0.5555890000000  0.4686900000000  0.5411630000000 1.0
C      1  0.5549060000000  0.4482140000000  0.4992910000000 1.0
C      1  0.5577560000000  0.4668390000000  0.4584640000000 1.0
C      1  0.5558670000000  0.5137970000000  0.4497860000000 1.0
C      1  0.5540030000000  0.5434710000000  0.4806270000000 1.0
C      1  0.5546130000000  0.5379220000000  0.5228110000000 1.0
C      1  0.5480080000000  0.5113860000000  0.5420320000000 1.0
C      1  0.5684790000000  0.4604330000000  0.4806350000000 1.0
C      1  0.5659360000000  0.4899150000000  0.4540760000000 1.0
C      1  0.5717460000000  0.5261340000000  0.4694640000000 1.0
C      1  0.5705060000000  0.5375420000000  0.5000370000000 1.0
C      1  0.5730940000000  0.5213490000000  0.5366900000000 1.0
C      1  0.5705570000000  0.4924090000000  0.5435980000000 1.0
C      1  0.5650460000000  0.4597500000000  0.5196560000000 1.0
C      1  0.4293760000000  0.4670420000000  0.5062510000000 1.0
C      1  0.4294430000000  0.4749900000000  0.4775770000000 1.0
C      1  0.4297150000000  0.5028080000000  0.4663490000000 1.0
C      1  0.4309620000000  0.5281930000000  0.4812940000000 1.0
C      1  0.4305720000000  0.5317170000000  0.5101220000000 1.0
C      1  0.4298080000000  0.5129330000000  0.5312320000000 1.0
C      1  0.4293720000000  0.4840570000000  0.5298390000000 1.0
C      1  0.4567430000000  0.4969370000000  0.5643340000000 1.0
C      1  0.4564400000000  0.4476330000000  0.5391650000000 1.0
C      1  0.4568010000000  0.4367900000000  0.4842670000000 1.0
C      1  0.4589760000000  0.4762200000000  0.4444310000000 1.0
C      1  0.4600960000000  0.5296690000000  0.4457200000000 1.0
C      1  0.4534010000000  0.5636920000000  0.4911720000000 1.0
C      1  0.4567850000000  0.5481060000000  0.5441570000000 1.0
C      1  0.5120700000000  0.4946860000000  0.4984950000000 1.0
END
