TITL C-2441169-1362-1372 0.039823492913195 125000 -24708.6943546642 0 0 167 (C1) n - 1
REM
REM in /home/bkarasulu/work/CARBON/AIRSS/Generating-Clusters/ReaxFF-fromJPCA2015/Units_Real/with-SteepDescent/Higher-Symm
REM
REM
REM
REM
REM
REM ./C.cell (1df0a924f5614ab8850e4351716899ee)
REM
REM compiler GCC version 9.2.1 20190827 (Red Hat 9.2.1-1)
REM options -cpp -mtune=generic -march=x86-64 -g -O0 -fpre-include=/usr/include/finclude/math-vector-fortran.h
REM seed 780536353 1219484220 641323357 -833088779 -1156863645 474330838 -1750904761 -376916131 -193297931 -1789893619 -1540614662 -1549922507 -756713624 -713015698 1014609277 1301275723 -1650889123 1726648557 1765412074 749430008 -290752450 1337405087 -1323069336 1301202243 1750780977 2097673251 -343208223 -632885574 775947230 -1489278822 1106277614 -326644899 -1985258753
REM
CELL 1.54180   50.00000   50.00000   50.00000   90.00000   90.00000   90.00000
LATT -1
SFAC C  
C      1  0.4968390000000  0.5672130000000  0.5977080000000 1.0
C      1  0.4131030000000  0.5690600000000  0.5308840000000 1.0
C      1  0.4420700000000  0.5607530000000  0.4243650000000 1.0
C      1  0.5556940000000  0.5655950000000  0.4265330000000 1.0
C      1  0.5852200000000  0.5661740000000  0.5250000000000 1.0
C      1  0.4994760000000  0.4345670000000  0.5952810000000 1.0
C      1  0.5934100000000  0.4323930000000  0.5230760000000 1.0
C      1  0.5546840000000  0.4319150000000  0.4282770000000 1.0
C      1  0.4494560000000  0.4340260000000  0.4285190000000 1.0
C      1  0.4125910000000  0.4372030000000  0.5261390000000 1.0
C      1  0.5260140000000  0.4318160000000  0.5838960000000 1.0
C      1  0.4305200000000  0.4274860000000  0.5483450000000 1.0
C      1  0.4314040000000  0.4322980000000  0.4512820000000 1.0
C      1  0.5284920000000  0.4303760000000  0.4146830000000 1.0
C      1  0.5926350000000  0.4297290000000  0.4931850000000 1.0
C      1  0.4701070000000  0.5676640000000  0.5836040000000 1.0
C      1  0.5684500000000  0.5668570000000  0.5479370000000 1.0
C      1  0.5772290000000  0.5676990000000  0.4466320000000 1.0
C      1  0.4701480000000  0.5664600000000  0.4158440000000 1.0
C      1  0.4112230000000  0.5720960000000  0.5009730000000 1.0
C      1  0.5818760000000  0.4753720000000  0.4328220000000 1.0
C      1  0.5963400000000  0.4772170000000  0.5445260000000 1.0
C      1  0.4749090000000  0.4774150000000  0.5995660000000 1.0
C      1  0.3931930000000  0.4763340000000  0.5053260000000 1.0
C      1  0.4553220000000  0.4784000000000  0.4047740000000 1.0
C      1  0.4254290000000  0.5223540000000  0.4234580000000 1.0
C      1  0.4044640000000  0.5221710000000  0.5526770000000 1.0
C      1  0.5205170000000  0.5340790000000  0.6086840000000 1.0
C      1  0.6074140000000  0.5214240000000  0.5153700000000 1.0
C      1  0.5384920000000  0.5231710000000  0.4023430000000 1.0
C      1  0.4750880000000  0.5902420000000  0.4842150000000 1.0
C      1  0.5216470000000  0.5786130000000  0.4801340000000 1.0
C      1  0.5223440000000  0.5942020000000  0.5039770000000 1.0
C      1  0.5169770000000  0.5854270000000  0.5477230000000 1.0
C      1  0.4694910000000  0.5676290000000  0.5031220000000 1.0
C      1  0.5104910000000  0.4281230000000  0.4773850000000 1.0
C      1  0.4901500000000  0.4052080000000  0.4815350000000 1.0
C      1  0.4712250000000  0.4336390000000  0.5092670000000 1.0
C      1  0.4757480000000  0.3999620000000  0.5356820000000 1.0
C      1  0.5298550000000  0.4345640000000  0.5056500000000 1.0
C      1  0.4726260000000  0.4990050000000  0.3968740000000 1.0
C      1  0.5774910000000  0.4995660000000  0.4180690000000 1.0
C      1  0.5808480000000  0.4994930000000  0.5468150000000 1.0
C      1  0.4877420000000  0.5024680000000  0.6043810000000 1.0
C      1  0.4025770000000  0.5019690000000  0.5145300000000 1.0
C      1  0.5532840000000  0.4981280000000  0.4013140000000 1.0
C      1  0.4141450000000  0.5006440000000  0.4363080000000 1.0
C      1  0.4152510000000  0.4982290000000  0.5635620000000 1.0
C      1  0.5189390000000  0.5033900000000  0.6017290000000 1.0
C      1  0.6069890000000  0.4995900000000  0.4972650000000 1.0
C      1  0.4804620000000  0.4292160000000  0.5736960000000 1.0
C      1  0.4285390000000  0.4440450000000  0.5039180000000 1.0
C      1  0.4772790000000  0.4263210000000  0.4358660000000 1.0
C      1  0.5537400000000  0.4300320000000  0.4587290000000 1.0
C      1  0.5668790000000  0.4286420000000  0.5329440000000 1.0
C      1  0.5210680000000  0.5542550000000  0.5880500000000 1.0
C      1  0.5697740000000  0.5732920000000  0.4995890000000 1.0
C      1  0.5301600000000  0.5729700000000  0.4384740000000 1.0
C      1  0.4387860000000  0.5695660000000  0.4524850000000 1.0
C      1  0.4399230000000  0.5751270000000  0.5403070000000 1.0
C      1  0.5279500000000  0.5223240000000  0.4486070000000 1.0
C      1  0.5561440000000  0.5291630000000  0.5151460000000 1.0
C      1  0.5027870000000  0.5191390000000  0.5549790000000 1.0
C      1  0.4518240000000  0.5138950000000  0.5194240000000 1.0
C      1  0.4754370000000  0.5080290000000  0.4463640000000 1.0
C      1  0.4677130000000  0.4811910000000  0.4504660000000 1.0
C      1  0.4306930000000  0.4948050000000  0.5143200000000 1.0
C      1  0.5148500000000  0.4938410000000  0.5555040000000 1.0
C      1  0.5606960000000  0.5014530000000  0.5227580000000 1.0
C      1  0.5209590000000  0.4997460000000  0.4608840000000 1.0
C      1  0.4534290000000  0.5247200000000  0.5652960000000 1.0
C      1  0.4155990000000  0.5309010000000  0.4727730000000 1.0
C      1  0.5127100000000  0.5239290000000  0.4172250000000 1.0
C      1  0.5795240000000  0.5269000000000  0.4710300000000 1.0
C      1  0.5481140000000  0.5238010000000  0.5688780000000 1.0
C      1  0.5523650000000  0.4689970000000  0.5694900000000 1.0
C      1  0.5815550000000  0.4744570000000  0.4638420000000 1.0
C      1  0.5034620000000  0.4708520000000  0.4182550000000 1.0
C      1  0.4081680000000  0.4760780000000  0.4775420000000 1.0
C      1  0.4556930000000  0.4728850000000  0.5754100000000 1.0
C      1  0.4817910000000  0.5811210000000  0.4383530000000 1.0
C      1  0.5688880000000  0.5817090000000  0.4702350000000 1.0
C      1  0.5452560000000  0.5850870000000  0.5420600000000 1.0
C      1  0.4634050000000  0.5816360000000  0.5593880000000 1.0
C      1  0.4348230000000  0.5851600000000  0.4896700000000 1.0
C      1  0.5077780000000  0.4182960000000  0.4310630000000 1.0
C      1  0.4444190000000  0.4158180000000  0.4713420000000 1.0
C      1  0.4487040000000  0.4097810000000  0.5339940000000 1.0
C      1  0.5199580000000  0.4222540000000  0.5567840000000 1.0
C      1  0.5681340000000  0.4172670000000  0.4841220000000 1.0
C      1  0.4953290000000  0.5461230000000  0.6189520000000 1.0
C      1  0.3962570000000  0.5451020000000  0.5391010000000 1.0
C      1  0.4384060000000  0.5380330000000  0.4070890000000 1.0
C      1  0.5594590000000  0.5418360000000  0.4102940000000 1.0
C      1  0.6040790000000  0.5433950000000  0.5317080000000 1.0
C      1  0.4973100000000  0.4611060000000  0.6080600000000 1.0
C      1  0.6086170000000  0.4568250000000  0.5302770000000 1.0
C      1  0.5666730000000  0.4561920000000  0.4180440000000 1.0
C      1  0.4387770000000  0.4582070000000  0.4140570000000 1.0
C      1  0.3967590000000  0.4609110000000  0.5300980000000 1.0
C      1  0.5440860000000  0.4607950000000  0.4958980000000 1.0
C      1  0.5244030000000  0.4435750000000  0.5354060000000 1.0
C      1  0.4732550000000  0.4548600000000  0.5292410000000 1.0
C      1  0.4623750000000  0.4757780000000  0.4785950000000 1.0
C      1  0.5046570000000  0.4532680000000  0.4626750000000 1.0
C      1  0.4560900000000  0.5471860000000  0.4881860000000 1.0
C      1  0.4754280000000  0.5529040000000  0.5298280000000 1.0
C      1  0.5353200000000  0.5415230000000  0.5304310000000 1.0
C      1  0.5336970000000  0.5416180000000  0.4711120000000 1.0
C      1  0.4875110000000  0.5324800000000  0.4520150000000 1.0
C      1  0.3904060000000  0.5295020000000  0.5140790000000 1.0
C      1  0.4656280000000  0.5282540000000  0.3965480000000 1.0
C      1  0.5818470000000  0.5277850000000  0.4228240000000 1.0
C      1  0.5927480000000  0.5261690000000  0.5540890000000 1.0
C      1  0.4741810000000  0.5277970000000  0.6094330000000 1.0
C      1  0.6121580000000  0.4699400000000  0.5030760000000 1.0
C      1  0.5471920000000  0.4700670000000  0.4008700000000 1.0
C      1  0.4168020000000  0.4706120000000  0.4311580000000 1.0
C      1  0.4094850000000  0.4690240000000  0.5558800000000 1.0
C      1  0.5233030000000  0.4751070000000  0.6084260000000 1.0
C      1  0.5113910000000  0.4781130000000  0.4750400000000 1.0
C      1  0.5402310000000  0.4829750000000  0.5142330000000 1.0
C      1  0.5146570000000  0.4773280000000  0.5316720000000 1.0
C      1  0.4892600000000  0.4751220000000  0.5190730000000 1.0
C      1  0.4863680000000  0.4795230000000  0.4922550000000 1.0
C      1  0.4895360000000  0.5245370000000  0.4802400000000 1.0
C      1  0.4643440000000  0.5207380000000  0.4943920000000 1.0
C      1  0.4923190000000  0.5295340000000  0.5303130000000 1.0
C      1  0.5145980000000  0.5331080000000  0.5157140000000 1.0
C      1  0.5141790000000  0.5309720000000  0.4895610000000 1.0
C      1  0.5484350000000  0.5893140000000  0.5137810000000 1.0
C      1  0.4905140000000  0.5853830000000  0.5507670000000 1.0
C      1  0.4472140000000  0.5888660000000  0.5152690000000 1.0
C      1  0.4610500000000  0.5878430000000  0.4589190000000 1.0
C      1  0.5417450000000  0.5857000000000  0.4618070000000 1.0
C      1  0.4450930000000  0.4225980000000  0.5013960000000 1.0
C      1  0.4936980000000  0.4088930000000  0.5575690000000 1.0
C      1  0.5534720000000  0.4170440000000  0.5088170000000 1.0
C      1  0.5248920000000  0.4157900000000  0.4534910000000 1.0
C      1  0.4700900000000  0.4096080000000  0.4613020000000 1.0
C      1  0.5701890000000  0.5411470000000  0.5638260000000 1.0
C      1  0.4597920000000  0.5403740000000  0.5874700000000 1.0
C      1  0.4002140000000  0.5454730000000  0.4921330000000 1.0
C      1  0.4868270000000  0.5434150000000  0.4068710000000 1.0
C      1  0.5879770000000  0.5405120000000  0.4482900000000 1.0
C      1  0.4304950000000  0.4520260000000  0.5648780000000 1.0
C      1  0.5401400000000  0.4569290000000  0.5922510000000 1.0
C      1  0.6006760000000  0.4554360000000  0.4822230000000 1.0
C      1  0.5230280000000  0.4567370000000  0.4047430000000 1.0
C      1  0.4128290000000  0.4557380000000  0.4543520000000 1.0
C      1  0.4529450000000  0.5362600000000  0.5392970000000 1.0
C      1  0.4387360000000  0.5470000000000  0.4680140000000 1.0
C      1  0.5028010000000  0.5611890000000  0.4408500000000 1.0
C      1  0.5601810000000  0.5405140000000  0.4873130000000 1.0
C      1  0.5258510000000  0.5381530000000  0.5591520000000 1.0
C      1  0.5513900000000  0.4498240000000  0.5471730000000 1.0
C      1  0.5560640000000  0.4583580000000  0.4707180000000 1.0
C      1  0.4877430000000  0.4589330000000  0.4404940000000 1.0
C      1  0.4363790000000  0.4712040000000  0.4947580000000 1.0
C      1  0.4710650000000  0.4526040000000  0.5583570000000 1.0
C      1  0.5876760000000  0.5012880000000  0.4760960000000 1.0
C      1  0.4106190000000  0.5034010000000  0.4645880000000 1.0
C      1  0.4996160000000  0.4983550000000  0.4098430000000 1.0
C      1  0.4435980000000  0.4989840000000  0.5683470000000 1.0
C      1  0.5384610000000  0.4964450000000  0.5717540000000 1.0
C      1  0.5023840000000  0.5985500000000  0.4838770000000 1.0
C      1  0.4876160000000  0.4092850000000  0.5098910000000 1.0
END
