TITL C-2441169-1362-447 0.067374350349925 125000 -16609.4863123238 0 0 122 (C1) n - 1
REM
REM in /home/bkarasulu/work/CARBON/AIRSS/Generating-Clusters/ReaxFF-fromJPCA2015/Units_Real/with-SteepDescent/Higher-Symm
REM
REM
REM
REM
REM
REM ./C.cell (1df0a924f5614ab8850e4351716899ee)
REM
REM compiler GCC version 9.2.1 20190827 (Red Hat 9.2.1-1)
REM options -cpp -mtune=generic -march=x86-64 -g -O0 -fpre-include=/usr/include/finclude/math-vector-fortran.h
REM seed 1979053979 -1906614082 517146488 1496183479 -1000889084 -388524364 883229536 1334153960 -545782481 1144785193 358710782 634988966 -2045963850 1078872528 1431500991 625750648 -1466188713 -1035113613 -2052096454 677791500 -348794801 -1049984978 -388707303 4966715 1445555714 559633099 1179006858 -1983759502 -712257444 -942296120 -2092353095 855401233 1650348388
REM
CELL 1.54180   50.00000   50.00000   50.00000   90.00000   90.00000   90.00000
LATT -1
SFAC C  
C      1  0.5746970000000  0.4501140000000  0.5042490000000 1.0
C      1  0.5743610000000  0.5295290000000  0.5415980000000 1.0
C      1  0.5738320000000  0.5218340000000  0.4545580000000 1.0
C      1  0.5172120000000  0.4506120000000  0.5683040000000 1.0
C      1  0.5164590000000  0.5863240000000  0.5079230000000 1.0
C      1  0.5229100000000  0.4563700000000  0.4186680000000 1.0
C      1  0.4602070000000  0.4982850000000  0.5299920000000 1.0
C      1  0.4686250000000  0.5284440000000  0.4876770000000 1.0
C      1  0.4592650000000  0.4770500000000  0.4840430000000 1.0
C      1  0.4743720000000  0.4695300000000  0.5340280000000 1.0
C      1  0.4744730000000  0.5483520000000  0.5068730000000 1.0
C      1  0.4697050000000  0.4862390000000  0.4611170000000 1.0
C      1  0.5514520000000  0.4958430000000  0.5788960000000 1.0
C      1  0.5507290000000  0.5714670000000  0.4658780000000 1.0
C      1  0.5515900000000  0.4324780000000  0.4591910000000 1.0
C      1  0.4980230000000  0.5762330000000  0.4725010000000 1.0
C      1  0.4994920000000  0.4392200000000  0.4438430000000 1.0
C      1  0.4969610000000  0.4841400000000  0.5820040000000 1.0
C      1  0.5480790000000  0.4850620000000  0.4850760000000 1.0
C      1  0.5479790000000  0.5007950000000  0.5230680000000 1.0
C      1  0.5444580000000  0.5105480000000  0.4968570000000 1.0
C      1  0.4251130000000  0.5457890000000  0.4828780000000 1.0
C      1  0.4312530000000  0.4627830000000  0.4744760000000 1.0
C      1  0.4304650000000  0.4941020000000  0.5406750000000 1.0
C      1  0.4155990000000  0.4872990000000  0.4841120000000 1.0
C      1  0.4174990000000  0.4838170000000  0.5135760000000 1.0
C      1  0.4262920000000  0.5230560000000  0.5012830000000 1.0
C      1  0.5290440000000  0.4400670000000  0.5170040000000 1.0
C      1  0.5283900000000  0.5458240000000  0.5454250000000 1.0
C      1  0.5288850000000  0.5162370000000  0.4393990000000 1.0
C      1  0.5356180000000  0.5648470000000  0.4408370000000 1.0
C      1  0.5350270000000  0.4145780000000  0.4763090000000 1.0
C      1  0.5348430000000  0.5202080000000  0.5865680000000 1.0
C      1  0.5036920000000  0.5292470000000  0.4232330000000 1.0
C      1  0.4956070000000  0.4142440000000  0.5133270000000 1.0
C      1  0.5075240000000  0.5585270000000  0.5666790000000 1.0
C      1  0.4569120000000  0.5861620000000  0.5076550000000 1.0
C      1  0.4555860000000  0.4651220000000  0.4236610000000 1.0
C      1  0.4550630000000  0.4505890000000  0.5699270000000 1.0
C      1  0.4710240000000  0.4084570000000  0.4986940000000 1.0
C      1  0.4608670000000  0.5466200000000  0.5852330000000 1.0
C      1  0.4601720000000  0.5502120000000  0.4165420000000 1.0
C      1  0.5107710000000  0.5450220000000  0.4729830000000 1.0
C      1  0.5076060000000  0.4537480000000  0.4736700000000 1.0
C      1  0.5075450000000  0.5011360000000  0.5548200000000 1.0
C      1  0.4414910000000  0.5704550000000  0.4860800000000 1.0
C      1  0.4417830000000  0.4526020000000  0.4469540000000 1.0
C      1  0.4412410000000  0.4767460000000  0.5659640000000 1.0
C      1  0.5730510000000  0.5441830000000  0.4962450000000 1.0
C      1  0.5715660000000  0.4763840000000  0.4656400000000 1.0
C      1  0.5721310000000  0.4842870000000  0.5378320000000 1.0
C      1  0.4549150000000  0.4308900000000  0.4601530000000 1.0
C      1  0.4538930000000  0.4991750000000  0.5777600000000 1.0
C      1  0.4540450000000  0.5679220000000  0.4604380000000 1.0
C      1  0.4599560000000  0.4952500000000  0.4190730000000 1.0
C      1  0.4612800000000  0.4301060000000  0.5482490000000 1.0
C      1  0.4636850000000  0.5772490000000  0.5360590000000 1.0
C      1  0.5286260000000  0.5209990000000  0.5586740000000 1.0
C      1  0.5313970000000  0.5394420000000  0.4534470000000 1.0
C      1  0.5261490000000  0.4388960000000  0.4891010000000 1.0
C      1  0.4496680000000  0.5002620000000  0.4457080000000 1.0
C      1  0.4537560000000  0.4486610000000  0.5275710000000 1.0
C      1  0.4556410000000  0.5504330000000  0.5292150000000 1.0
C      1  0.5865920000000  0.4753820000000  0.5129380000000 1.0
C      1  0.5852660000000  0.5251540000000  0.5141690000000 1.0
C      1  0.5853280000000  0.5013590000000  0.4712630000000 1.0
C      1  0.5196420000000  0.5249900000000  0.4973730000000 1.0
C      1  0.5249430000000  0.4759790000000  0.4721430000000 1.0
C      1  0.5265690000000  0.4883920000000  0.5364930000000 1.0
C      1  0.4873290000000  0.4160540000000  0.5431700000000 1.0
C      1  0.4883460000000  0.5782520000000  0.5547910000000 1.0
C      1  0.4846840000000  0.5103950000000  0.4093890000000 1.0
C      1  0.5094970000000  0.4785210000000  0.4290250000000 1.0
C      1  0.4999010000000  0.4600450000000  0.5459380000000 1.0
C      1  0.5001060000000  0.5604310000000  0.5106360000000 1.0
C      1  0.4807610000000  0.4181270000000  0.4534730000000 1.0
C      1  0.4785020000000  0.5029920000000  0.5941080000000 1.0
C      1  0.4797090000000  0.5781240000000  0.4500310000000 1.0
C      1  0.5151910000000  0.4947340000000  0.4554610000000 1.0
C      1  0.5161860000000  0.4655860000000  0.5251270000000 1.0
C      1  0.5172870000000  0.5419120000000  0.5189950000000 1.0
C      1  0.4967450000000  0.5083260000000  0.5122350000000 1.0
C      1  0.4910140000000  0.5021760000000  0.4626570000000 1.0
C      1  0.4943660000000  0.4776050000000  0.5105200000000 1.0
C      1  0.4843370000000  0.5673870000000  0.4226040000000 1.0
C      1  0.4870900000000  0.3991510000000  0.4752910000000 1.0
C      1  0.4844750000000  0.5322040000000  0.5968170000000 1.0
C      1  0.5437180000000  0.4665930000000  0.5711330000000 1.0
C      1  0.5426070000000  0.5789470000000  0.4939830000000 1.0
C      1  0.5458500000000  0.4533020000000  0.4353140000000 1.0
C      1  0.4509580000000  0.5262290000000  0.5651930000000 1.0
C      1  0.4457460000000  0.5462050000000  0.4424190000000 1.0
C      1  0.4491100000000  0.4247330000000  0.4876770000000 1.0
C      1  0.4870510000000  0.5289950000000  0.4662010000000 1.0
C      1  0.4837640000000  0.4621990000000  0.4892970000000 1.0
C      1  0.4843860000000  0.5135460000000  0.5375670000000 1.0
C      1  0.5597380000000  0.4578580000000  0.5498150000000 1.0
C      1  0.5589630000000  0.5643090000000  0.5126650000000 1.0
C      1  0.5599050000000  0.4786050000000  0.4382210000000 1.0
C      1  0.4792450000000  0.4506920000000  0.4275950000000 1.0
C      1  0.4777370000000  0.4633060000000  0.5810210000000 1.0
C      1  0.4797910000000  0.5886720000000  0.4908860000000 1.0
C      1  0.5571010000000  0.5524840000000  0.5391220000000 1.0
C      1  0.5567540000000  0.5070540000000  0.4359640000000 1.0
C      1  0.5561650000000  0.4412180000000  0.5259870000000 1.0
C      1  0.5707990000000  0.5061340000000  0.5593170000000 1.0
C      1  0.5693350000000  0.5478440000000  0.4678300000000 1.0
C      1  0.5702750000000  0.4460130000000  0.4757620000000 1.0
C      1  0.5048400000000  0.5924810000000  0.5358020000000 1.0
C      1  0.4987690000000  0.4860990000000  0.4057960000000 1.0
C      1  0.5075860000000  0.4248430000000  0.5612080000000 1.0
C      1  0.4281010000000  0.4420030000000  0.4955920000000 1.0
C      1  0.4274200000000  0.5230830000000  0.5481160000000 1.0
C      1  0.4238860000000  0.5321510000000  0.4570860000000 1.0
C      1  0.4241810000000  0.5033870000000  0.4602690000000 1.0
C      1  0.4266140000000  0.4570850000000  0.5198990000000 1.0
C      1  0.4280730000000  0.5400120000000  0.5251250000000 1.0
C      1  0.5116680000000  0.5408130000000  0.5887200000000 1.0
C      1  0.5119690000000  0.5563570000000  0.4232220000000 1.0
C      1  0.5116930000000  0.4016560000000  0.4910130000000 1.0
C      1  0.4532470000000  0.5057580000000  0.4993220000000 1.0
C      1  0.5916000000000  0.5005760000000  0.4994430000000 1.0
END
