TITL C-2441169-1362-679 0.1527525783811 125000 -19041.2661826594 0 0 157 (C1) n - 1
REM
REM in /home/bkarasulu/work/CARBON/AIRSS/Generating-Clusters/ReaxFF-fromJPCA2015/Units_Real/with-SteepDescent/Higher-Symm
REM
REM
REM
REM
REM
REM ./C.cell (1df0a924f5614ab8850e4351716899ee)
REM
REM compiler GCC version 9.2.1 20190827 (Red Hat 9.2.1-1)
REM options -cpp -mtune=generic -march=x86-64 -g -O0 -fpre-include=/usr/include/finclude/math-vector-fortran.h
REM seed -2136652069 511726756 -1467307362 1145270760 -1343333438 361528915 426381176 -1455355884 -1323707988 2037221743 -938679923 -256343224 -2079046413 -997137308 -348632206 -315719096 1715114443 -1386139541 389606265 -1577281281 -128220561 -102718758 -1686682660 2087538986 -2015309006 299570783 -701095377 -1546209065 -793332310 599077358 -943417843 -2039718509 1797070841
REM
CELL 1.54180   50.00000   50.00000   50.00000   90.00000   90.00000   90.00000
LATT -1
SFAC C  
C      1  0.4197770000000  0.5530860000000  0.5290160000000 1.0
C      1  0.4169020000000  0.4943840000000  0.5582280000000 1.0
C      1  0.4136850000000  0.4455230000000  0.5088300000000 1.0
C      1  0.4150910000000  0.4719990000000  0.4528410000000 1.0
C      1  0.4150470000000  0.5365490000000  0.4551400000000 1.0
C      1  0.5873830000000  0.4504040000000  0.5258270000000 1.0
C      1  0.5864000000000  0.5047000000000  0.5569910000000 1.0
C      1  0.5810380000000  0.5567390000000  0.5090110000000 1.0
C      1  0.5851080000000  0.5265140000000  0.4532740000000 1.0
C      1  0.5829460000000  0.4633840000000  0.4535020000000 1.0
C      1  0.4671650000000  0.5544400000000  0.4302840000000 1.0
C      1  0.4586270000000  0.5903810000000  0.5277460000000 1.0
C      1  0.4551100000000  0.5033990000000  0.5950920000000 1.0
C      1  0.4656360000000  0.4126560000000  0.5251830000000 1.0
C      1  0.4671810000000  0.4477540000000  0.4239430000000 1.0
C      1  0.5441560000000  0.4464740000000  0.4218750000000 1.0
C      1  0.5346090000000  0.4084420000000  0.5294610000000 1.0
C      1  0.5322130000000  0.4991310000000  0.5941980000000 1.0
C      1  0.5428230000000  0.5886780000000  0.5304230000000 1.0
C      1  0.5344290000000  0.5557950000000  0.4235870000000 1.0
C      1  0.5718800000000  0.5547350000000  0.5570770000000 1.0
C      1  0.5712170000000  0.4641370000000  0.5719040000000 1.0
C      1  0.5685470000000  0.4256790000000  0.4886980000000 1.0
C      1  0.5638820000000  0.4926980000000  0.4290130000000 1.0
C      1  0.5672680000000  0.5648040000000  0.4669590000000 1.0
C      1  0.4326360000000  0.4471100000000  0.5534980000000 1.0
C      1  0.4316770000000  0.5335820000000  0.5630500000000 1.0
C      1  0.4282240000000  0.5782700000000  0.4876860000000 1.0
C      1  0.4302400000000  0.5127100000000  0.4227980000000 1.0
C      1  0.4282940000000  0.4303190000000  0.4629900000000 1.0
C      1  0.4257990000000  0.5257080000000  0.4974250000000 1.0
C      1  0.4287690000000  0.5120740000000  0.5238480000000 1.0
C      1  0.4301220000000  0.4827210000000  0.5193940000000 1.0
C      1  0.4280220000000  0.4783790000000  0.4895830000000 1.0
C      1  0.4249600000000  0.5033760000000  0.4752440000000 1.0
C      1  0.5740690000000  0.4740520000000  0.4959640000000 1.0
C      1  0.5713840000000  0.4882910000000  0.5234410000000 1.0
C      1  0.5716960000000  0.5180780000000  0.5195050000000 1.0
C      1  0.5685580000000  0.5226380000000  0.4899490000000 1.0
C      1  0.5700440000000  0.4951440000000  0.4740850000000 1.0
C      1  0.4471570000000  0.4907800000000  0.4163020000000 1.0
C      1  0.4476020000000  0.5752740000000  0.4659870000000 1.0
C      1  0.4624510000000  0.5637540000000  0.5606340000000 1.0
C      1  0.4529960000000  0.4594000000000  0.5726570000000 1.0
C      1  0.4467630000000  0.4166410000000  0.4806870000000 1.0
C      1  0.5479230000000  0.5171150000000  0.4178270000000 1.0
C      1  0.5463730000000  0.4270690000000  0.4670370000000 1.0
C      1  0.5524440000000  0.4426610000000  0.5641420000000 1.0
C      1  0.5511400000000  0.5397090000000  0.5725960000000 1.0
C      1  0.5458760000000  0.5759350000000  0.4842570000000 1.0
C      1  0.5444120000000  0.5316600000000  0.4780550000000 1.0
C      1  0.5467810000000  0.5247560000000  0.5316030000000 1.0
C      1  0.5489750000000  0.4756370000000  0.5374720000000 1.0
C      1  0.5470160000000  0.4622830000000  0.4941060000000 1.0
C      1  0.5490140000000  0.4889430000000  0.4537790000000 1.0
C      1  0.4499690000000  0.4594390000000  0.4876220000000 1.0
C      1  0.4577990000000  0.4766710000000  0.5273600000000 1.0
C      1  0.4513560000000  0.5208180000000  0.5456840000000 1.0
C      1  0.4525840000000  0.5352310000000  0.4895640000000 1.0
C      1  0.4507930000000  0.4990420000000  0.4598970000000 1.0
C      1  0.4094120000000  0.5219370000000  0.5457150000000 1.0
C      1  0.4139590000000  0.4592480000000  0.5337940000000 1.0
C      1  0.4105100000000  0.4529220000000  0.4744250000000 1.0
C      1  0.4106650000000  0.5081280000000  0.4470600000000 1.0
C      1  0.4155440000000  0.5552480000000  0.5011570000000 1.0
C      1  0.5898510000000  0.4757980000000  0.5496770000000 1.0
C      1  0.5855300000000  0.5427880000000  0.5331430000000 1.0
C      1  0.5875460000000  0.5465620000000  0.4765680000000 1.0
C      1  0.5906310000000  0.4926660000000  0.4515100000000 1.0
C      1  0.5878520000000  0.4461920000000  0.4977170000000 1.0
C      1  0.5046310000000  0.4669680000000  0.5868040000000 1.0
C      1  0.5046680000000  0.4033420000000  0.4960530000000 1.0
C      1  0.5075250000000  0.4733010000000  0.4057340000000 1.0
C      1  0.5048280000000  0.5793280000000  0.4468290000000 1.0
C      1  0.5083360000000  0.5741410000000  0.5574130000000 1.0
C      1  0.4961460000000  0.5278300000000  0.5854350000000 1.0
C      1  0.4946180000000  0.5898080000000  0.4951390000000 1.0
C      1  0.4948890000000  0.5251120000000  0.4123620000000 1.0
C      1  0.4960460000000  0.4239780000000  0.4501220000000 1.0
C      1  0.4975540000000  0.4259560000000  0.5560500000000 1.0
C      1  0.5299480000000  0.5841960000000  0.4609320000000 1.0
C      1  0.5326400000000  0.5633530000000  0.5695320000000 1.0
C      1  0.5315010000000  0.4556570000000  0.5820530000000 1.0
C      1  0.5314340000000  0.4064970000000  0.4835500000000 1.0
C      1  0.5309290000000  0.4894390000000  0.4060490000000 1.0
C      1  0.4682020000000  0.4175480000000  0.4595050000000 1.0
C      1  0.4710640000000  0.4353580000000  0.5659100000000 1.0
C      1  0.4710960000000  0.5442700000000  0.5812640000000 1.0
C      1  0.4679920000000  0.5908090000000  0.4816230000000 1.0
C      1  0.4692700000000  0.5107550000000  0.4069010000000 1.0
C      1  0.4748750000000  0.4590530000000  0.4755070000000 1.0
C      1  0.4809900000000  0.5129780000000  0.4458290000000 1.0
C      1  0.4727440000000  0.5487580000000  0.5063260000000 1.0
C      1  0.4772860000000  0.5092400000000  0.5530840000000 1.0
C      1  0.4779500000000  0.4560130000000  0.5272510000000 1.0
C      1  0.5242510000000  0.5352940000000  0.4613320000000 1.0
C      1  0.5214350000000  0.4763780000000  0.4539650000000 1.0
C      1  0.5266300000000  0.4460070000000  0.5090900000000 1.0
C      1  0.5226320000000  0.4881180000000  0.5473770000000 1.0
C      1  0.5216220000000  0.5475810000000  0.5226910000000 1.0
C      1  0.4494920000000  0.4313620000000  0.4418760000000 1.0
C      1  0.4514080000000  0.5322970000000  0.4166870000000 1.0
C      1  0.4471450000000  0.5967900000000  0.5016600000000 1.0
C      1  0.4468420000000  0.5300420000000  0.5886820000000 1.0
C      1  0.4509320000000  0.4251700000000  0.5479320000000 1.0
C      1  0.5504380000000  0.5696070000000  0.4443740000000 1.0
C      1  0.5520230000000  0.4719420000000  0.4106290000000 1.0
C      1  0.5512700000000  0.4084830000000  0.5046220000000 1.0
C      1  0.5509310000000  0.4760150000000  0.5893490000000 1.0
C      1  0.5536200000000  0.5775120000000  0.5546320000000 1.0
C      1  0.5162270000000  0.4461670000000  0.4132620000000 1.0
C      1  0.5102270000000  0.5711840000000  0.4189280000000 1.0
C      1  0.5137130000000  0.5929280000000  0.5367080000000 1.0
C      1  0.5067560000000  0.4887320000000  0.6054860000000 1.0
C      1  0.5100100000000  0.3938120000000  0.5231320000000 1.0
C      1  0.4887820000000  0.5536030000000  0.4100530000000 1.0
C      1  0.4924780000000  0.4320750000000  0.4226410000000 1.0
C      1  0.4886140000000  0.4027940000000  0.5408650000000 1.0
C      1  0.4839320000000  0.5069460000000  0.6015650000000 1.0
C      1  0.4881110000000  0.5966320000000  0.5220380000000 1.0
C      1  0.5131840000000  0.4924330000000  0.4770940000000 1.0
C      1  0.5093840000000  0.5184020000000  0.4804360000000 1.0
C      1  0.5118390000000  0.5240950000000  0.5077440000000 1.0
C      1  0.5276230000000  0.5060290000000  0.5227280000000 1.0
C      1  0.5152820000000  0.4717060000000  0.5113670000000 1.0
C      1  0.4862070000000  0.5228190000000  0.4729810000000 1.0
C      1  0.4869230000000  0.4837540000000  0.4843040000000 1.0
C      1  0.4920990000000  0.4766050000000  0.5107410000000 1.0
C      1  0.4773530000000  0.4988250000000  0.5257380000000 1.0
C      1  0.4866950000000  0.5260020000000  0.5182820000000 1.0
C      1  0.5608470000000  0.4458330000000  0.4467100000000 1.0
C      1  0.5652590000000  0.5324170000000  0.4361370000000 1.0
C      1  0.5595040000000  0.5754370000000  0.5105290000000 1.0
C      1  0.5582430000000  0.5152430000000  0.5580790000000 1.0
C      1  0.5601250000000  0.4479250000000  0.5353210000000 1.0
C      1  0.4426240000000  0.5463610000000  0.4616570000000 1.0
C      1  0.4414350000000  0.4755490000000  0.4415270000000 1.0
C      1  0.4405300000000  0.4361380000000  0.5032120000000 1.0
C      1  0.4392450000000  0.4868800000000  0.5751540000000 1.0
C      1  0.4417360000000  0.5687750000000  0.5395080000000 1.0
C      1  0.5226860000000  0.4325120000000  0.5408570000000 1.0
C      1  0.5160440000000  0.4423530000000  0.4620670000000 1.0
C      1  0.5228790000000  0.5290080000000  0.4297360000000 1.0
C      1  0.5144980000000  0.5668980000000  0.4961330000000 1.0
C      1  0.5202890000000  0.5145980000000  0.5729080000000 1.0
C      1  0.4852570000000  0.5604220000000  0.5419240000000 1.0
C      1  0.4845480000000  0.5604230000000  0.4536220000000 1.0
C      1  0.4833220000000  0.4724560000000  0.4232910000000 1.0
C      1  0.4838250000000  0.4226690000000  0.5033770000000 1.0
C      1  0.4825010000000  0.4780020000000  0.5685800000000 1.0
C      1  0.4983380000000  0.5362360000000  0.5412640000000 1.0
C      1  0.4905270000000  0.5529080000000  0.4815810000000 1.0
C      1  0.4968360000000  0.4430340000000  0.4855620000000 1.0
C      1  0.4985870000000  0.4679220000000  0.5471490000000 1.0
C      1  0.4959970000000  0.4889460000000  0.4418960000000 1.0
C      1  0.5325110000000  0.4873460000000  0.4974300000000 1.0
C      1  0.4666100000000  0.5040120000000  0.4835650000000 1.0
END
