TITL C-2441164-471-752 0.116347902668197 125000 -16993.4514730149 0 0 135 (C1) n - 1
REM
REM in /home/bkarasulu/work/CARBON/AIRSS/Generating-Clusters/ReaxFF-fromJPCA2015/Units_Real/with-SteepDescent/Higher-Symm
REM
REM
REM
REM
REM
REM ./C.cell (1df0a924f5614ab8850e4351716899ee)
REM
REM compiler GCC version 9.2.1 20190827 (Red Hat 9.2.1-1)
REM options -cpp -mtune=generic -march=x86-64 -g -O0 -fpre-include=/usr/include/finclude/math-vector-fortran.h
REM seed 1714232537 495128160 510643114 -1733461712 -714549375 -1200731044 742550987 1916529344 -2130866806 1550499360 -1569090410 -652327210 -179288141 -727005257 -1109571909 -210809496 -1675905428 2074594335 980296948 -1580964695 -1778615085 1294489065 -215461249 -1178768756 187095065 -618173533 -2099370151 718949540 975427220 7102348 466389170 361454198 503079972
REM
CELL 1.54180   50.00000   50.00000   50.00000   90.00000   90.00000   90.00000
LATT -1
SFAC C  
C      1  0.5476460000000  0.4939130000000  0.4228040000000 1.0
C      1  0.5514070000000  0.4347020000000  0.5413460000000 1.0
C      1  0.5503350000000  0.5681140000000  0.5354570000000 1.0
C      1  0.4494730000000  0.4950810000000  0.4207540000000 1.0
C      1  0.4511670000000  0.4342230000000  0.5437320000000 1.0
C      1  0.4486470000000  0.5683100000000  0.5369600000000 1.0
C      1  0.5119900000000  0.4884450000000  0.5636110000000 1.0
C      1  0.5145840000000  0.5622410000000  0.4775730000000 1.0
C      1  0.5114460000000  0.4495430000000  0.4621740000000 1.0
C      1  0.4819630000000  0.4966530000000  0.5574450000000 1.0
C      1  0.4840400000000  0.5618420000000  0.4789100000000 1.0
C      1  0.4826160000000  0.4504880000000  0.4588830000000 1.0
C      1  0.5624920000000  0.4607730000000  0.5340730000000 1.0
C      1  0.5626080000000  0.5473150000000  0.5189430000000 1.0
C      1  0.5617870000000  0.4924900000000  0.4490450000000 1.0
C      1  0.4381400000000  0.4586120000000  0.5321770000000 1.0
C      1  0.4351310000000  0.5483370000000  0.5187800000000 1.0
C      1  0.4373690000000  0.4917590000000  0.4477540000000 1.0
C      1  0.4212640000000  0.5007130000000  0.5256210000000 1.0
C      1  0.4215360000000  0.5200310000000  0.4807820000000 1.0
C      1  0.4204320000000  0.4793210000000  0.4896970000000 1.0
C      1  0.5782260000000  0.5012500000000  0.5305180000000 1.0
C      1  0.5750040000000  0.5188140000000  0.4864830000000 1.0
C      1  0.5745560000000  0.4778070000000  0.4873980000000 1.0
C      1  0.4767870000000  0.5343880000000  0.4933610000000 1.0
C      1  0.4756360000000  0.4774240000000  0.4760290000000 1.0
C      1  0.4755940000000  0.4885310000000  0.5295220000000 1.0
C      1  0.5229230000000  0.5321790000000  0.4921970000000 1.0
C      1  0.5213720000000  0.4758290000000  0.4718900000000 1.0
C      1  0.5216850000000  0.4878040000000  0.5353070000000 1.0
C      1  0.5427190000000  0.5029150000000  0.5872110000000 1.0
C      1  0.5459210000000  0.5720320000000  0.4521200000000 1.0
C      1  0.5445880000000  0.4258950000000  0.4555180000000 1.0
C      1  0.4625160000000  0.5026540000000  0.5817750000000 1.0
C      1  0.4516020000000  0.5729290000000  0.4545180000000 1.0
C      1  0.4511730000000  0.4205500000000  0.4570570000000 1.0
C      1  0.5474990000000  0.5065290000000  0.5265530000000 1.0
C      1  0.5473650000000  0.5108870000000  0.4962160000000 1.0
C      1  0.5445260000000  0.4777450000000  0.4897860000000 1.0
C      1  0.4503790000000  0.5006210000000  0.5160010000000 1.0
C      1  0.4511440000000  0.5174720000000  0.4913900000000 1.0
C      1  0.4505240000000  0.4866570000000  0.4900320000000 1.0
C      1  0.5558880000000  0.4646060000000  0.4198850000000 1.0
C      1  0.5490090000000  0.4451470000000  0.5691260000000 1.0
C      1  0.5544660000000  0.5852680000000  0.5112790000000 1.0
C      1  0.4440310000000  0.4651420000000  0.4194060000000 1.0
C      1  0.4430360000000  0.4458820000000  0.5705250000000 1.0
C      1  0.4473860000000  0.5872100000000  0.5132680000000 1.0
C      1  0.4869310000000  0.5337020000000  0.4115480000000 1.0
C      1  0.4869250000000  0.4078940000000  0.5197660000000 1.0
C      1  0.4880450000000  0.5685120000000  0.5634850000000 1.0
C      1  0.5115960000000  0.5216660000000  0.4082950000000 1.0
C      1  0.5141210000000  0.4121330000000  0.5247750000000 1.0
C      1  0.5134190000000  0.5602620000000  0.5701210000000 1.0
C      1  0.4776990000000  0.5686790000000  0.4475500000000 1.0
C      1  0.4775110000000  0.4211670000000  0.4663580000000 1.0
C      1  0.4831400000000  0.5204760000000  0.5906340000000 1.0
C      1  0.5187910000000  0.5690990000000  0.4478520000000 1.0
C      1  0.5197210000000  0.4225080000000  0.4705620000000 1.0
C      1  0.5157800000000  0.5123190000000  0.5845840000000 1.0
C      1  0.5631150000000  0.5192220000000  0.4138270000000 1.0
C      1  0.5669680000000  0.4166460000000  0.5230640000000 1.0
C      1  0.5659750000000  0.5604510000000  0.5599050000000 1.0
C      1  0.4341150000000  0.5202790000000  0.4174870000000 1.0
C      1  0.4367840000000  0.4133090000000  0.5237500000000 1.0
C      1  0.4344700000000  0.5623920000000  0.5630840000000 1.0
C      1  0.4825950000000  0.4972130000000  0.4550470000000 1.0
C      1  0.4836400000000  0.4604850000000  0.5222370000000 1.0
C      1  0.4870960000000  0.5424590000000  0.5251650000000 1.0
C      1  0.5137080000000  0.4961300000000  0.4485410000000 1.0
C      1  0.5144150000000  0.4572780000000  0.5282970000000 1.0
C      1  0.5168680000000  0.5398520000000  0.5204500000000 1.0
C      1  0.4706420000000  0.5216200000000  0.4475220000000 1.0
C      1  0.4725530000000  0.4428430000000  0.5061480000000 1.0
C      1  0.4793550000000  0.5259760000000  0.5496700000000 1.0
C      1  0.5235320000000  0.5228230000000  0.4471250000000 1.0
C      1  0.5315810000000  0.4527230000000  0.5048900000000 1.0
C      1  0.5337140000000  0.5298340000000  0.5403050000000 1.0
C      1  0.5801040000000  0.5118020000000  0.4590810000000 1.0
C      1  0.5814920000000  0.4640590000000  0.5120500000000 1.0
C      1  0.5835290000000  0.5297180000000  0.5257920000000 1.0
C      1  0.4185650000000  0.5068750000000  0.4555680000000 1.0
C      1  0.4197080000000  0.4584360000000  0.5100830000000 1.0
C      1  0.4174280000000  0.5288130000000  0.5310650000000 1.0
C      1  0.5101210000000  0.4927840000000  0.4158520000000 1.0
C      1  0.5073340000000  0.4314330000000  0.5459330000000 1.0
C      1  0.5105320000000  0.5876660000000  0.5222890000000 1.0
C      1  0.4855420000000  0.4774140000000  0.4112260000000 1.0
C      1  0.4810930000000  0.4353860000000  0.5572250000000 1.0
C      1  0.4890050000000  0.5725850000000  0.5338260000000 1.0
C      1  0.5825480000000  0.4580650000000  0.4664410000000 1.0
C      1  0.5833780000000  0.5061260000000  0.5589690000000 1.0
C      1  0.5808450000000  0.5474190000000  0.4815420000000 1.0
C      1  0.4183750000000  0.4596940000000  0.4672940000000 1.0
C      1  0.4200160000000  0.4914810000000  0.5534270000000 1.0
C      1  0.4161980000000  0.5448640000000  0.4665300000000 1.0
C      1  0.4357900000000  0.5089050000000  0.5707530000000 1.0
C      1  0.4307210000000  0.5670890000000  0.4730550000000 1.0
C      1  0.4336120000000  0.4356200000000  0.4732080000000 1.0
C      1  0.5653590000000  0.4908800000000  0.5748550000000 1.0
C      1  0.5665160000000  0.5534140000000  0.4572190000000 1.0
C      1  0.5666310000000  0.4345390000000  0.4728750000000 1.0
C      1  0.4245810000000  0.4632700000000  0.5565840000000 1.0
C      1  0.4305030000000  0.5694470000000  0.5011770000000 1.0
C      1  0.4246960000000  0.4678630000000  0.4406460000000 1.0
C      1  0.5663460000000  0.4663430000000  0.5615110000000 1.0
C      1  0.5750830000000  0.5672580000000  0.5019980000000 1.0
C      1  0.5767740000000  0.4689660000000  0.4398140000000 1.0
C      1  0.5261430000000  0.4256650000000  0.4995730000000 1.0
C      1  0.5292230000000  0.5371510000000  0.5687490000000 1.0
C      1  0.5251950000000  0.5433340000000  0.4309420000000 1.0
C      1  0.4722110000000  0.4165050000000  0.4969970000000 1.0
C      1  0.4750530000000  0.5416790000000  0.5726070000000 1.0
C      1  0.4687800000000  0.5462250000000  0.4286210000000 1.0
C      1  0.4260490000000  0.4301540000000  0.5033170000000 1.0
C      1  0.4250120000000  0.5342540000000  0.5592680000000 1.0
C      1  0.4184680000000  0.5313090000000  0.4408450000000 1.0
C      1  0.5762960000000  0.4355200000000  0.5014730000000 1.0
C      1  0.5825960000000  0.5357290000000  0.5547900000000 1.0
C      1  0.5754110000000  0.5311490000000  0.4374620000000 1.0
C      1  0.4702390000000  0.4565340000000  0.5742610000000 1.0
C      1  0.4694930000000  0.5866540000000  0.4939440000000 1.0
C      1  0.4708330000000  0.4555050000000  0.4274670000000 1.0
C      1  0.5250650000000  0.4609850000000  0.5768710000000 1.0
C      1  0.5282470000000  0.5842330000000  0.4983710000000 1.0
C      1  0.5385020000000  0.4424520000000  0.4293570000000 1.0
C      1  0.5147990000000  0.4429200000000  0.4147290000000 1.0
C      1  0.5114090000000  0.4525390000000  0.5987550000000 1.0
C      1  0.5102360000000  0.6099330000000  0.5032100000000 1.0
C      1  0.4908470000000  0.4490780000000  0.4041680000000 1.0
C      1  0.4882280000000  0.4517670000000  0.5953980000000 1.0
C      1  0.4850510000000  0.6093810000000  0.4942340000000 1.0
C      1  0.5006020000000  0.4967370000000  0.5176760000000 1.0
C      1  0.4999500000000  0.4895010000000  0.4898120000000 1.0
C      1  0.4993730000000  0.5178710000000  0.4862820000000 1.0
END
