TITL C-2441167-4473-1312 0.0537894683284614 125000 -11109.56208554 0 0 84 (C1) n - 1
REM
REM in /home/bkarasulu/work/CARBON/AIRSS/Generating-Clusters/ReaxFF-fromJPCA2015/Units_Real/with-SteepDescent/Higher-Symm
REM
REM
REM
REM
REM
REM ./C.cell (1df0a924f5614ab8850e4351716899ee)
REM
REM compiler GCC version 9.2.1 20190827 (Red Hat 9.2.1-1)
REM options -cpp -mtune=generic -march=x86-64 -g -O0 -fpre-include=/usr/include/finclude/math-vector-fortran.h
REM seed 1154478525 -1021105647 -210335797 -15242124 1576615716 1120129718 -1195960484 -775098009 -1898664172 -732509155 -518421442 -1056408248 -1271113894 -595647615 -790224545 -1881214232 455087936 -137678635 -2087967806 1196346574 2003745358 2002753451 -648878929 1040817071 2016336369 -86280754 -146025083 41258930 127558985 1321229325 -1138338459 -1335023725 -1698479046
REM
CELL 1.54180   50.00000   50.00000   50.00000   90.00000   90.00000   90.00000
LATT -1
SFAC C  
C      1  0.5708080000000  0.5317730000000  0.5028740000000 1.0
C      1  0.5222660000000  0.5340900000000  0.4343330000000 1.0
C      1  0.4443370000000  0.5336790000000  0.4575610000000 1.0
C      1  0.4407640000000  0.5315010000000  0.5389820000000 1.0
C      1  0.5215380000000  0.5339750000000  0.5657650000000 1.0
C      1  0.5706460000000  0.4678750000000  0.4977570000000 1.0
C      1  0.5183590000000  0.4688960000000  0.5644820000000 1.0
C      1  0.4462190000000  0.4664920000000  0.5430980000000 1.0
C      1  0.4419740000000  0.4656240000000  0.4583140000000 1.0
C      1  0.5189190000000  0.4662280000000  0.4356720000000 1.0
C      1  0.4735490000000  0.5276740000000  0.4282580000000 1.0
C      1  0.4226520000000  0.5280200000000  0.5021210000000 1.0
C      1  0.4793080000000  0.5322630000000  0.5715300000000 1.0
C      1  0.5644100000000  0.5267160000000  0.5431710000000 1.0
C      1  0.5597560000000  0.5286920000000  0.4529050000000 1.0
C      1  0.4732400000000  0.4723680000000  0.5730920000000 1.0
C      1  0.4248840000000  0.4695860000000  0.4972220000000 1.0
C      1  0.4788420000000  0.4720980000000  0.4254590000000 1.0
C      1  0.5633420000000  0.4714320000000  0.4571000000000 1.0
C      1  0.5602610000000  0.4706050000000  0.5474330000000 1.0
C      1  0.5407330000000  0.4834970000000  0.4430170000000 1.0
C      1  0.4572990000000  0.4834900000000  0.4406250000000 1.0
C      1  0.4324060000000  0.4820350000000  0.5223540000000 1.0
C      1  0.4986980000000  0.4858840000000  0.5753300000000 1.0
C      1  0.5676560000000  0.4823420000000  0.5217900000000 1.0
C      1  0.5425600000000  0.5151590000000  0.5588300000000 1.0
C      1  0.4580320000000  0.5178230000000  0.5574560000000 1.0
C      1  0.4312660000000  0.5160870000000  0.4770490000000 1.0
C      1  0.5000720000000  0.5161980000000  0.4283140000000 1.0
C      1  0.5679690000000  0.5173380000000  0.4781930000000 1.0
C      1  0.5370980000000  0.5480870000000  0.4818960000000 1.0
C      1  0.4941850000000  0.5480240000000  0.4582590000000 1.0
C      1  0.4584680000000  0.5446040000000  0.4918110000000 1.0
C      1  0.4826510000000  0.5502070000000  0.5298700000000 1.0
C      1  0.5300220000000  0.5453240000000  0.5296240000000 1.0
C      1  0.5348200000000  0.4545800000000  0.5194240000000 1.0
C      1  0.4983020000000  0.4571180000000  0.5447110000000 1.0
C      1  0.4655080000000  0.4543270000000  0.5101140000000 1.0
C      1  0.4777820000000  0.4550600000000  0.4630020000000 1.0
C      1  0.5292710000000  0.4494230000000  0.4728120000000 1.0
C      1  0.5252990000000  0.5738020000000  0.4849070000000 1.0
C      1  0.5011480000000  0.5750240000000  0.4693510000000 1.0
C      1  0.4564160000000  0.5725800000000  0.4984720000000 1.0
C      1  0.4972900000000  0.5712110000000  0.5426310000000 1.0
C      1  0.5182860000000  0.5703250000000  0.5179030000000 1.0
C      1  0.5258960000000  0.4266880000000  0.5203780000000 1.0
C      1  0.4993200000000  0.4307090000000  0.5326140000000 1.0
C      1  0.4566250000000  0.4313240000000  0.4945440000000 1.0
C      1  0.4827480000000  0.4264750000000  0.4657960000000 1.0
C      1  0.5272430000000  0.4252960000000  0.4897570000000 1.0
C      1  0.4676200000000  0.5496950000000  0.4461470000000 1.0
C      1  0.4378240000000  0.5506140000000  0.5145950000000 1.0
C      1  0.4979680000000  0.5551770000000  0.5668300000000 1.0
C      1  0.5588320000000  0.5483980000000  0.5243900000000 1.0
C      1  0.5403710000000  0.5508750000000  0.4531470000000 1.0
C      1  0.4705160000000  0.4513210000000  0.5532820000000 1.0
C      1  0.4361960000000  0.4469920000000  0.4821310000000 1.0
C      1  0.4934890000000  0.4498500000000  0.4373420000000 1.0
C      1  0.5583350000000  0.4499270000000  0.4768030000000 1.0
C      1  0.5461240000000  0.4461850000000  0.5437260000000 1.0
C      1  0.4534730000000  0.4885620000000  0.5608580000000 1.0
C      1  0.5408460000000  0.4866710000000  0.5615680000000 1.0
C      1  0.5730350000000  0.4886860000000  0.4781900000000 1.0
C      1  0.5024910000000  0.4878750000000  0.4232750000000 1.0
C      1  0.4282760000000  0.4872730000000  0.4743780000000 1.0
C      1  0.4523650000000  0.5118790000000  0.4392530000000 1.0
C      1  0.5424080000000  0.5124710000000  0.4363040000000 1.0
C      1  0.5742780000000  0.5103360000000  0.5217830000000 1.0
C      1  0.5015790000000  0.5145910000000  0.5756420000000 1.0
C      1  0.4267370000000  0.5107230000000  0.5248020000000 1.0
C      1  0.4900190000000  0.4802860000000  0.4760590000000 1.0
C      1  0.4742830000000  0.4811100000000  0.5007440000000 1.0
C      1  0.4931690000000  0.4868160000000  0.5232500000000 1.0
C      1  0.5202440000000  0.4797950000000  0.5119870000000 1.0
C      1  0.5173800000000  0.4747970000000  0.4834540000000 1.0
C      1  0.4918640000000  0.5173050000000  0.5233120000000 1.0
C      1  0.4763920000000  0.5219680000000  0.4981600000000 1.0
C      1  0.4947950000000  0.5222640000000  0.4756680000000 1.0
C      1  0.5210200000000  0.5234920000000  0.4878080000000 1.0
C      1  0.5200600000000  0.5206200000000  0.5164570000000 1.0
C      1  0.4817380000000  0.5825280000000  0.4911240000000 1.0
C      1  0.4999280000000  0.4164610000000  0.4855930000000 1.0
C      1  0.4874530000000  0.4355250000000  0.5074930000000 1.0
C      1  0.4941440000000  0.5594760000000  0.5053840000000 1.0
END
