TITL C-2441168-9922-1177 0.0693282846107983 125000 -12962.754146918 0 0 101 (C1) n - 1
REM
REM in /home/bkarasulu/work/CARBON/AIRSS/Generating-Clusters/ReaxFF-fromJPCA2015/Units_Real/with-SteepDescent/Higher-Symm
REM
REM
REM
REM
REM
REM ./C.cell (1df0a924f5614ab8850e4351716899ee)
REM
REM compiler GCC version 9.2.1 20190827 (Red Hat 9.2.1-1)
REM options -cpp -mtune=generic -march=x86-64 -g -O0 -fpre-include=/usr/include/finclude/math-vector-fortran.h
REM seed 1552807044 1880414244 104813205 -733814335 -957023152 -1607395021 -852242472 -1699152232 -821513346 -1050444252 370279850 -1582597550 -776056157 1502557332 1766372210 1790671418 1555548306 1805785175 -509806645 519828773 837729822 496729620 -1050230380 -2043875783 -1235604924 -1283349211 -913100345 -267018532 352772482 -1530772925 1889133144 998519256 -1546837821
REM
CELL 1.54180   50.00000   50.00000   50.00000   90.00000   90.00000   90.00000
LATT -1
SFAC C  
C      1  0.5457810000000  0.4493380000000  0.5249390000000 1.0
C      1  0.5400000000000  0.5513700000000  0.5287740000000 1.0
C      1  0.4707110000000  0.4472190000000  0.4961150000000 1.0
C      1  0.4700170000000  0.5547680000000  0.4947080000000 1.0
C      1  0.5735700000000  0.4860430000000  0.4557690000000 1.0
C      1  0.5732360000000  0.5151160000000  0.4572680000000 1.0
C      1  0.5135830000000  0.4496600000000  0.4348820000000 1.0
C      1  0.5057970000000  0.5573830000000  0.4385670000000 1.0
C      1  0.4369780000000  0.4840420000000  0.4503250000000 1.0
C      1  0.4376440000000  0.5128710000000  0.4538710000000 1.0
C      1  0.5710390000000  0.4750040000000  0.4838650000000 1.0
C      1  0.5678850000000  0.5228370000000  0.4863620000000 1.0
C      1  0.5157290000000  0.4277670000000  0.4888800000000 1.0
C      1  0.5173120000000  0.5751850000000  0.4832690000000 1.0
C      1  0.4510470000000  0.4828680000000  0.4770670000000 1.0
C      1  0.4477170000000  0.5104740000000  0.4826320000000 1.0
C      1  0.5175990000000  0.5617660000000  0.5489700000000 1.0
C      1  0.5180030000000  0.4333730000000  0.5543840000000 1.0
C      1  0.4290660000000  0.5081670000000  0.5167470000000 1.0
C      1  0.4233290000000  0.4807020000000  0.5275080000000 1.0
C      1  0.4474670000000  0.5450140000000  0.5546000000000 1.0
C      1  0.4515560000000  0.4544870000000  0.5564720000000 1.0
C      1  0.5310610000000  0.5161770000000  0.4257560000000 1.0
C      1  0.5342990000000  0.4864020000000  0.4215320000000 1.0
C      1  0.4798410000000  0.4565220000000  0.5653380000000 1.0
C      1  0.4742950000000  0.5435720000000  0.5657470000000 1.0
C      1  0.4270980000000  0.4550510000000  0.5137000000000 1.0
C      1  0.4275930000000  0.5541080000000  0.5116540000000 1.0
C      1  0.4992880000000  0.5513900000000  0.4896080000000 1.0
C      1  0.4995180000000  0.4503400000000  0.5007520000000 1.0
C      1  0.5609990000000  0.5509620000000  0.5512450000000 1.0
C      1  0.5607990000000  0.4477240000000  0.5506540000000 1.0
C      1  0.4471190000000  0.5523090000000  0.4760390000000 1.0
C      1  0.4528760000000  0.4426670000000  0.4729930000000 1.0
C      1  0.4686000000000  0.4873620000000  0.5431460000000 1.0
C      1  0.4635530000000  0.5103140000000  0.5492560000000 1.0
C      1  0.4231590000000  0.4581780000000  0.4848960000000 1.0
C      1  0.4204870000000  0.5423200000000  0.4879770000000 1.0
C      1  0.5641240000000  0.5229860000000  0.5547520000000 1.0
C      1  0.5694550000000  0.4739380000000  0.5491580000000 1.0
C      1  0.5033360000000  0.5346680000000  0.4209820000000 1.0
C      1  0.5081000000000  0.4733120000000  0.4199280000000 1.0
C      1  0.5064700000000  0.4737330000000  0.5163180000000 1.0
C      1  0.5137260000000  0.5251330000000  0.5139090000000 1.0
C      1  0.4892980000000  0.5607640000000  0.5454940000000 1.0
C      1  0.4903830000000  0.4366440000000  0.5470480000000 1.0
C      1  0.4627800000000  0.5484270000000  0.4527220000000 1.0
C      1  0.4643090000000  0.4488930000000  0.4473160000000 1.0
C      1  0.5042440000000  0.4840290000000  0.4595350000000 1.0
C      1  0.5142080000000  0.5093110000000  0.4507220000000 1.0
C      1  0.5658770000000  0.5151970000000  0.5277260000000 1.0
C      1  0.5675140000000  0.4870300000000  0.5289050000000 1.0
C      1  0.5428940000000  0.4830650000000  0.4902390000000 1.0
C      1  0.5378040000000  0.5131320000000  0.4944130000000 1.0
C      1  0.4691520000000  0.4132740000000  0.4735100000000 1.0
C      1  0.4810220000000  0.5902700000000  0.4745490000000 1.0
C      1  0.5351100000000  0.4789900000000  0.5782840000000 1.0
C      1  0.5294530000000  0.5192230000000  0.5789400000000 1.0
C      1  0.4799960000000  0.4865460000000  0.4741340000000 1.0
C      1  0.4755380000000  0.5132510000000  0.4838760000000 1.0
C      1  0.4102810000000  0.5133130000000  0.4944740000000 1.0
C      1  0.4114530000000  0.4855390000000  0.4836640000000 1.0
C      1  0.4813110000000  0.4871870000000  0.5180530000000 1.0
C      1  0.4869500000000  0.5137940000000  0.5097400000000 1.0
C      1  0.4914090000000  0.4379850000000  0.4482150000000 1.0
C      1  0.4913130000000  0.5456650000000  0.4607150000000 1.0
C      1  0.5553370000000  0.5293160000000  0.4398400000000 1.0
C      1  0.5546720000000  0.4738440000000  0.4376550000000 1.0
C      1  0.4380210000000  0.4796640000000  0.5520890000000 1.0
C      1  0.4372850000000  0.5202410000000  0.5436020000000 1.0
C      1  0.5828710000000  0.5263850000000  0.5077280000000 1.0
C      1  0.5785610000000  0.4760200000000  0.5101070000000 1.0
C      1  0.5423700000000  0.4281790000000  0.5393820000000 1.0
C      1  0.5578010000000  0.5710730000000  0.5315810000000 1.0
C      1  0.4471010000000  0.5616250000000  0.5310560000000 1.0
C      1  0.4480960000000  0.4418230000000  0.5306130000000 1.0
C      1  0.5139600000000  0.4875850000000  0.5430450000000 1.0
C      1  0.5182330000000  0.5157830000000  0.5409140000000 1.0
C      1  0.5383810000000  0.4514310000000  0.4514190000000 1.0
C      1  0.5422140000000  0.5465300000000  0.4587870000000 1.0
C      1  0.4901030000000  0.4862340000000  0.5636040000000 1.0
C      1  0.4796470000000  0.5156060000000  0.5716350000000 1.0
C      1  0.4552820000000  0.5268630000000  0.4352190000000 1.0
C      1  0.4582490000000  0.4727790000000  0.4327890000000 1.0
C      1  0.5263970000000  0.4707840000000  0.4710750000000 1.0
C      1  0.5264440000000  0.5246240000000  0.4698260000000 1.0
C      1  0.4719970000000  0.5776290000000  0.5280770000000 1.0
C      1  0.4703410000000  0.4233500000000  0.5298480000000 1.0
C      1  0.4679010000000  0.5840690000000  0.4990590000000 1.0
C      1  0.4685850000000  0.4180310000000  0.5018530000000 1.0
C      1  0.4800280000000  0.5161810000000  0.4225440000000 1.0
C      1  0.4814540000000  0.4871240000000  0.4218410000000 1.0
C      1  0.5454560000000  0.5680610000000  0.4790730000000 1.0
C      1  0.5427680000000  0.4314100000000  0.4772770000000 1.0
C      1  0.5033240000000  0.5843110000000  0.4583590000000 1.0
C      1  0.4973100000000  0.4172500000000  0.4683140000000 1.0
C      1  0.5191290000000  0.5426670000000  0.5696860000000 1.0
C      1  0.5209840000000  0.4566220000000  0.5705110000000 1.0
C      1  0.5561280000000  0.5646670000000  0.5050460000000 1.0
C      1  0.5540910000000  0.4359810000000  0.5016760000000 1.0
C      1  0.5522690000000  0.5023380000000  0.5737310000000 1.0
END
