TITL C-2441161-5029-1241 0.221990191289702 125000 -19777.3859942783 0 0 170 (C1) n - 1
REM
REM in /home/bkarasulu/work/CARBON/AIRSS/Generating-Clusters/ReaxFF-fromJPCA2015/Units_Real/with-SteepDescent/Higher-Symm
REM
REM
REM
REM
REM
REM ./C.cell (1df0a924f5614ab8850e4351716899ee)
REM
REM compiler GCC version 9.2.1 20190827 (Red Hat 9.2.1-1)
REM options -cpp -mtune=generic -march=x86-64 -g -O0 -fpre-include=/usr/include/finclude/math-vector-fortran.h
REM seed 155788698 1089720171 1913004240 -621749061 -137626266 1994008735 1096440920 72761241 -2142368462 -296237589 -838799527 -297791044 1599469211 1679847813 -344640422 242762141 -2008272478 -106878002 -1246493151 -390528866 -1262274400 -287724370 -868865371 -1701126931 1190686185 557668849 1426297463 -702295621 196237931 1540215969 -608439157 -1408428613 889388467
REM
CELL 1.54180   50.00000   50.00000   50.00000   90.00000   90.00000   90.00000
LATT -1
SFAC C  
C      1  0.4827530000000  0.4640700000000  0.4506530000000 1.0
C      1  0.4834460000000  0.4757310000000  0.5575520000000 1.0
C      1  0.4823900000000  0.5597150000000  0.4908260000000 1.0
C      1  0.5008260000000  0.5397660000000  0.4985400000000 1.0
C      1  0.5017630000000  0.4764420000000  0.4690060000000 1.0
C      1  0.5037490000000  0.4837800000000  0.5384810000000 1.0
C      1  0.5811040000000  0.4451400000000  0.5379530000000 1.0
C      1  0.5802750000000  0.5604460000000  0.5266460000000 1.0
C      1  0.5820250000000  0.4944590000000  0.4337810000000 1.0
C      1  0.4516530000000  0.4827840000000  0.4719990000000 1.0
C      1  0.4597730000000  0.4905500000000  0.5254360000000 1.0
C      1  0.4599000000000  0.5262280000000  0.4952190000000 1.0
C      1  0.4563150000000  0.4190330000000  0.5201280000000 1.0
C      1  0.4558310000000  0.5605890000000  0.5561330000000 1.0
C      1  0.4582100000000  0.5232720000000  0.4192590000000 1.0
C      1  0.4406610000000  0.5759580000000  0.5033450000000 1.0
C      1  0.4420370000000  0.4656880000000  0.4280800000000 1.0
C      1  0.4422740000000  0.4546140000000  0.5659550000000 1.0
C      1  0.6017030000000  0.5265550000000  0.4962870000000 1.0
C      1  0.5997420000000  0.4814380000000  0.4781380000000 1.0
C      1  0.5989980000000  0.4899760000000  0.5270300000000 1.0
C      1  0.5276530000000  0.5528960000000  0.4874570000000 1.0
C      1  0.5271180000000  0.4596190000000  0.4590920000000 1.0
C      1  0.5267940000000  0.4839780000000  0.5539880000000 1.0
C      1  0.5449820000000  0.5035580000000  0.4102580000000 1.0
C      1  0.5445210000000  0.4196740000000  0.5435200000000 1.0
C      1  0.5444730000000  0.5761810000000  0.5486690000000 1.0
C      1  0.4486030000000  0.4091560000000  0.4729060000000 1.0
C      1  0.4493230000000  0.5241680000000  0.5900840000000 1.0
C      1  0.4493830000000  0.5683770000000  0.4344490000000 1.0
C      1  0.4424910000000  0.4723950000000  0.5114340000000 1.0
C      1  0.4432240000000  0.5275110000000  0.5180940000000 1.0
C      1  0.4365630000000  0.5048250000000  0.4710730000000 1.0
C      1  0.5242320000000  0.5141610000000  0.4562140000000 1.0
C      1  0.5245360000000  0.4530480000000  0.5100970000000 1.0
C      1  0.5236260000000  0.5302500000000  0.5362270000000 1.0
C      1  0.5154060000000  0.5691770000000  0.4285930000000 1.0
C      1  0.5171720000000  0.4074530000000  0.4761560000000 1.0
C      1  0.5159960000000  0.5250230000000  0.5928570000000 1.0
C      1  0.5694060000000  0.4896900000000  0.5381360000000 1.0
C      1  0.5565810000000  0.5415070000000  0.4866230000000 1.0
C      1  0.5689660000000  0.4714700000000  0.4709790000000 1.0
C      1  0.4953310000000  0.5188920000000  0.5734220000000 1.0
C      1  0.4957370000000  0.5561130000000  0.4454760000000 1.0
C      1  0.4941970000000  0.4251050000000  0.4775110000000 1.0
C      1  0.5995040000000  0.4539670000000  0.4917950000000 1.0
C      1  0.5996200000000  0.5160030000000  0.5429390000000 1.0
C      1  0.5995770000000  0.5293190000000  0.4668010000000 1.0
C      1  0.4852650000000  0.4390650000000  0.5015160000000 1.0
C      1  0.4859150000000  0.5305510000000  0.5480460000000 1.0
C      1  0.4883340000000  0.5276880000000  0.4457090000000 1.0
C      1  0.4603340000000  0.5444560000000  0.4734360000000 1.0
C      1  0.4616330000000  0.4569550000000  0.4700360000000 1.0
C      1  0.4616540000000  0.4953240000000  0.5529750000000 1.0
C      1  0.4166110000000  0.4423110000000  0.4847080000000 1.0
C      1  0.4161960000000  0.5158110000000  0.5582810000000 1.0
C      1  0.4186680000000  0.5403510000000  0.4588420000000 1.0
C      1  0.5027950000000  0.5578740000000  0.4053020000000 1.0
C      1  0.5046870000000  0.3900650000000  0.4952650000000 1.0
C      1  0.5058970000000  0.5511220000000  0.5989450000000 1.0
C      1  0.4760220000000  0.5140190000000  0.5945960000000 1.0
C      1  0.4752870000000  0.5769970000000  0.4432210000000 1.0
C      1  0.4743940000000  0.4121740000000  0.4604770000000 1.0
C      1  0.4275770000000  0.5659880000000  0.5465620000000 1.0
C      1  0.4287810000000  0.5086370000000  0.4187850000000 1.0
C      1  0.4289440000000  0.4253690000000  0.5335980000000 1.0
C      1  0.4018460000000  0.4658840000000  0.4760030000000 1.0
C      1  0.4036820000000  0.4963400000000  0.5402720000000 1.0
C      1  0.4044780000000  0.5350590000000  0.4837470000000 1.0
C      1  0.5346800000000  0.5049100000000  0.4789210000000 1.0
C      1  0.5333770000000  0.4769730000000  0.5061070000000 1.0
C      1  0.5338910000000  0.5153200000000  0.5170940000000 1.0
C      1  0.5821250000000  0.5502190000000  0.4554110000000 1.0
C      1  0.5813920000000  0.4339600000000  0.4779550000000 1.0
C      1  0.5828450000000  0.5139570000000  0.5666130000000 1.0
C      1  0.5298640000000  0.5807990000000  0.4712520000000 1.0
C      1  0.5305390000000  0.4348460000000  0.4430720000000 1.0
C      1  0.5303700000000  0.4837130000000  0.5834460000000 1.0
C      1  0.5622550000000  0.5408560000000  0.5159330000000 1.0
C      1  0.5629060000000  0.4947800000000  0.4551660000000 1.0
C      1  0.5630320000000  0.4647610000000  0.5267840000000 1.0
C      1  0.5557810000000  0.4675930000000  0.5821300000000 1.0
C      1  0.5546150000000  0.5877110000000  0.4860980000000 1.0
C      1  0.5553180000000  0.4448990000000  0.4297720000000 1.0
C      1  0.4453700000000  0.5822030000000  0.4756500000000 1.0
C      1  0.4478320000000  0.4417230000000  0.4447730000000 1.0
C      1  0.4482520000000  0.4827790000000  0.5768990000000 1.0
C      1  0.4979860000000  0.5084290000000  0.4633560000000 1.0
C      1  0.4992260000000  0.4595480000000  0.5141610000000 1.0
C      1  0.5008590000000  0.5340060000000  0.5260600000000 1.0
C      1  0.5597540000000  0.4706150000000  0.4992120000000 1.0
C      1  0.5603920000000  0.5142290000000  0.5244100000000 1.0
C      1  0.5610590000000  0.5140950000000  0.4759640000000 1.0
C      1  0.4571200000000  0.5337290000000  0.5432240000000 1.0
C      1  0.4600430000000  0.5240440000000  0.4510850000000 1.0
C      1  0.4572620000000  0.4464050000000  0.5046620000000 1.0
C      1  0.5732970000000  0.4861390000000  0.5699410000000 1.0
C      1  0.5723200000000  0.5675850000000  0.4766460000000 1.0
C      1  0.5727300000000  0.4464420000000  0.4523590000000 1.0
C      1  0.4022240000000  0.4815930000000  0.4522060000000 1.0
C      1  0.4043310000000  0.4675280000000  0.5377260000000 1.0
C      1  0.4024030000000  0.5471240000000  0.5089300000000 1.0
C      1  0.4322340000000  0.5661700000000  0.4566650000000 1.0
C      1  0.4311820000000  0.4292680000000  0.4640070000000 1.0
C      1  0.4310630000000  0.5054060000000  0.5803260000000 1.0
C      1  0.4967860000000  0.4720240000000  0.5894720000000 1.0
C      1  0.4955280000000  0.5846760000000  0.4809260000000 1.0
C      1  0.4968000000000  0.4381820000000  0.4333640000000 1.0
C      1  0.4892530000000  0.4408610000000  0.5890370000000 1.0
C      1  0.4912100000000  0.6022050000000  0.5031080000000 1.0
C      1  0.4890290000000  0.4522520000000  0.4093050000000 1.0
C      1  0.4182280000000  0.4224000000000  0.5067460000000 1.0
C      1  0.4189550000000  0.5448810000000  0.5644210000000 1.0
C      1  0.4201060000000  0.5332730000000  0.4298630000000 1.0
C      1  0.5314520000000  0.4560020000000  0.5532230000000 1.0
C      1  0.5311580000000  0.5685380000000  0.5118660000000 1.0
C      1  0.5302140000000  0.4756620000000  0.4351440000000 1.0
C      1  0.4730660000000  0.4856870000000  0.5972670000000 1.0
C      1  0.4722160000000  0.5938580000000  0.4672760000000 1.0
C      1  0.4713890000000  0.4249900000000  0.4349750000000 1.0
C      1  0.5196800000000  0.5854240000000  0.5603250000000 1.0
C      1  0.5205960000000  0.5090180000000  0.3952630000000 1.0
C      1  0.5205560000000  0.4038740000000  0.5454660000000 1.0
C      1  0.5089110000000  0.5321410000000  0.4050120000000 1.0
C      1  0.5108810000000  0.4010960000000  0.5190360000000 1.0
C      1  0.5087390000000  0.5649420000000  0.5763420000000 1.0
C      1  0.5110590000000  0.4711890000000  0.4143490000000 1.0
C      1  0.5100570000000  0.4414590000000  0.5646170000000 1.0
C      1  0.5137220000000  0.5898560000000  0.5179440000000 1.0
C      1  0.5585460000000  0.5308240000000  0.5697440000000 1.0
C      1  0.5570740000000  0.5457850000000  0.4401770000000 1.0
C      1  0.5596910000000  0.4223670000000  0.4944470000000 1.0
C      1  0.4859630000000  0.5164860000000  0.4907850000000 1.0
C      1  0.4902080000000  0.4770370000000  0.4953260000000 1.0
C      1  0.4840550000000  0.4972050000000  0.5108100000000 1.0
C      1  0.4985550000000  0.4934570000000  0.4038560000000 1.0
C      1  0.4980260000000  0.4199160000000  0.5523490000000 1.0
C      1  0.4988870000000  0.5850410000000  0.5415310000000 1.0
C      1  0.5417860000000  0.4314150000000  0.5166120000000 1.0
C      1  0.5421620000000  0.5474270000000  0.5516120000000 1.0
C      1  0.5420050000000  0.5209110000000  0.4338560000000 1.0
C      1  0.4420230000000  0.5476900000000  0.4156110000000 1.0
C      1  0.4405440000000  0.4048080000000  0.4999400000000 1.0
C      1  0.4437990000000  0.5505750000000  0.5809470000000 1.0
C      1  0.4099970000000  0.4935080000000  0.4746690000000 1.0
C      1  0.4147660000000  0.4835990000000  0.5156470000000 1.0
C      1  0.4151920000000  0.5230000000000  0.5090290000000 1.0
C      1  0.4666240000000  0.4507420000000  0.5519230000000 1.0
C      1  0.4658460000000  0.5681190000000  0.5144110000000 1.0
C      1  0.4663750000000  0.4798550000000  0.4319730000000 1.0
C      1  0.4728390000000  0.4783110000000  0.4039140000000 1.0
C      1  0.4721210000000  0.4262610000000  0.5652580000000 1.0
C      1  0.4745200000000  0.5924880000000  0.5270480000000 1.0
C      1  0.4181690000000  0.5676010000000  0.5191940000000 1.0
C      1  0.4203150000000  0.4839620000000  0.4308060000000 1.0
C      1  0.4219120000000  0.4482230000000  0.5481190000000 1.0
C      1  0.6005960000000  0.4574370000000  0.5203920000000 1.0
C      1  0.6004010000000  0.5386780000000  0.5240830000000 1.0
C      1  0.6008100000000  0.5027560000000  0.4539880000000 1.0
C      1  0.5410770000000  0.4222330000000  0.4728590000000 1.0
C      1  0.5401250000000  0.5134220000000  0.5834230000000 1.0
C      1  0.5388440000000  0.5681750000000  0.4448110000000 1.0
C      1  0.5573530000000  0.5797060000000  0.5198820000000 1.0
C      1  0.5565210000000  0.4774400000000  0.4208560000000 1.0
C      1  0.5579880000000  0.4422790000000  0.5596190000000 1.0
C      1  0.4827310000000  0.5582670000000  0.5838310000000 1.0
C      1  0.4808360000000  0.5381230000000  0.4051490000000 1.0
C      1  0.4837910000000  0.3998730000000  0.5126420000000 1.0
C      1  0.5254180000000  0.4997260000000  0.5007690000000 1.0
C      1  0.6004540000000  0.4995800000000  0.5003460000000 1.0
END
