TITL C-2441168-9922-841 0.0176572909907905 125000 -16206.8615508821 0 0 111 (C1) n - 1
REM
REM in /home/bkarasulu/work/CARBON/AIRSS/Generating-Clusters/ReaxFF-fromJPCA2015/Units_Real/with-SteepDescent/Higher-Symm
REM
REM
REM
REM
REM
REM ./C.cell (1df0a924f5614ab8850e4351716899ee)
REM
REM compiler GCC version 9.2.1 20190827 (Red Hat 9.2.1-1)
REM options -cpp -mtune=generic -march=x86-64 -g -O0 -fpre-include=/usr/include/finclude/math-vector-fortran.h
REM seed 27237092 -1971295860 -670598734 1517429106 -693706718 -1295833311 -1768996597 -1352483902 318069862 1523110168 49767953 421410090 1560220495 -156758791 726240229 1207317177 -400577110 -550008660 976880910 1121828066 -1869407105 1965879216 -568086905 904785584 -481995203 1633282119 -227497540 997261451 348170678 368252405 -1909138042 -1699137592 -1222794487
REM
CELL 1.54180   50.00000   50.00000   50.00000   90.00000   90.00000   90.00000
LATT -1
SFAC C  
C      1  0.5836920000000  0.5171580000000  0.4764830000000 1.0
C      1  0.4153290000000  0.5134040000000  0.5252190000000 1.0
C      1  0.4569920000000  0.5797930000000  0.4779260000000 1.0
C      1  0.5391180000000  0.5773570000000  0.5213140000000 1.0
C      1  0.4574620000000  0.4932970000000  0.4730130000000 1.0
C      1  0.5453490000000  0.4919890000000  0.5276510000000 1.0
C      1  0.5233150000000  0.5290350000000  0.5804110000000 1.0
C      1  0.4799120000000  0.5289880000000  0.4233080000000 1.0
C      1  0.5599860000000  0.4711570000000  0.4557980000000 1.0
C      1  0.4395650000000  0.4715670000000  0.5451120000000 1.0
C      1  0.4077400000000  0.4918740000000  0.4760430000000 1.0
C      1  0.5929090000000  0.4927300000000  0.5255420000000 1.0
C      1  0.5565790000000  0.5051530000000  0.4282620000000 1.0
C      1  0.4470220000000  0.5096290000000  0.5710940000000 1.0
C      1  0.5908960000000  0.4913180000000  0.4950270000000 1.0
C      1  0.4064180000000  0.4916760000000  0.5064140000000 1.0
C      1  0.5600540000000  0.4535890000000  0.5515980000000 1.0
C      1  0.4392740000000  0.4534460000000  0.4470980000000 1.0
C      1  0.5254900000000  0.5895810000000  0.4968580000000 1.0
C      1  0.4718400000000  0.5882400000000  0.5030330000000 1.0
C      1  0.5589680000000  0.4806890000000  0.5033200000000 1.0
C      1  0.4464500000000  0.4799830000000  0.4963950000000 1.0
C      1  0.4777850000000  0.4384390000000  0.4562770000000 1.0
C      1  0.5212380000000  0.4378000000000  0.5432860000000 1.0
C      1  0.4141150000000  0.4613140000000  0.5448510000000 1.0
C      1  0.5855760000000  0.4627620000000  0.4527150000000 1.0
C      1  0.5257320000000  0.5903310000000  0.4661410000000 1.0
C      1  0.4676980000000  0.5754840000000  0.5301580000000 1.0
C      1  0.4721570000000  0.5466680000000  0.4479630000000 1.0
C      1  0.5306580000000  0.5466370000000  0.5538340000000 1.0
C      1  0.4678160000000  0.4587550000000  0.5780780000000 1.0
C      1  0.5327470000000  0.4573540000000  0.4217150000000 1.0
C      1  0.4496920000000  0.4338920000000  0.4668060000000 1.0
C      1  0.5496090000000  0.4345560000000  0.5317820000000 1.0
C      1  0.4882440000000  0.4525310000000  0.5080410000000 1.0
C      1  0.5110840000000  0.4519650000000  0.4910650000000 1.0
C      1  0.4750550000000  0.5037840000000  0.5274100000000 1.0
C      1  0.5266790000000  0.5035020000000  0.4738810000000 1.0
C      1  0.4065890000000  0.4641140000000  0.5178160000000 1.0
C      1  0.5924910000000  0.4638760000000  0.4801560000000 1.0
C      1  0.5229440000000  0.5318700000000  0.5292120000000 1.0
C      1  0.4823200000000  0.5332900000000  0.4726170000000 1.0
C      1  0.5208630000000  0.5710670000000  0.5422390000000 1.0
C      1  0.4744240000000  0.5768420000000  0.4553370000000 1.0
C      1  0.5306270000000  0.5327420000000  0.4747050000000 1.0
C      1  0.4757170000000  0.5318170000000  0.5237220000000 1.0
C      1  0.5331180000000  0.5240360000000  0.4254860000000 1.0
C      1  0.4711240000000  0.5299760000000  0.5773190000000 1.0
C      1  0.4796160000000  0.5522040000000  0.5634320000000 1.0
C      1  0.5271920000000  0.5716090000000  0.4433690000000 1.0
C      1  0.5013080000000  0.5422790000000  0.5140020000000 1.0
C      1  0.5054760000000  0.5427260000000  0.4863160000000 1.0
C      1  0.5760980000000  0.5499560000000  0.5016480000000 1.0
C      1  0.4162470000000  0.5604300000000  0.5009430000000 1.0
C      1  0.4815590000000  0.4255760000000  0.5589400000000 1.0
C      1  0.5178350000000  0.4264950000000  0.4429580000000 1.0
C      1  0.4980830000000  0.4897310000000  0.5373100000000 1.0
C      1  0.5026990000000  0.4909380000000  0.4690810000000 1.0
C      1  0.5789730000000  0.5437410000000  0.5417990000000 1.0
C      1  0.4226640000000  0.5417880000000  0.4594690000000 1.0
C      1  0.4748990000000  0.4500410000000  0.5515100000000 1.0
C      1  0.5234960000000  0.4514750000000  0.4476170000000 1.0
C      1  0.4537860000000  0.5160870000000  0.4269650000000 1.0
C      1  0.5490530000000  0.5166460000000  0.5741720000000 1.0
C      1  0.5728190000000  0.4533520000000  0.4995590000000 1.0
C      1  0.4285530000000  0.4563430000000  0.4984840000000 1.0
C      1  0.5557610000000  0.4752580000000  0.4266230000000 1.0
C      1  0.4480680000000  0.4806590000000  0.5724300000000 1.0
C      1  0.4999400000000  0.4143880000000  0.5407660000000 1.0
C      1  0.4994890000000  0.4143980000000  0.4603200000000 1.0
C      1  0.4817270000000  0.4674100000000  0.4137070000000 1.0
C      1  0.5183640000000  0.4685510000000  0.5836230000000 1.0
C      1  0.4539480000000  0.5498920000000  0.5274120000000 1.0
C      1  0.5354160000000  0.5444370000000  0.4456330000000 1.0
C      1  0.4971380000000  0.5184970000000  0.5844700000000 1.0
C      1  0.5053900000000  0.5166280000000  0.4186550000000 1.0
C      1  0.4146750000000  0.5164970000000  0.4682410000000 1.0
C      1  0.5861690000000  0.5175260000000  0.5334800000000 1.0
C      1  0.4442580000000  0.4317800000000  0.4953860000000 1.0
C      1  0.5550620000000  0.4309670000000  0.5033620000000 1.0
C      1  0.5008600000000  0.4897720000000  0.5723090000000 1.0
C      1  0.4995570000000  0.4886090000000  0.4194930000000 1.0
C      1  0.4235470000000  0.4779930000000  0.4525390000000 1.0
C      1  0.5779530000000  0.4773940000000  0.5485610000000 1.0
C      1  0.4705450000000  0.4291600000000  0.5088430000000 1.0
C      1  0.5283940000000  0.4282540000000  0.4895850000000 1.0
C      1  0.5032430000000  0.4623230000000  0.4662310000000 1.0
C      1  0.4962380000000  0.4605970000000  0.5335580000000 1.0
C      1  0.4256230000000  0.5423520000000  0.5202680000000 1.0
C      1  0.5612040000000  0.5325560000000  0.4867920000000 1.0
C      1  0.5556450000000  0.4955200000000  0.5535650000000 1.0
C      1  0.4464660000000  0.4950470000000  0.4469430000000 1.0
C      1  0.5199390000000  0.5041850000000  0.5254580000000 1.0
C      1  0.4807830000000  0.5063060000000  0.4749600000000 1.0
C      1  0.4423870000000  0.5398020000000  0.4383860000000 1.0
C      1  0.5598070000000  0.5411770000000  0.5636200000000 1.0
C      1  0.4296670000000  0.5119620000000  0.5494260000000 1.0
C      1  0.5714960000000  0.5133230000000  0.4512340000000 1.0
C      1  0.5663770000000  0.5660930000000  0.5218890000000 1.0
C      1  0.4303120000000  0.5664660000000  0.4777040000000 1.0
C      1  0.4914170000000  0.5728010000000  0.5481320000000 1.0
C      1  0.5013210000000  0.5863210000000  0.4505640000000 1.0
C      1  0.5475370000000  0.4850700000000  0.4785020000000 1.0
C      1  0.4521130000000  0.4873300000000  0.5225120000000 1.0
C      1  0.5101570000000  0.4667400000000  0.4081710000000 1.0
C      1  0.4910640000000  0.4692980000000  0.5887680000000 1.0
C      1  0.5343630000000  0.4512360000000  0.5670260000000 1.0
C      1  0.4658830000000  0.4519440000000  0.4325560000000 1.0
C      1  0.4907710000000  0.4082780000000  0.5126730000000 1.0
C      1  0.5077030000000  0.4075040000000  0.4885310000000 1.0
C      1  0.4988200000000  0.5896970000000  0.4985690000000 1.0
END
