TITL C-2441166-8118-367 0.0452154174187703 125000 -10958.5200825648 0 0 88 (C1) n - 1
REM
REM in /home/bkarasulu/work/CARBON/AIRSS/Generating-Clusters/ReaxFF-fromJPCA2015/Units_Real/with-SteepDescent/Higher-Symm
REM
REM
REM
REM
REM
REM ./C.cell (1df0a924f5614ab8850e4351716899ee)
REM
REM compiler GCC version 9.2.1 20190827 (Red Hat 9.2.1-1)
REM options -cpp -mtune=generic -march=x86-64 -g -O0 -fpre-include=/usr/include/finclude/math-vector-fortran.h
REM seed -1553867537 -1820921190 -802142970 1267841107 -951224555 -1965396311 2124830926 -829625114 -1148899802 -622084946 1906629573 1458055473 -1332014037 -356624888 -1857745021 1089968661 221371963 -1208431264 -945639654 -1537328876 2084058784 -1930258605 -764690957 1671818495 1867700825 1512645601 538804420 -816641497 -479432561 -925591828 1196060954 618597665 2001949923
REM
CELL 1.54180   50.00000   50.00000   50.00000   90.00000   90.00000   90.00000
LATT -1
SFAC C  
C      1  0.5540860000000  0.4851840000000  0.5383550000000 1.0
C      1  0.4794640000000  0.5644150000000  0.5396390000000 1.0
C      1  0.4574580000000  0.4518920000000  0.5410230000000 1.0
C      1  0.4342530000000  0.4859780000000  0.4595220000000 1.0
C      1  0.5209640000000  0.5621820000000  0.4640320000000 1.0
C      1  0.5445960000000  0.4532140000000  0.4633920000000 1.0
C      1  0.5368500000000  0.4269940000000  0.5060980000000 1.0
C      1  0.5456950000000  0.5666690000000  0.5046490000000 1.0
C      1  0.4195790000000  0.5064280000000  0.5065420000000 1.0
C      1  0.4643370000000  0.4273990000000  0.4950310000000 1.0
C      1  0.4545010000000  0.5668220000000  0.4965140000000 1.0
C      1  0.5827710000000  0.5071450000000  0.4948970000000 1.0
C      1  0.5266570000000  0.5078560000000  0.4863110000000 1.0
C      1  0.4696860000000  0.5192360000000  0.4833350000000 1.0
C      1  0.4980430000000  0.4664100000000  0.4725000000000 1.0
C      1  0.4813970000000  0.5157620000000  0.5080890000000 1.0
C      1  0.5316360000000  0.5185740000000  0.5301330000000 1.0
C      1  0.5035990000000  0.4716140000000  0.5145600000000 1.0
C      1  0.4947980000000  0.5277880000000  0.5640590000000 1.0
C      1  0.4873300000000  0.4733520000000  0.5724460000000 1.0
C      1  0.5121350000000  0.4890860000000  0.5660690000000 1.0
C      1  0.5009190000000  0.5276630000000  0.4397020000000 1.0
C      1  0.5229440000000  0.4780640000000  0.4371550000000 1.0
C      1  0.4727770000000  0.4973610000000  0.4371390000000 1.0
C      1  0.5627520000000  0.4389310000000  0.5077070000000 1.0
C      1  0.5254490000000  0.5883550000000  0.5077530000000 1.0
C      1  0.4112900000000  0.4787140000000  0.5087740000000 1.0
C      1  0.4358540000000  0.4351740000000  0.4922350000000 1.0
C      1  0.4748710000000  0.5885710000000  0.4936920000000 1.0
C      1  0.5914340000000  0.4812570000000  0.4965230000000 1.0
C      1  0.5040230000000  0.4541420000000  0.4463800000000 1.0
C      1  0.5305770000000  0.5252450000000  0.4423840000000 1.0
C      1  0.4530070000000  0.5188450000000  0.4402610000000 1.0
C      1  0.4925830000000  0.4463580000000  0.5630550000000 1.0
C      1  0.4685250000000  0.5194100000000  0.5539810000000 1.0
C      1  0.5493460000000  0.5217830000000  0.5538730000000 1.0
C      1  0.5503420000000  0.4693380000000  0.4368550000000 1.0
C      1  0.5028180000000  0.5570170000000  0.4396120000000 1.0
C      1  0.4525110000000  0.4748070000000  0.4386720000000 1.0
C      1  0.4590000000000  0.4725340000000  0.5636800000000 1.0
C      1  0.4990390000000  0.5573140000000  0.5619110000000 1.0
C      1  0.5399830000000  0.4776690000000  0.5618180000000 1.0
C      1  0.4762970000000  0.4978410000000  0.5331430000000 1.0
C      1  0.5032600000000  0.4884730000000  0.5387800000000 1.0
C      1  0.5062360000000  0.5279530000000  0.5365960000000 1.0
C      1  0.5283030000000  0.4993480000000  0.4561100000000 1.0
C      1  0.4818510000000  0.4873880000000  0.4634640000000 1.0
C      1  0.4918480000000  0.5280810000000  0.4680040000000 1.0
C      1  0.5409720000000  0.4496160000000  0.5526910000000 1.0
C      1  0.5261480000000  0.5643690000000  0.5525710000000 1.0
C      1  0.4351590000000  0.4897880000000  0.5552670000000 1.0
C      1  0.4593160000000  0.4473000000000  0.4473690000000 1.0
C      1  0.4755760000000  0.5646520000000  0.4476150000000 1.0
C      1  0.5694420000000  0.4876820000000  0.4490270000000 1.0
C      1  0.4565010000000  0.4441750000000  0.4748960000000 1.0
C      1  0.5675260000000  0.4845580000000  0.4813400000000 1.0
C      1  0.4718790000000  0.5676160000000  0.4750300000000 1.0
C      1  0.5433880000000  0.4467840000000  0.5248870000000 1.0
C      1  0.4314440000000  0.4896600000000  0.5258830000000 1.0
C      1  0.5269090000000  0.5658980000000  0.5245850000000 1.0
C      1  0.5156620000000  0.5384120000000  0.4820460000000 1.0
C      1  0.4570180000000  0.4933270000000  0.4784580000000 1.0
C      1  0.5247720000000  0.4631850000000  0.4824400000000 1.0
C      1  0.4888830000000  0.5440060000000  0.5196620000000 1.0
C      1  0.5438140000000  0.4978890000000  0.5156170000000 1.0
C      1  0.4736390000000  0.4683120000000  0.5222850000000 1.0
C      1  0.5689440000000  0.5360240000000  0.5374020000000 1.0
C      1  0.4462270000000  0.5355600000000  0.5414120000000 1.0
C      1  0.4940980000000  0.4300360000000  0.5387740000000 1.0
C      1  0.4378620000000  0.5303850000000  0.4621810000000 1.0
C      1  0.5540460000000  0.5373100000000  0.4581690000000 1.0
C      1  0.5052080000000  0.4262840000000  0.4622140000000 1.0
C      1  0.5569300000000  0.5456160000000  0.4884590000000 1.0
C      1  0.4317950000000  0.5279410000000  0.4917200000000 1.0
C      1  0.5111400000000  0.4253280000000  0.4910090000000 1.0
C      1  0.4434750000000  0.5451670000000  0.5115140000000 1.0
C      1  0.5717990000000  0.5304300000000  0.5082050000000 1.0
C      1  0.4887470000000  0.4274470000000  0.5103880000000 1.0
C      1  0.5724670000000  0.5169750000000  0.4455010000000 1.0
C      1  0.4528380000000  0.5473330000000  0.4440010000000 1.0
C      1  0.4844350000000  0.4338170000000  0.4438950000000 1.0
C      1  0.4286200000000  0.5175440000000  0.5549760000000 1.0
C      1  0.5516260000000  0.5508860000000  0.5563130000000 1.0
C      1  0.5167840000000  0.4343930000000  0.5553960000000 1.0
C      1  0.4227620000000  0.4564290000000  0.5004400000000 1.0
C      1  0.5776010000000  0.4577530000000  0.4926390000000 1.0
C      1  0.5001160000000  0.5894080000000  0.5007000000000 1.0
C      1  0.5029540000000  0.4963130000000  0.4988190000000 1.0
END
