TITL C-2441169-1362-702 5.69830955313136e-13 125000 -970.708308349899 0 0 8 (C2h) n - 1
REM
REM in /home/bkarasulu/work/CARBON/AIRSS/Generating-Clusters/ReaxFF-fromJPCA2015/Units_Real/with-SteepDescent/Higher-Symm
REM
REM
REM
REM
REM
REM ./C.cell (1df0a924f5614ab8850e4351716899ee)
REM
REM compiler GCC version 9.2.1 20190827 (Red Hat 9.2.1-1)
REM options -cpp -mtune=generic -march=x86-64 -g -O0 -fpre-include=/usr/include/finclude/math-vector-fortran.h
REM seed 130378447 -249267748 672176366 -644033812 914274075 1430420425 255165785 -409691460 468597651 1311037399 987527834 753835062 2112084805 93485950 -2102205311 1527553698 -2013240196 -1784340466 -603117927 2019063695 1555116757 1362903680 47326419 582052684 1568842316 1745630636 988305066 187386041 -730911290 -494987230 1356608031 1097241335 -604983092
REM
CELL 1.54180   50.00000   50.00000   50.00000   90.00000   90.00000   90.00000
LATT -1
SFAC C  
C      1  0.5000180000000  0.4439330000000  0.4660440000000 1.0
C      1  0.5000000000000  0.5303210000000  0.4744330000000 1.0
C      1  0.4999750000000  0.5560670000000  0.5318880000000 1.0
C      1  0.5000060000000  0.4696790000000  0.5234990000000 1.0
C      1  0.5000050000000  0.4831290000000  0.5020880000000 1.0
C      1  0.4999980000000  0.5168710000000  0.4958440000000 1.0
C      1  0.5000130000000  0.4595100000000  0.4842060000000 1.0
C      1  0.4999850000000  0.5404900000000  0.5137270000000 1.0
END
