TITL C-2441162-9305-644 0.162667992550116 125000 -25367.5879359839 0 0 197 (C1) n - 1
REM
REM in /home/bkarasulu/work/CARBON/AIRSS/Generating-Clusters/ReaxFF-fromJPCA2015/Units_Real/with-SteepDescent/Higher-Symm
REM
REM
REM
REM
REM
REM ./C.cell (1df0a924f5614ab8850e4351716899ee)
REM
REM compiler GCC version 9.2.1 20190827 (Red Hat 9.2.1-1)
REM options -cpp -mtune=generic -march=x86-64 -g -O0 -fpre-include=/usr/include/finclude/math-vector-fortran.h
REM seed -453738001 19252424 -1807436057 -1540378420 771006447 -1685333942 -2095448903 -1684521782 1206588898 1945255285 2117775352 -848650118 -447424958 943854946 -448042704 984624995 530101172 -1897741004 -1167149976 1186201886 1844209665 -992969746 2080656096 -815966075 1746594394 -1490797903 263996545 -574603689 -68024888 164212170 476912401 1022793605 926494451
REM
CELL 1.54180   50.00000   50.00000   50.00000   90.00000   90.00000   90.00000
LATT -1
SFAC C  
C      1  0.4620620000000  0.4746690000000  0.5240640000000 1.0
C      1  0.5402020000000  0.5238330000000  0.4749940000000 1.0
C      1  0.5788840000000  0.4501640000000  0.5522630000000 1.0
C      1  0.4225880000000  0.5464100000000  0.4482420000000 1.0
C      1  0.4794850000000  0.5655000000000  0.4930110000000 1.0
C      1  0.5213980000000  0.4382770000000  0.5112490000000 1.0
C      1  0.4825420000000  0.5534740000000  0.5878860000000 1.0
C      1  0.5113550000000  0.4488580000000  0.4076800000000 1.0
C      1  0.4340960000000  0.5223400000000  0.5230440000000 1.0
C      1  0.5653730000000  0.4723870000000  0.4920290000000 1.0
C      1  0.4716180000000  0.5462040000000  0.5124720000000 1.0
C      1  0.5279310000000  0.4483210000000  0.4863330000000 1.0
C      1  0.5229360000000  0.6129550000000  0.4972110000000 1.0
C      1  0.4729910000000  0.3900340000000  0.5022320000000 1.0
C      1  0.5973790000000  0.5623270000000  0.5009000000000 1.0
C      1  0.4019860000000  0.4419150000000  0.4982300000000 1.0
C      1  0.5840870000000  0.5342900000000  0.5405120000000 1.0
C      1  0.4169500000000  0.4669350000000  0.4585780000000 1.0
C      1  0.5656000000000  0.4533250000000  0.5780170000000 1.0
C      1  0.4341080000000  0.5470760000000  0.4208750000000 1.0
C      1  0.4196320000000  0.4431140000000  0.4742260000000 1.0
C      1  0.5794660000000  0.5590890000000  0.5249680000000 1.0
C      1  0.5084230000000  0.4750210000000  0.4135330000000 1.0
C      1  0.4941980000000  0.5273760000000  0.5834490000000 1.0
C      1  0.5501400000000  0.5222260000000  0.4481270000000 1.0
C      1  0.4476230000000  0.4783690000000  0.5489480000000 1.0
C      1  0.4446730000000  0.4770600000000  0.5017860000000 1.0
C      1  0.5663470000000  0.5270390000000  0.4893960000000 1.0
C      1  0.4457840000000  0.4798860000000  0.4556290000000 1.0
C      1  0.5565940000000  0.5231160000000  0.5416170000000 1.0
C      1  0.5027580000000  0.3948330000000  0.5089620000000 1.0
C      1  0.4953120000000  0.6090990000000  0.4883810000000 1.0
C      1  0.5719420000000  0.5480400000000  0.4267520000000 1.0
C      1  0.4280200000000  0.4529700000000  0.5739760000000 1.0
C      1  0.5510660000000  0.5040930000000  0.5231370000000 1.0
C      1  0.4541490000000  0.4935410000000  0.4792470000000 1.0
C      1  0.5399380000000  0.5147560000000  0.4043090000000 1.0
C      1  0.4624570000000  0.4867770000000  0.5912300000000 1.0
C      1  0.4476770000000  0.5313860000000  0.4563030000000 1.0
C      1  0.5503330000000  0.4592920000000  0.5389980000000 1.0
C      1  0.5032720000000  0.4386940000000  0.4748790000000 1.0
C      1  0.5046290000000  0.5684390000000  0.5340820000000 1.0
C      1  0.4949550000000  0.5166870000000  0.4885660000000 1.0
C      1  0.5027970000000  0.4757140000000  0.5109450000000 1.0
C      1  0.4302610000000  0.5203760000000  0.4098940000000 1.0
C      1  0.5678000000000  0.4804390000000  0.5881910000000 1.0
C      1  0.4474270000000  0.5280600000000  0.6008690000000 1.0
C      1  0.5575810000000  0.4721440000000  0.3973050000000 1.0
C      1  0.5756130000000  0.5055800000000  0.5742730000000 1.0
C      1  0.4199660000000  0.4965490000000  0.4232970000000 1.0
C      1  0.4865210000000  0.4589070000000  0.5236490000000 1.0
C      1  0.5136280000000  0.5382850000000  0.4776070000000 1.0
C      1  0.6047760000000  0.5010050000000  0.5043070000000 1.0
C      1  0.3977610000000  0.4970160000000  0.4975790000000 1.0
C      1  0.5857120000000  0.4966590000000  0.4214900000000 1.0
C      1  0.4148150000000  0.5037130000000  0.5773930000000 1.0
C      1  0.4895850000000  0.5069850000000  0.3991170000000 1.0
C      1  0.5111880000000  0.4941810000000  0.6005160000000 1.0
C      1  0.4858260000000  0.4791190000000  0.3960290000000 1.0
C      1  0.5136830000000  0.5217400000000  0.6062110000000 1.0
C      1  0.4959940000000  0.3986530000000  0.5377810000000 1.0
C      1  0.5027440000000  0.6022630000000  0.4603080000000 1.0
C      1  0.4331420000000  0.4301110000000  0.5559930000000 1.0
C      1  0.5629370000000  0.5698860000000  0.4444310000000 1.0
C      1  0.5129820000000  0.5222040000000  0.3986830000000 1.0
C      1  0.4869730000000  0.4778850000000  0.6021020000000 1.0
C      1  0.4180100000000  0.4209380000000  0.5109480000000 1.0
C      1  0.5798290000000  0.5818980000000  0.4885680000000 1.0
C      1  0.5282270000000  0.4960510000000  0.4676450000000 1.0
C      1  0.4746940000000  0.5023280000000  0.5301670000000 1.0
C      1  0.4489100000000  0.4112020000000  0.4613120000000 1.0
C      1  0.5502160000000  0.5838230000000  0.5415490000000 1.0
C      1  0.3986930000000  0.4865430000000  0.4690290000000 1.0
C      1  0.6017300000000  0.5130230000000  0.5313520000000 1.0
C      1  0.4554610000000  0.4635000000000  0.5728140000000 1.0
C      1  0.5435770000000  0.5390490000000  0.4250570000000 1.0
C      1  0.4963780000000  0.4153720000000  0.4362120000000 1.0
C      1  0.5016190000000  0.5840490000000  0.5608090000000 1.0
C      1  0.4477180000000  0.5082100000000  0.3898920000000 1.0
C      1  0.5515890000000  0.4919330000000  0.6087970000000 1.0
C      1  0.5269580000000  0.4668560000000  0.5559680000000 1.0
C      1  0.4731180000000  0.5436690000000  0.4482900000000 1.0
C      1  0.4403730000000  0.4751870000000  0.4169180000000 1.0
C      1  0.5603610000000  0.5286590000000  0.5824730000000 1.0
C      1  0.4709780000000  0.5832610000000  0.5568140000000 1.0
C      1  0.5246200000000  0.4186790000000  0.4439860000000 1.0
C      1  0.3970660000000  0.5138340000000  0.5367300000000 1.0
C      1  0.5979880000000  0.4900970000000  0.4648510000000 1.0
C      1  0.4462670000000  0.4510100000000  0.4880950000000 1.0
C      1  0.5593580000000  0.5471840000000  0.5073230000000 1.0
C      1  0.4101780000000  0.5631260000000  0.4771550000000 1.0
C      1  0.5901800000000  0.4345850000000  0.5255450000000 1.0
C      1  0.4335210000000  0.5032430000000  0.6006570000000 1.0
C      1  0.5691250000000  0.4982750000000  0.3968930000000 1.0
C      1  0.4911170000000  0.4602640000000  0.4630940000000 1.0
C      1  0.4893700000000  0.5439680000000  0.5341730000000 1.0
C      1  0.5466810000000  0.4104300000000  0.5401040000000 1.0
C      1  0.4552450000000  0.5886870000000  0.4582800000000 1.0
C      1  0.5075460000000  0.5676580000000  0.5861300000000 1.0
C      1  0.4877700000000  0.4330310000000  0.4151770000000 1.0
C      1  0.5939110000000  0.5435750000000  0.4762740000000 1.0
C      1  0.4011770000000  0.4566800000000  0.5251850000000 1.0
C      1  0.5070980000000  0.5056140000000  0.4464410000000 1.0
C      1  0.4927690000000  0.4922930000000  0.5497690000000 1.0
C      1  0.5117540000000  0.6141700000000  0.5265820000000 1.0
C      1  0.4930910000000  0.3876530000000  0.4707430000000 1.0
C      1  0.5857680000000  0.5702140000000  0.4623480000000 1.0
C      1  0.4101160000000  0.4309460000000  0.5375130000000 1.0
C      1  0.5589110000000  0.4774920000000  0.5192660000000 1.0
C      1  0.4469710000000  0.5201740000000  0.4811450000000 1.0
C      1  0.4029200000000  0.5037200000000  0.4465650000000 1.0
C      1  0.5945330000000  0.4963090000000  0.5526330000000 1.0
C      1  0.4336470000000  0.5501940000000  0.5600400000000 1.0
C      1  0.5657560000000  0.4519760000000  0.4430910000000 1.0
C      1  0.5795070000000  0.4983630000000  0.4863860000000 1.0
C      1  0.4238490000000  0.4970370000000  0.5107610000000 1.0
C      1  0.4603300000000  0.5614180000000  0.4190410000000 1.0
C      1  0.5408740000000  0.4383640000000  0.5820560000000 1.0
C      1  0.4755040000000  0.3997980000000  0.4526160000000 1.0
C      1  0.5261980000000  0.6006170000000  0.5480490000000 1.0
C      1  0.4669230000000  0.5136320000000  0.5791330000000 1.0
C      1  0.5358290000000  0.4882210000000  0.4170430000000 1.0
C      1  0.5405460000000  0.4719520000000  0.4779800000000 1.0
C      1  0.4551560000000  0.5261880000000  0.5065080000000 1.0
C      1  0.3967560000000  0.5390220000000  0.4837200000000 1.0
C      1  0.6047380000000  0.4588080000000  0.5183180000000 1.0
C      1  0.6105840000000  0.4750840000000  0.4947220000000 1.0
C      1  0.3901780000000  0.5228620000000  0.5088250000000 1.0
C      1  0.4579880000000  0.5896750000000  0.5329810000000 1.0
C      1  0.5392790000000  0.4102780000000  0.4671900000000 1.0
C      1  0.4254460000000  0.5535830000000  0.5188180000000 1.0
C      1  0.5754060000000  0.4422730000000  0.4833660000000 1.0
C      1  0.4671020000000  0.5639740000000  0.4682450000000 1.0
C      1  0.5395710000000  0.4362490000000  0.5297980000000 1.0
C      1  0.4476890000000  0.4342900000000  0.4428170000000 1.0
C      1  0.5497360000000  0.5605060000000  0.5611760000000 1.0
C      1  0.5390930000000  0.5735800000000  0.4619620000000 1.0
C      1  0.4545000000000  0.4234610000000  0.5376180000000 1.0
C      1  0.5016900000000  0.5809700000000  0.4385940000000 1.0
C      1  0.5018650000000  0.4163150000000  0.5609950000000 1.0
C      1  0.4862420000000  0.4401440000000  0.5716470000000 1.0
C      1  0.5210010000000  0.5641280000000  0.4248920000000 1.0
C      1  0.5520590000000  0.4027970000000  0.5119910000000 1.0
C      1  0.4471260000000  0.5938600000000  0.4861060000000 1.0
C      1  0.5329710000000  0.5374730000000  0.5504910000000 1.0
C      1  0.4616920000000  0.4547190000000  0.4614130000000 1.0
C      1  0.5472410000000  0.4939400000000  0.4447460000000 1.0
C      1  0.4521030000000  0.5083000000000  0.5491950000000 1.0
C      1  0.4852090000000  0.4281420000000  0.4909320000000 1.0
C      1  0.5206560000000  0.5735970000000  0.5121420000000 1.0
C      1  0.4271750000000  0.5740560000000  0.4969510000000 1.0
C      1  0.5746370000000  0.4224000000000  0.5046340000000 1.0
C      1  0.5312380000000  0.4460480000000  0.4334050000000 1.0
C      1  0.4596510000000  0.5605370000000  0.5712970000000 1.0
C      1  0.5981760000000  0.4695760000000  0.5453700000000 1.0
C      1  0.4007330000000  0.5294400000000  0.4561780000000 1.0
C      1  0.5258110000000  0.5081720000000  0.5236900000000 1.0
C      1  0.4813230000000  0.4939410000000  0.4766020000000 1.0
C      1  0.4135780000000  0.5265100000000  0.5588730000000 1.0
C      1  0.5847660000000  0.4741380000000  0.4411390000000 1.0
C      1  0.5114170000000  0.4657440000000  0.4443610000000 1.0
C      1  0.5045870000000  0.5293220000000  0.5541360000000 1.0
C      1  0.3984930000000  0.4814240000000  0.5410490000000 1.0
C      1  0.6009390000000  0.5196300000000  0.4586040000000 1.0
C      1  0.4816540000000  0.4957880000000  0.4495200000000 1.0
C      1  0.5194750000000  0.4949490000000  0.5477530000000 1.0
C      1  0.4571560000000  0.4383100000000  0.4141120000000 1.0
C      1  0.5370910000000  0.5612370000000  0.5894220000000 1.0
C      1  0.4348560000000  0.5709570000000  0.5391090000000 1.0
C      1  0.5632250000000  0.4296410000000  0.4611060000000 1.0
C      1  0.4501350000000  0.4059760000000  0.4899790000000 1.0
C      1  0.5470650000000  0.5889160000000  0.5116850000000 1.0
C      1  0.5239610000000  0.5005250000000  0.5752620000000 1.0
C      1  0.4598140000000  0.4913650000000  0.4319870000000 1.0
C      1  0.4971780000000  0.4628770000000  0.5532470000000 1.0
C      1  0.5009060000000  0.5332450000000  0.4514700000000 1.0
C      1  0.5232300000000  0.4490330000000  0.6032440000000 1.0
C      1  0.4781030000000  0.5511740000000  0.3980520000000 1.0
C      1  0.5897210000000  0.5238560000000  0.4331540000000 1.0
C      1  0.4099910000000  0.4765140000000  0.5663930000000 1.0
C      1  0.4561130000000  0.4800800000000  0.3926960000000 1.0
C      1  0.5436900000000  0.5211020000000  0.6048170000000 1.0
C      1  0.4733810000000  0.5858070000000  0.4351030000000 1.0
C      1  0.5303620000000  0.4163260000000  0.5644080000000 1.0
C      1  0.4945360000000  0.4340140000000  0.5142840000000 1.0
C      1  0.5089180000000  0.5650610000000  0.4882040000000 1.0
C      1  0.5068470000000  0.5506780000000  0.4040210000000 1.0
C      1  0.4945600000000  0.4505060000000  0.5978930000000 1.0
C      1  0.5295320000000  0.4751240000000  0.6135770000000 1.0
C      1  0.4707330000000  0.5248770000000  0.3884600000000 1.0
C      1  0.5303510000000  0.3995460000000  0.4934270000000 1.0
C      1  0.4692070000000  0.5958770000000  0.5049510000000 1.0
C      1  0.4482350000000  0.4286050000000  0.5078040000000 1.0
C      1  0.5535160000000  0.5691500000000  0.4908510000000 1.0
C      1  0.4675920000000  0.3983940000000  0.5313270000000 1.0
C      1  0.5305350000000  0.6007200000000  0.4681370000000 1.0
C      1  0.5121570000000  0.4998550000000  0.5038020000000 1.0
END
