TITL C-2441159-1093-82 0.0240246602463276 125000 -9800.07250061027 0 0 70 (C1) n - 1
REM
REM in /home/bkarasulu/work/CARBON/AIRSS/Generating-Clusters/ReaxFF-fromJPCA2015/Units_Real/with-SteepDescent/Higher-Symm
REM
REM
REM
REM
REM
REM ./C.cell (1df0a924f5614ab8850e4351716899ee)
REM
REM compiler GCC version 9.2.1 20190827 (Red Hat 9.2.1-1)
REM options -cpp -mtune=generic -march=x86-64 -g -O0 -fpre-include=/usr/include/finclude/math-vector-fortran.h
REM seed -653404294 -1970087166 1518305978 1666862176 -1990491663 485892013 -5957416 1419053103 1896809084 -333987010 -792873519 -1863778444 993333744 -648610717 870529582 -1453040645 489723524 -90337197 -1442167183 -1505329229 -60130493 -453428684 2052843333 -928144666 -2081942108 -1223638900 -1271773958 92544981 -1915795675 -588439389 2101620849 1489477203 -246158062
REM
CELL 1.54180   50.00000   50.00000   50.00000   90.00000   90.00000   90.00000
LATT -1
SFAC C  
C      1  0.4818520000000  0.4982730000000  0.4375860000000 1.0
C      1  0.5197800000000  0.4780120000000  0.4322540000000 1.0
C      1  0.5018690000000  0.5201360000000  0.4362990000000 1.0
C      1  0.4818040000000  0.4983870000000  0.5622680000000 1.0
C      1  0.5199620000000  0.4779530000000  0.5672420000000 1.0
C      1  0.5018740000000  0.5201840000000  0.5633720000000 1.0
C      1  0.4801600000000  0.5405290000000  0.4332000000000 1.0
C      1  0.4787870000000  0.4687170000000  0.4351360000000 1.0
C      1  0.5416910000000  0.4953980000000  0.4336180000000 1.0
C      1  0.4802320000000  0.5406170000000  0.5663380000000 1.0
C      1  0.4791170000000  0.4686750000000  0.5643500000000 1.0
C      1  0.5418430000000  0.4951780000000  0.5660180000000 1.0
C      1  0.5054410000000  0.4541680000000  0.4339440000000 1.0
C      1  0.5311110000000  0.5237350000000  0.4366670000000 1.0
C      1  0.4595910000000  0.5185630000000  0.4353140000000 1.0
C      1  0.5056920000000  0.4541950000000  0.5656240000000 1.0
C      1  0.5312050000000  0.5235800000000  0.5631680000000 1.0
C      1  0.4596170000000  0.5185860000000  0.5645510000000 1.0
C      1  0.5615910000000  0.4611240000000  0.4622780000000 1.0
C      1  0.5023490000000  0.5729610000000  0.4608070000000 1.0
C      1  0.4367960000000  0.4676710000000  0.4605730000000 1.0
C      1  0.5628930000000  0.4604230000000  0.5386460000000 1.0
C      1  0.5025090000000  0.5727960000000  0.5381110000000 1.0
C      1  0.4379640000000  0.4677520000000  0.5384610000000 1.0
C      1  0.5114070000000  0.5368940000000  0.5151720000000 1.0
C      1  0.4671110000000  0.4988290000000  0.5146970000000 1.0
C      1  0.5312870000000  0.4665770000000  0.5145230000000 1.0
C      1  0.5095430000000  0.5371720000000  0.4867980000000 1.0
C      1  0.4665270000000  0.4960240000000  0.4824160000000 1.0
C      1  0.5279080000000  0.4671630000000  0.4866130000000 1.0
C      1  0.4563160000000  0.5457630000000  0.4732560000000 1.0
C      1  0.4833150000000  0.4430800000000  0.4738800000000 1.0
C      1  0.5543330000000  0.5127050000000  0.4744610000000 1.0
C      1  0.4558770000000  0.5456530000000  0.5261830000000 1.0
C      1  0.4853700000000  0.4426970000000  0.5254860000000 1.0
C      1  0.5561500000000  0.5125600000000  0.5261920000000 1.0
C      1  0.4398150000000  0.4961990000000  0.5289680000000 1.0
C      1  0.5378040000000  0.4437260000000  0.5316710000000 1.0
C      1  0.5274580000000  0.5566320000000  0.5298810000000 1.0
C      1  0.4387960000000  0.4962440000000  0.4702910000000 1.0
C      1  0.5361620000000  0.4449410000000  0.4688370000000 1.0
C      1  0.5257730000000  0.5560630000000  0.4704170000000 1.0
C      1  0.5277390000000  0.4953880000000  0.4804070000000 1.0
C      1  0.4813810000000  0.5272920000000  0.4849640000000 1.0
C      1  0.4818010000000  0.4715400000000  0.4857080000000 1.0
C      1  0.5311580000000  0.4940460000000  0.5224240000000 1.0
C      1  0.4798010000000  0.5268420000000  0.5145890000000 1.0
C      1  0.4890540000000  0.4782470000000  0.5122580000000 1.0
C      1  0.4625760000000  0.4541560000000  0.5456740000000 1.0
C      1  0.5637990000000  0.4881590000000  0.5470670000000 1.0
C      1  0.4774040000000  0.5609430000000  0.5461440000000 1.0
C      1  0.4610620000000  0.4540260000000  0.4526810000000 1.0
C      1  0.5621610000000  0.4889330000000  0.4542220000000 1.0
C      1  0.4770640000000  0.5611970000000  0.4529910000000 1.0
C      1  0.5726810000000  0.4664160000000  0.5134360000000 1.0
C      1  0.4936050000000  0.5790950000000  0.5127830000000 1.0
C      1  0.4364120000000  0.4568560000000  0.5128360000000 1.0
C      1  0.5724360000000  0.4668870000000  0.4870740000000 1.0
C      1  0.4935250000000  0.5795290000000  0.4863550000000 1.0
C      1  0.4359680000000  0.4567660000000  0.4862400000000 1.0
C      1  0.5440610000000  0.5379430000000  0.4576790000000 1.0
C      1  0.4417170000000  0.5217730000000  0.4576980000000 1.0
C      1  0.5107620000000  0.4383570000000  0.4581470000000 1.0
C      1  0.5450580000000  0.5378440000000  0.5427980000000 1.0
C      1  0.4417030000000  0.5213710000000  0.5420670000000 1.0
C      1  0.5116680000000  0.4378010000000  0.5417480000000 1.0
C      1  0.5698560000000  0.5180160000000  0.4998660000000 1.0
C      1  0.4803300000000  0.4278580000000  0.5011290000000 1.0
C      1  0.4456140000000  0.5549770000000  0.4996190000000 1.0
C      1  0.5104830000000  0.4989750000000  0.5036590000000 1.0
END
