TITL C-2441167-4473-1073 0.112885757321175 125000 -22945.3205900325 0 0 174 (C1) n - 1
REM
REM in /home/bkarasulu/work/CARBON/AIRSS/Generating-Clusters/ReaxFF-fromJPCA2015/Units_Real/with-SteepDescent/Higher-Symm
REM
REM
REM
REM
REM
REM ./C.cell (1df0a924f5614ab8850e4351716899ee)
REM
REM compiler GCC version 9.2.1 20190827 (Red Hat 9.2.1-1)
REM options -cpp -mtune=generic -march=x86-64 -g -O0 -fpre-include=/usr/include/finclude/math-vector-fortran.h
REM seed -1649379233 1632733923 3206666 2007164248 517900509 -726082450 -1707977348 -1863901374 -833179934 1446865034 1408397042 -1825172693 -435833006 2091386642 25644603 171846464 197523119 -988050576 1451704448 -604399715 376321250 -1600900727 511684006 383685562 1274067534 -512337773 148133668 -2094379096 933618457 -907053008 1299562615 233297154 1189121716
REM
CELL 1.54180   50.00000   50.00000   50.00000   90.00000   90.00000   90.00000
LATT -1
SFAC C  
C      1  0.5076520000000  0.4051520000000  0.5523820000000 1.0
C      1  0.4905530000000  0.5962660000000  0.5530500000000 1.0
C      1  0.5063480000000  0.5941180000000  0.4490750000000 1.0
C      1  0.4940040000000  0.4057720000000  0.4489280000000 1.0
C      1  0.4076300000000  0.5101080000000  0.5514550000000 1.0
C      1  0.5942590000000  0.4904200000000  0.5522590000000 1.0
C      1  0.5940440000000  0.5069620000000  0.4492330000000 1.0
C      1  0.4057580000000  0.4919820000000  0.4498490000000 1.0
C      1  0.5356620000000  0.5155540000000  0.5053810000000 1.0
C      1  0.4700910000000  0.4889150000000  0.4806670000000 1.0
C      1  0.5362410000000  0.4862920000000  0.5029680000000 1.0
C      1  0.4705070000000  0.5093840000000  0.5113100000000 1.0
C      1  0.5163690000000  0.5358170000000  0.5047900000000 1.0
C      1  0.4895900000000  0.4693980000000  0.4814760000000 1.0
C      1  0.4839930000000  0.5350200000000  0.5029790000000 1.0
C      1  0.5093150000000  0.4723860000000  0.5075790000000 1.0
C      1  0.4349990000000  0.5831610000000  0.4622310000000 1.0
C      1  0.5642180000000  0.4206520000000  0.4581780000000 1.0
C      1  0.4347120000000  0.4188510000000  0.5389470000000 1.0
C      1  0.5631140000000  0.5770880000000  0.5415890000000 1.0
C      1  0.5820640000000  0.4347520000000  0.4630300000000 1.0
C      1  0.4216580000000  0.5644310000000  0.4576770000000 1.0
C      1  0.4208690000000  0.4373000000000  0.5419000000000 1.0
C      1  0.5821750000000  0.5638110000000  0.5399480000000 1.0
C      1  0.5578970000000  0.4610790000000  0.4337590000000 1.0
C      1  0.4422100000000  0.5343130000000  0.4343000000000 1.0
C      1  0.5588030000000  0.5370570000000  0.5686100000000 1.0
C      1  0.4413180000000  0.4610080000000  0.5705730000000 1.0
C      1  0.4659340000000  0.5524060000000  0.4362000000000 1.0
C      1  0.5357850000000  0.4426200000000  0.4352710000000 1.0
C      1  0.5376650000000  0.5571100000000  0.5693910000000 1.0
C      1  0.4610100000000  0.4400740000000  0.5694110000000 1.0
C      1  0.5462260000000  0.4301420000000  0.5594670000000 1.0
C      1  0.4520900000000  0.5702670000000  0.5610040000000 1.0
C      1  0.5449330000000  0.5668840000000  0.4387910000000 1.0
C      1  0.4558050000000  0.4327780000000  0.4410240000000 1.0
C      1  0.4306470000000  0.5489650000000  0.5606680000000 1.0
C      1  0.5686300000000  0.4509410000000  0.5600750000000 1.0
C      1  0.5659440000000  0.5452180000000  0.4392730000000 1.0
C      1  0.4335640000000  0.4528380000000  0.4398470000000 1.0
C      1  0.4761290000000  0.4463630000000  0.4832310000000 1.0
C      1  0.5260260000000  0.5545070000000  0.4842510000000 1.0
C      1  0.4669120000000  0.5478950000000  0.5235630000000 1.0
C      1  0.5273960000000  0.4536510000000  0.5211580000000 1.0
C      1  0.4452860000000  0.4759360000000  0.4810660000000 1.0
C      1  0.5540790000000  0.5255290000000  0.4842810000000 1.0
C      1  0.5499520000000  0.4712280000000  0.5260990000000 1.0
C      1  0.4562170000000  0.5236330000000  0.5335140000000 1.0
C      1  0.4424780000000  0.4194770000000  0.4644530000000 1.0
C      1  0.5604490000000  0.5819100000000  0.4592590000000 1.0
C      1  0.4390310000000  0.5818790000000  0.5365770000000 1.0
C      1  0.5589550000000  0.4188690000000  0.5353460000000 1.0
C      1  0.4197850000000  0.4384050000000  0.4620940000000 1.0
C      1  0.5809300000000  0.5604880000000  0.4601310000000 1.0
C      1  0.5803470000000  0.4380460000000  0.5360140000000 1.0
C      1  0.4201900000000  0.5603490000000  0.5358750000000 1.0
C      1  0.4513180000000  0.4764650000000  0.5922040000000 1.0
C      1  0.5496800000000  0.5224340000000  0.5903120000000 1.0
C      1  0.4507620000000  0.5263530000000  0.4080170000000 1.0
C      1  0.5480650000000  0.4733640000000  0.4106950000000 1.0
C      1  0.4760460000000  0.4506290000000  0.5897140000000 1.0
C      1  0.5233400000000  0.5487340000000  0.5907020000000 1.0
C      1  0.5262950000000  0.4518010000000  0.4093560000000 1.0
C      1  0.4734170000000  0.5477020000000  0.4077610000000 1.0
C      1  0.6013270000000  0.5180160000000  0.5443630000000 1.0
C      1  0.3992160000000  0.4828840000000  0.5446140000000 1.0
C      1  0.5989070000000  0.4802050000000  0.4604340000000 1.0
C      1  0.3998360000000  0.5196120000000  0.4597560000000 1.0
C      1  0.5185550000000  0.6009220000000  0.5441830000000 1.0
C      1  0.4803010000000  0.3995820000000  0.5415040000000 1.0
C      1  0.4792450000000  0.5992660000000  0.4605140000000 1.0
C      1  0.5201730000000  0.3997960000000  0.4597140000000 1.0
C      1  0.5507080000000  0.4828900000000  0.4764020000000 1.0
C      1  0.4415840000000  0.5215460000000  0.4730820000000 1.0
C      1  0.5532480000000  0.5182220000000  0.5290110000000 1.0
C      1  0.4469880000000  0.4820370000000  0.5310280000000 1.0
C      1  0.4828030000000  0.5517070000000  0.4779780000000 1.0
C      1  0.5211330000000  0.4422540000000  0.4711920000000 1.0
C      1  0.5122760000000  0.5508150000000  0.5286970000000 1.0
C      1  0.4810990000000  0.4442250000000  0.5284960000000 1.0
C      1  0.5727220000000  0.5171220000000  0.4319280000000 1.0
C      1  0.4268750000000  0.4814000000000  0.4323040000000 1.0
C      1  0.5684700000000  0.4804440000000  0.5621510000000 1.0
C      1  0.4352090000000  0.5186950000000  0.5603660000000 1.0
C      1  0.5166530000000  0.5732020000000  0.4315490000000 1.0
C      1  0.4834300000000  0.4261420000000  0.4316320000000 1.0
C      1  0.4804490000000  0.5743920000000  0.5691460000000 1.0
C      1  0.5184570000000  0.4261890000000  0.5690430000000 1.0
C      1  0.5817360000000  0.4590910000000  0.4500810000000 1.0
C      1  0.4156630000000  0.5403280000000  0.4457660000000 1.0
C      1  0.5838610000000  0.5394480000000  0.5530150000000 1.0
C      1  0.4164010000000  0.4613680000000  0.5541840000000 1.0
C      1  0.4584350000000  0.5819460000000  0.4494830000000 1.0
C      1  0.5406070000000  0.4147410000000  0.4457960000000 1.0
C      1  0.5385090000000  0.5815470000000  0.5519560000000 1.0
C      1  0.4591340000000  0.4168180000000  0.5518190000000 1.0
C      1  0.5210720000000  0.6041610000000  0.4728460000000 1.0
C      1  0.4795920000000  0.3997620000000  0.4739890000000 1.0
C      1  0.5172160000000  0.4083550000000  0.5249960000000 1.0
C      1  0.4802740000000  0.5922630000000  0.5261720000000 1.0
C      1  0.6039530000000  0.5216570000000  0.4730090000000 1.0
C      1  0.3960340000000  0.4778700000000  0.4739890000000 1.0
C      1  0.4112550000000  0.5191490000000  0.5246340000000 1.0
C      1  0.5929140000000  0.4807070000000  0.5251040000000 1.0
C      1  0.5471600000000  0.5934170000000  0.4831970000000 1.0
C      1  0.4550800000000  0.4100010000000  0.4893490000000 1.0
C      1  0.5417550000000  0.4091260000000  0.5080300000000 1.0
C      1  0.4556040000000  0.5909050000000  0.5105250000000 1.0
C      1  0.5918120000000  0.5466160000000  0.4839910000000 1.0
C      1  0.4094240000000  0.4536340000000  0.4852910000000 1.0
C      1  0.4109960000000  0.5425440000000  0.5074110000000 1.0
C      1  0.5911690000000  0.4554090000000  0.5108130000000 1.0
C      1  0.5215350000000  0.6024160000000  0.5154960000000 1.0
C      1  0.4765260000000  0.3926110000000  0.5140290000000 1.0
C      1  0.5240750000000  0.3925270000000  0.4880460000000 1.0
C      1  0.4764030000000  0.6075290000000  0.4883830000000 1.0
C      1  0.6032800000000  0.5212830000000  0.5154840000000 1.0
C      1  0.3960420000000  0.4792500000000  0.5158480000000 1.0
C      1  0.3933970000000  0.5235190000000  0.4875700000000 1.0
C      1  0.6078880000000  0.4766520000000  0.4876750000000 1.0
C      1  0.5328570000000  0.5114160000000  0.4059350000000 1.0
C      1  0.4669270000000  0.4882690000000  0.4062500000000 1.0
C      1  0.5346160000000  0.4849910000000  0.5948340000000 1.0
C      1  0.4676350000000  0.5132760000000  0.6001800000000 1.0
C      1  0.5118470000000  0.5324480000000  0.4053970000000 1.0
C      1  0.4875390000000  0.4668840000000  0.4065720000000 1.0
C      1  0.4772170000000  0.5396440000000  0.5914610000000 1.0
C      1  0.5126610000000  0.4668210000000  0.5987730000000 1.0
C      1  0.4886660000000  0.4655320000000  0.5447170000000 1.0
C      1  0.5099700000000  0.5311290000000  0.5484850000000 1.0
C      1  0.4858030000000  0.5343660000000  0.4532050000000 1.0
C      1  0.5093430000000  0.4670060000000  0.4581750000000 1.0
C      1  0.4699180000000  0.4858580000000  0.5468660000000 1.0
C      1  0.5317240000000  0.5116460000000  0.5475880000000 1.0
C      1  0.5266980000000  0.4919520000000  0.4601490000000 1.0
C      1  0.4681740000000  0.5096730000000  0.4590120000000 1.0
C      1  0.5397750000000  0.4387920000000  0.4957820000000 1.0
C      1  0.4558780000000  0.5619520000000  0.4988870000000 1.0
C      1  0.5477630000000  0.5682750000000  0.4980750000000 1.0
C      1  0.4577760000000  0.4382780000000  0.5042570000000 1.0
C      1  0.4357230000000  0.5427520000000  0.4915440000000 1.0
C      1  0.5631580000000  0.4583410000000  0.5024930000000 1.0
C      1  0.5671920000000  0.5461840000000  0.5010890000000 1.0
C      1  0.4345970000000  0.4572840000000  0.5007650000000 1.0
C      1  0.5254130000000  0.5070930000000  0.4341720000000 1.0
C      1  0.4733650000000  0.4923390000000  0.4350260000000 1.0
C      1  0.5258890000000  0.4918410000000  0.5681100000000 1.0
C      1  0.4814340000000  0.5005370000000  0.5749760000000 1.0
C      1  0.5071760000000  0.5260270000000  0.4338800000000 1.0
C      1  0.4916440000000  0.4731680000000  0.4346280000000 1.0
C      1  0.4901690000000  0.5266360000000  0.5691270000000 1.0
C      1  0.5012140000000  0.4789340000000  0.5736420000000 1.0
C      1  0.5588890000000  0.5007560000000  0.4113670000000 1.0
C      1  0.4402370000000  0.4980770000000  0.4113120000000 1.0
C      1  0.5611180000000  0.4958230000000  0.5879810000000 1.0
C      1  0.4435390000000  0.5033890000000  0.5875980000000 1.0
C      1  0.5006870000000  0.5589000000000  0.4102150000000 1.0
C      1  0.4988770000000  0.4408390000000  0.4107610000000 1.0
C      1  0.4975760000000  0.5605800000000  0.5913010000000 1.0
C      1  0.5031090000000  0.4413920000000  0.5898870000000 1.0
C      1  0.4233410000000  0.4952300000000  0.5128050000000 1.0
C      1  0.5770890000000  0.5045920000000  0.5138760000000 1.0
C      1  0.4305180000000  0.4984230000000  0.4844480000000 1.0
C      1  0.5701160000000  0.5029180000000  0.4839610000000 1.0
C      1  0.4984710000000  0.4270190000000  0.5136010000000 1.0
C      1  0.5036750000000  0.5760350000000  0.5145000000000 1.0
C      1  0.4971600000000  0.4296770000000  0.4831550000000 1.0
C      1  0.5032460000000  0.5703590000000  0.4847740000000 1.0
C      1  0.3853140000000  0.4967140000000  0.4946520000000 1.0
C      1  0.6150210000000  0.5037180000000  0.4946460000000 1.0
C      1  0.4966110000000  0.3849660000000  0.4952590000000 1.0
C      1  0.5036690000000  0.6143360000000  0.4954470000000 1.0
C      1  0.4990570000000  0.4993790000000  0.5070580000000 1.0
C      1  0.5070850000000  0.5063850000000  0.4814210000000 1.0
END
