TITL C-2441163-1170-237 0.00417178744417405 125000 -6737.17476967087 0 0 48 (C1) n - 1
REM
REM in /home/bkarasulu/work/CARBON/AIRSS/Generating-Clusters/ReaxFF-fromJPCA2015/Units_Real/with-SteepDescent/Higher-Symm
REM
REM
REM
REM
REM
REM ./C.cell (1df0a924f5614ab8850e4351716899ee)
REM
REM compiler GCC version 9.2.1 20190827 (Red Hat 9.2.1-1)
REM options -cpp -mtune=generic -march=x86-64 -g -O0 -fpre-include=/usr/include/finclude/math-vector-fortran.h
REM seed 1432296829 1496651076 1994647597 1151496087 933896875 538800802 -1935158814 -1303591207 1565035276 19800603 -2089234947 516070445 1168909839 390977819 1519827031 119950887 -1921970090 914996804 -129021795 728758882 1604806179 526494138 -1411033351 -1014941061 1368628508 710862540 2063968768 -813885634 -67611430 1144443568 1067303419 -1835196203 -806524370
REM
CELL 1.54180   50.00000   50.00000   50.00000   90.00000   90.00000   90.00000
LATT -1
SFAC C  
C      1  0.5403600000000  0.5064950000000  0.5526600000000 1.0
C      1  0.5142390000000  0.5164180000000  0.5580380000000 1.0
C      1  0.4790820000000  0.4417480000000  0.4575750000000 1.0
C      1  0.5629110000000  0.5129650000000  0.4882730000000 1.0
C      1  0.5175450000000  0.4352670000000  0.4962220000000 1.0
C      1  0.4884720000000  0.5275550000000  0.5626110000000 1.0
C      1  0.4841290000000  0.4723570000000  0.5243830000000 1.0
C      1  0.4403710000000  0.5009870000000  0.4757480000000 1.0
C      1  0.4734280000000  0.4798510000000  0.5540350000000 1.0
C      1  0.4734810000000  0.5479990000000  0.4947130000000 1.0
C      1  0.4840410000000  0.5601320000000  0.5206580000000 1.0
C      1  0.4724320000000  0.5459740000000  0.5434410000000 1.0
C      1  0.4842270000000  0.5196380000000  0.4953180000000 1.0
C      1  0.5706090000000  0.4936250000000  0.5096080000000 1.0
C      1  0.5320640000000  0.5360620000000  0.5161860000000 1.0
C      1  0.4889140000000  0.4666500000000  0.5699910000000 1.0
C      1  0.4651040000000  0.5094550000000  0.5619340000000 1.0
C      1  0.5120140000000  0.5102460000000  0.5013590000000 1.0
C      1  0.5053690000000  0.5189070000000  0.4495710000000 1.0
C      1  0.4406180000000  0.4734620000000  0.4685740000000 1.0
C      1  0.5504190000000  0.5384660000000  0.4932490000000 1.0
C      1  0.5113100000000  0.5647190000000  0.4889840000000 1.0
C      1  0.5130120000000  0.5610240000000  0.5166710000000 1.0
C      1  0.5029920000000  0.4538460000000  0.4497410000000 1.0
C      1  0.4497310000000  0.5270900000000  0.5450380000000 1.0
C      1  0.4635120000000  0.4740890000000  0.5030000000000 1.0
C      1  0.5476500000000  0.4964150000000  0.4685940000000 1.0
C      1  0.5346160000000  0.4667030000000  0.5199240000000 1.0
C      1  0.4322850000000  0.5112370000000  0.5249260000000 1.0
C      1  0.4569500000000  0.4598900000000  0.4495870000000 1.0
C      1  0.5091760000000  0.4227750000000  0.5172280000000 1.0
C      1  0.4463760000000  0.4872950000000  0.5213710000000 1.0
C      1  0.5153550000000  0.5442830000000  0.4555250000000 1.0
C      1  0.5543870000000  0.4683340000000  0.4725910000000 1.0
C      1  0.4692720000000  0.4805100000000  0.4310960000000 1.0
C      1  0.5489900000000  0.4507410000000  0.4973900000000 1.0
C      1  0.4465920000000  0.5390870000000  0.4935760000000 1.0
C      1  0.4977050000000  0.4765650000000  0.4323680000000 1.0
C      1  0.4867490000000  0.5035270000000  0.4314800000000 1.0
C      1  0.5731120000000  0.4687060000000  0.4942080000000 1.0
C      1  0.4690500000000  0.4980200000000  0.4839730000000 1.0
C      1  0.4268190000000  0.5196130000000  0.4964160000000 1.0
C      1  0.5202240000000  0.5057980000000  0.4722450000000 1.0
C      1  0.5493260000000  0.5330140000000  0.5428030000000 1.0
C      1  0.5341740000000  0.5556980000000  0.4737760000000 1.0
C      1  0.4989830000000  0.4475040000000  0.4761400000000 1.0
C      1  0.5099740000000  0.4824160000000  0.5160580000000 1.0
C      1  0.5518510000000  0.4868430000000  0.5311430000000 1.0
END
