TITL C-2441158-471-171 0.0504307028736717 125000 -17039.9680517893 0 0 122 (C1) n - 1
REM
REM in /home/bkarasulu/work/CARBON/AIRSS/Generating-Clusters/ReaxFF-fromJPCA2015/Units_Real/with-SteepDescent/Higher-Symm
REM
REM
REM
REM
REM
REM ./C.cell (1df0a924f5614ab8850e4351716899ee)
REM
REM compiler GCC version 9.2.1 20190827 (Red Hat 9.2.1-1)
REM options -cpp -mtune=generic -march=x86-64 -g -O0 -fpre-include=/usr/include/finclude/math-vector-fortran.h
REM seed -654515344 -1268274653 -1490652990 106608468 -151127973 -1961496879 1037849658 -875384361 -1447738859 990538745 440140049 -784164060 -1971950614 773242053 1614867838 -1394429354 -1459612134 -956626204 -279226092 721884754 1232180696 875457996 839403294 914561813 -168348559 -566616521 1119728443 1093138436 1028000393 -941283589 1864216719 -673283793 2042872916
REM
CELL 1.54180   50.00000   50.00000   50.00000   90.00000   90.00000   90.00000
LATT -1
SFAC C  
C      1  0.4613340000000  0.5688750000000  0.4696350000000 1.0
C      1  0.4471620000000  0.5090620000000  0.4271770000000 1.0
C      1  0.4513640000000  0.4420160000000  0.4663250000000 1.0
C      1  0.4667820000000  0.4642940000000  0.5662030000000 1.0
C      1  0.4566630000000  0.5406460000000  0.5526890000000 1.0
C      1  0.4962840000000  0.5676030000000  0.4343320000000 1.0
C      1  0.4973190000000  0.4610900000000  0.4131250000000 1.0
C      1  0.5021110000000  0.4057570000000  0.5091690000000 1.0
C      1  0.5002510000000  0.4794720000000  0.5958130000000 1.0
C      1  0.5013350000000  0.5865570000000  0.5465850000000 1.0
C      1  0.4774930000000  0.5943250000000  0.5315470000000 1.0
C      1  0.4751460000000  0.5528210000000  0.4202940000000 1.0
C      1  0.4757540000000  0.4458300000000  0.4264140000000 1.0
C      1  0.4766890000000  0.4074790000000  0.5241780000000 1.0
C      1  0.4784440000000  0.4989420000000  0.6002260000000 1.0
C      1  0.5883990000000  0.5177970000000  0.5327730000000 1.0
C      1  0.5902100000000  0.5383270000000  0.4914810000000 1.0
C      1  0.5862490000000  0.5035960000000  0.4701280000000 1.0
C      1  0.5827500000000  0.4630730000000  0.4791140000000 1.0
C      1  0.5859190000000  0.4774790000000  0.5273570000000 1.0
C      1  0.5280380000000  0.5276020000000  0.5849270000000 1.0
C      1  0.5274450000000  0.5884470000000  0.4964700000000 1.0
C      1  0.5296970000000  0.5281730000000  0.4153850000000 1.0
C      1  0.5307980000000  0.4287330000000  0.4473980000000 1.0
C      1  0.5275770000000  0.4277850000000  0.5507890000000 1.0
C      1  0.4961380000000  0.4095180000000  0.4805530000000 1.0
C      1  0.4930530000000  0.4552620000000  0.5818390000000 1.0
C      1  0.4973100000000  0.5608900000000  0.5599750000000 1.0
C      1  0.4885090000000  0.5795370000000  0.4595670000000 1.0
C      1  0.4945530000000  0.4894420000000  0.4070390000000 1.0
C      1  0.5470880000000  0.4507310000000  0.5493350000000 1.0
C      1  0.5486460000000  0.5314480000000  0.5637350000000 1.0
C      1  0.5471630000000  0.5672500000000  0.4889940000000 1.0
C      1  0.5474870000000  0.5112460000000  0.4321980000000 1.0
C      1  0.5445030000000  0.4376920000000  0.4706380000000 1.0
C      1  0.5007030000000  0.4534820000000  0.4932200000000 1.0
C      1  0.4998330000000  0.4819780000000  0.5311320000000 1.0
C      1  0.5014950000000  0.5242010000000  0.5302950000000 1.0
C      1  0.5014940000000  0.5354780000000  0.4793950000000 1.0
C      1  0.5004160000000  0.5053450000000  0.4762890000000 1.0
C      1  0.4810750000000  0.5998030000000  0.5020920000000 1.0
C      1  0.4847700000000  0.5305020000000  0.4044040000000 1.0
C      1  0.4848740000000  0.4212800000000  0.4412920000000 1.0
C      1  0.4806750000000  0.4212530000000  0.5502880000000 1.0
C      1  0.4819290000000  0.5277890000000  0.5941010000000 1.0
C      1  0.4289560000000  0.4523760000000  0.5136750000000 1.0
C      1  0.4309410000000  0.4968330000000  0.5471440000000 1.0
C      1  0.4313910000000  0.5425580000000  0.5122580000000 1.0
C      1  0.4323790000000  0.5241930000000  0.4656890000000 1.0
C      1  0.4300960000000  0.4796130000000  0.4656610000000 1.0
C      1  0.5203760000000  0.4614780000000  0.4736500000000 1.0
C      1  0.5246870000000  0.4654840000000  0.5289070000000 1.0
C      1  0.5257700000000  0.5153230000000  0.5441400000000 1.0
C      1  0.5238030000000  0.5463120000000  0.4991600000000 1.0
C      1  0.5284200000000  0.5141970000000  0.4546540000000 1.0
C      1  0.5231850000000  0.4985940000000  0.5903070000000 1.0
C      1  0.5233400000000  0.5869820000000  0.5259360000000 1.0
C      1  0.5219110000000  0.5530780000000  0.4293610000000 1.0
C      1  0.5247480000000  0.4537620000000  0.4273690000000 1.0
C      1  0.5264830000000  0.4118340000000  0.5254540000000 1.0
C      1  0.4572600000000  0.4567530000000  0.5214980000000 1.0
C      1  0.4576140000000  0.4987810000000  0.5347400000000 1.0
C      1  0.4596440000000  0.5362740000000  0.5064600000000 1.0
C      1  0.4603720000000  0.5148560000000  0.4690340000000 1.0
C      1  0.4603720000000  0.4706970000000  0.4752360000000 1.0
C      1  0.5390110000000  0.4806100000000  0.4864540000000 1.0
C      1  0.5439230000000  0.4813100000000  0.5141630000000 1.0
C      1  0.5428740000000  0.5079370000000  0.5219100000000 1.0
C      1  0.5418730000000  0.5232060000000  0.4994520000000 1.0
C      1  0.5430290000000  0.5060670000000  0.4773040000000 1.0
C      1  0.5487730000000  0.5550130000000  0.4610290000000 1.0
C      1  0.5429420000000  0.4769070000000  0.4375110000000 1.0
C      1  0.5423280000000  0.4303750000000  0.5066310000000 1.0
C      1  0.5499370000000  0.4790190000000  0.5660790000000 1.0
C      1  0.5487450000000  0.5537600000000  0.5406300000000 1.0
C      1  0.5094230000000  0.5151250000000  0.3993530000000 1.0
C      1  0.5100760000000  0.4097350000000  0.4534320000000 1.0
C      1  0.5032940000000  0.4321550000000  0.5667140000000 1.0
C      1  0.5044090000000  0.5440520000000  0.5836000000000 1.0
C      1  0.5023010000000  0.5926100000000  0.4821220000000 1.0
C      1  0.4779160000000  0.4844550000000  0.5474700000000 1.0
C      1  0.4833240000000  0.5445580000000  0.5389090000000 1.0
C      1  0.4728980000000  0.5402140000000  0.4801940000000 1.0
C      1  0.4778160000000  0.4927600000000  0.4631510000000 1.0
C      1  0.4747440000000  0.4620330000000  0.4995790000000 1.0
C      1  0.4508850000000  0.4555700000000  0.4380500000000 1.0
C      1  0.4542560000000  0.4176260000000  0.5090180000000 1.0
C      1  0.4515460000000  0.4993560000000  0.5872110000000 1.0
C      1  0.4525910000000  0.5787970000000  0.5249010000000 1.0
C      1  0.4502620000000  0.5397810000000  0.4308010000000 1.0
C      1  0.4724460000000  0.4210510000000  0.4669760000000 1.0
C      1  0.4650540000000  0.4441350000000  0.5457100000000 1.0
C      1  0.4566630000000  0.5282180000000  0.5791020000000 1.0
C      1  0.4573400000000  0.5842900000000  0.4962760000000 1.0
C      1  0.4741040000000  0.5066500000000  0.4195120000000 1.0
C      1  0.5159240000000  0.4721100000000  0.4474760000000 1.0
C      1  0.5195290000000  0.4472150000000  0.5107980000000 1.0
C      1  0.5240500000000  0.4909520000000  0.5620080000000 1.0
C      1  0.5243200000000  0.5580110000000  0.5259230000000 1.0
C      1  0.5222850000000  0.5432830000000  0.4554910000000 1.0
C      1  0.4088250000000  0.5136690000000  0.4805460000000 1.0
C      1  0.4069390000000  0.4843090000000  0.4822650000000 1.0
C      1  0.4098210000000  0.4748280000000  0.5100110000000 1.0
C      1  0.4100550000000  0.4988300000000  0.5262660000000 1.0
C      1  0.4104170000000  0.5223810000000  0.5084920000000 1.0
C      1  0.5632440000000  0.4573750000000  0.4561380000000 1.0
C      1  0.5629610000000  0.4434950000000  0.5243730000000 1.0
C      1  0.5640660000000  0.5042500000000  0.5634160000000 1.0
C      1  0.5642770000000  0.5574390000000  0.5168690000000 1.0
C      1  0.5644870000000  0.5332710000000  0.4510520000000 1.0
C      1  0.5778700000000  0.4616740000000  0.5090330000000 1.0
C      1  0.5805280000000  0.4968470000000  0.5416620000000 1.0
C      1  0.5853300000000  0.5395350000000  0.5164320000000 1.0
C      1  0.5874230000000  0.5286700000000  0.4669430000000 1.0
C      1  0.5819790000000  0.4804960000000  0.4592980000000 1.0
C      1  0.4366650000000  0.4322590000000  0.4935420000000 1.0
C      1  0.4398550000000  0.4807770000000  0.5693950000000 1.0
C      1  0.4376440000000  0.5564310000000  0.5372560000000 1.0
C      1  0.4404500000000  0.5504500000000  0.4552610000000 1.0
C      1  0.4380290000000  0.4826540000000  0.4376660000000 1.0
C      1  0.4654470000000  0.5084710000000  0.5090820000000 1.0
C      1  0.4949270000000  0.5036920000000  0.5104120000000 1.0
END
