TITL C-2441164-471-453 0.102766268720806 125000 -16810.98559903 0 0 132 (C1) n - 1
REM
REM in /home/bkarasulu/work/CARBON/AIRSS/Generating-Clusters/ReaxFF-fromJPCA2015/Units_Real/with-SteepDescent/Higher-Symm
REM
REM
REM
REM
REM
REM ./C.cell (1df0a924f5614ab8850e4351716899ee)
REM
REM compiler GCC version 9.2.1 20190827 (Red Hat 9.2.1-1)
REM options -cpp -mtune=generic -march=x86-64 -g -O0 -fpre-include=/usr/include/finclude/math-vector-fortran.h
REM seed -181936407 1619474217 1158259889 -587259657 -1818141431 -357841025 -1391049346 1197929039 838250125 -1210885880 -1881290858 -1404398603 -574199148 1279290437 1158422580 -1078412546 -128967824 -1160074416 -801146473 -2004051139 -1065578761 -271038575 1302596219 61310218 1638330810 -851356265 -1671575571 1045363727 1776635282 -689543916 1367758706 -2049344523 1716059315
REM
CELL 1.54180   50.00000   50.00000   50.00000   90.00000   90.00000   90.00000
LATT -1
SFAC C  
C      1  0.4951280000000  0.5169460000000  0.4029870000000 1.0
C      1  0.5162340000000  0.4964340000000  0.4025400000000 1.0
C      1  0.4876900000000  0.4883260000000  0.4036140000000 1.0
C      1  0.4612340000000  0.5904230000000  0.4986150000000 1.0
C      1  0.6018930000000  0.4925410000000  0.4990560000000 1.0
C      1  0.4393380000000  0.4195820000000  0.4981450000000 1.0
C      1  0.5342270000000  0.5515340000000  0.5639710000000 1.0
C      1  0.5352600000000  0.4610800000000  0.5679470000000 1.0
C      1  0.4336190000000  0.5026980000000  0.5644700000000 1.0
C      1  0.5249380000000  0.4856430000000  0.4295910000000 1.0
C      1  0.4734080000000  0.4857020000000  0.4302790000000 1.0
C      1  0.5008590000000  0.5296810000000  0.4304800000000 1.0
C      1  0.5445810000000  0.5141870000000  0.5848700000000 1.0
C      1  0.4892920000000  0.4553360000000  0.5844870000000 1.0
C      1  0.4671600000000  0.5284210000000  0.5841590000000 1.0
C      1  0.4595570000000  0.5276560000000  0.4182100000000 1.0
C      1  0.5432630000000  0.5222880000000  0.4183100000000 1.0
C      1  0.4972170000000  0.4512030000000  0.4177340000000 1.0
C      1  0.5018430000000  0.4211880000000  0.5480240000000 1.0
C      1  0.4350560000000  0.5511490000000  0.5420520000000 1.0
C      1  0.5764400000000  0.5288330000000  0.5404000000000 1.0
C      1  0.5354400000000  0.5311620000000  0.4674750000000 1.0
C      1  0.5088140000000  0.4542890000000  0.4666730000000 1.0
C      1  0.4562790000000  0.5153840000000  0.4667640000000 1.0
C      1  0.4153640000000  0.5436770000000  0.4895260000000 1.0
C      1  0.5796900000000  0.5485300000000  0.4882510000000 1.0
C      1  0.5024390000000  0.4100270000000  0.4919020000000 1.0
C      1  0.5569020000000  0.5647320000000  0.5512990000000 1.0
C      1  0.5315490000000  0.4163960000000  0.5502860000000 1.0
C      1  0.4127710000000  0.5172500000000  0.5519990000000 1.0
C      1  0.5237940000000  0.4402140000000  0.4241340000000 1.0
C      1  0.4360710000000  0.5105370000000  0.4227390000000 1.0
C      1  0.5383510000000  0.5508000000000  0.4256610000000 1.0
C      1  0.5006730000000  0.4685910000000  0.4416780000000 1.0
C      1  0.4728550000000  0.5152570000000  0.4420300000000 1.0
C      1  0.5265570000000  0.5163860000000  0.4413130000000 1.0
C      1  0.5288840000000  0.4915320000000  0.4905910000000 1.0
C      1  0.4748870000000  0.4810640000000  0.4896150000000 1.0
C      1  0.4929800000000  0.5298970000000  0.4905190000000 1.0
C      1  0.5392410000000  0.4519450000000  0.4705810000000 1.0
C      1  0.4391160000000  0.4889790000000  0.4634840000000 1.0
C      1  0.5236610000000  0.5584550000000  0.4719740000000 1.0
C      1  0.5445440000000  0.4225820000000  0.4725790000000 1.0
C      1  0.4121100000000  0.4990030000000  0.4748520000000 1.0
C      1  0.5457040000000  0.5784750000000  0.4743720000000 1.0
C      1  0.4721720000000  0.5152580000000  0.5322500000000 1.0
C      1  0.5280160000000  0.5170560000000  0.5284390000000 1.0
C      1  0.5045210000000  0.4638620000000  0.5315480000000 1.0
C      1  0.4872730000000  0.5871900000000  0.4868030000000 1.0
C      1  0.5803220000000  0.4740330000000  0.4975170000000 1.0
C      1  0.4292150000000  0.4442350000000  0.4859500000000 1.0
C      1  0.4551780000000  0.4129640000000  0.4740300000000 1.0
C      1  0.4479470000000  0.5820260000000  0.4735900000000 1.0
C      1  0.5944910000000  0.5047750000000  0.4752950000000 1.0
C      1  0.5734600000000  0.4975500000000  0.4542180000000 1.0
C      1  0.4614850000000  0.4352120000000  0.4540100000000 1.0
C      1  0.4654210000000  0.5656970000000  0.4531900000000 1.0
C      1  0.4847800000000  0.5409940000000  0.5292180000000 1.0
C      1  0.5413660000000  0.4912040000000  0.5271130000000 1.0
C      1  0.4747770000000  0.4682460000000  0.5288950000000 1.0
C      1  0.5465460000000  0.4496670000000  0.5017590000000 1.0
C      1  0.4307130000000  0.4858080000000  0.5141690000000 1.0
C      1  0.5210940000000  0.5624370000000  0.5014250000000 1.0
C      1  0.5640130000000  0.5495090000000  0.4408720000000 1.0
C      1  0.5107740000000  0.4193090000000  0.4404490000000 1.0
C      1  0.4248380000000  0.5318400000000  0.4397930000000 1.0
C      1  0.4871020000000  0.5063880000000  0.5548240000000 1.0
C      1  0.5163860000000  0.5074500000000  0.5522860000000 1.0
C      1  0.5032830000000  0.4831300000000  0.5518890000000 1.0
C      1  0.4731770000000  0.4462140000000  0.5104690000000 1.0
C      1  0.4656110000000  0.5523440000000  0.5110180000000 1.0
C      1  0.5635980000000  0.4960630000000  0.5092730000000 1.0
C      1  0.5439450000000  0.4622660000000  0.4300180000000 1.0
C      1  0.4434360000000  0.4847150000000  0.4339860000000 1.0
C      1  0.5104480000000  0.5580540000000  0.4329740000000 1.0
C      1  0.5255670000000  0.4703980000000  0.5114530000000 1.0
C      1  0.4636090000000  0.4944890000000  0.5135970000000 1.0
C      1  0.5109460000000  0.5351610000000  0.5128480000000 1.0
C      1  0.5713370000000  0.4530320000000  0.5416200000000 1.0
C      1  0.4270800000000  0.4515400000000  0.5383960000000 1.0
C      1  0.5028330000000  0.5820440000000  0.5395010000000 1.0
C      1  0.4285690000000  0.4807040000000  0.5438920000000 1.0
C      1  0.5282380000000  0.5687710000000  0.5440420000000 1.0
C      1  0.5491590000000  0.4393920000000  0.5553480000000 1.0
C      1  0.5239830000000  0.4954260000000  0.5919610000000 1.0
C      1  0.4686210000000  0.4757080000000  0.5811820000000 1.0
C      1  0.4957360000000  0.5258780000000  0.5887630000000 1.0
C      1  0.5650520000000  0.5173930000000  0.5636450000000 1.0
C      1  0.4828690000000  0.4349430000000  0.5648970000000 1.0
C      1  0.4525220000000  0.5485470000000  0.5660080000000 1.0
C      1  0.4867660000000  0.4550670000000  0.4862710000000 1.0
C      1  0.4648110000000  0.5329370000000  0.4887640000000 1.0
C      1  0.5437870000000  0.5161440000000  0.4902310000000 1.0
C      1  0.4495380000000  0.5486470000000  0.4357830000000 1.0
C      1  0.5664950000000  0.5198410000000  0.4363990000000 1.0
C      1  0.4843990000000  0.4310660000000  0.4347140000000 1.0
C      1  0.4578110000000  0.4252720000000  0.5213150000000 1.0
C      1  0.4523950000000  0.5723830000000  0.5282580000000 1.0
C      1  0.5856050000000  0.5019340000000  0.5307200000000 1.0
C      1  0.5228630000000  0.5359270000000  0.5868210000000 1.0
C      1  0.5168250000000  0.4678450000000  0.5898280000000 1.0
C      1  0.4552000000000  0.5014400000000  0.5849060000000 1.0
C      1  0.4899350000000  0.5604180000000  0.5494560000000 1.0
C      1  0.5473280000000  0.4830590000000  0.5537160000000 1.0
C      1  0.4605060000000  0.4665020000000  0.5542180000000 1.0
C      1  0.5497910000000  0.4207790000000  0.5008650000000 1.0
C      1  0.4078420000000  0.4981540000000  0.5030110000000 1.0
C      1  0.5451670000000  0.5809720000000  0.5028980000000 1.0
C      1  0.4753920000000  0.4037660000000  0.4908360000000 1.0
C      1  0.4305040000000  0.5655940000000  0.4882590000000 1.0
C      1  0.5937450000000  0.5279440000000  0.4858660000000 1.0
C      1  0.5713380000000  0.5462720000000  0.5151950000000 1.0
C      1  0.5068970000000  0.4252570000000  0.5183220000000 1.0
C      1  0.4248540000000  0.5362120000000  0.5178500000000 1.0
C      1  0.4942870000000  0.5705520000000  0.4548500000000 1.0
C      1  0.5599900000000  0.4714980000000  0.4520350000000 1.0
C      1  0.4429930000000  0.4550030000000  0.4626850000000 1.0
C      1  0.4114210000000  0.5257100000000  0.4651830000000 1.0
C      1  0.5683420000000  0.5631880000000  0.4661300000000 1.0
C      1  0.5196010000000  0.4100090000000  0.4669910000000 1.0
C      1  0.4249620000000  0.4578590000000  0.5103110000000 1.0
C      1  0.5030370000000  0.5854390000000  0.5098120000000 1.0
C      1  0.5732570000000  0.4511820000000  0.5129730000000 1.0
C      1  0.5763380000000  0.4801440000000  0.5506500000000 1.0
C      1  0.4527700000000  0.4374480000000  0.5493570000000 1.0
C      1  0.4673300000000  0.5718160000000  0.5564620000000 1.0
C      1  0.5318030000000  0.4110140000000  0.5215800000000 1.0
C      1  0.4030440000000  0.5176740000000  0.5248910000000 1.0
C      1  0.5633340000000  0.5722100000000  0.5234840000000 1.0
C      1  0.4980260000000  0.5139720000000  0.4710820000000 1.0
C      1  0.5127730000000  0.4942000000000  0.4719560000000 1.0
C      1  0.4884690000000  0.4927140000000  0.4704050000000 1.0
END
