TITL C-2441165-58-688 0.0150915058172859 125000 -7134.7694666352 0 0 53 (C1) n - 1
REM
REM in /home/bkarasulu/work/CARBON/AIRSS/Generating-Clusters/ReaxFF-fromJPCA2015/Units_Real/with-SteepDescent/Higher-Symm
REM
REM
REM
REM
REM
REM ./C.cell (1df0a924f5614ab8850e4351716899ee)
REM
REM compiler GCC version 9.2.1 20190827 (Red Hat 9.2.1-1)
REM options -cpp -mtune=generic -march=x86-64 -g -O0 -fpre-include=/usr/include/finclude/math-vector-fortran.h
REM seed 305948500 1511725943 866557020 -522631354 -2128838122 2071759191 -1122396913 -1344426901 -1618598757 1350145830 1677662942 -1486947568 -1589754996 1857655489 15296078 113550128 1414071679 1203354250 -1936564784 226124628 1280192510 -1445318799 -34602249 -1829807549 -384195631 946644870 1539676400 -564432101 734222820 -1972293715 -1088063373 622132359 219996343
REM
CELL 1.54180   50.00000   50.00000   50.00000   90.00000   90.00000   90.00000
LATT -1
SFAC C  
C      1  0.4486560000000  0.5290350000000  0.4694820000000 1.0
C      1  0.5539060000000  0.5259950000000  0.5286980000000 1.0
C      1  0.5522030000000  0.4725900000000  0.4689500000000 1.0
C      1  0.4498290000000  0.4724850000000  0.5301460000000 1.0
C      1  0.4913890000000  0.5631080000000  0.5179500000000 1.0
C      1  0.5118250000000  0.5629420000000  0.4823450000000 1.0
C      1  0.5129650000000  0.4360110000000  0.5182170000000 1.0
C      1  0.4919730000000  0.4377080000000  0.4820140000000 1.0
C      1  0.4849620000000  0.4448270000000  0.5125650000000 1.0
C      1  0.5185140000000  0.4464510000000  0.4894290000000 1.0
C      1  0.5175910000000  0.5533790000000  0.5106730000000 1.0
C      1  0.4838560000000  0.5565850000000  0.4890140000000 1.0
C      1  0.5272990000000  0.5210920000000  0.5418580000000 1.0
C      1  0.4737510000000  0.5233630000000  0.4547070000000 1.0
C      1  0.4753330000000  0.4780770000000  0.5444290000000 1.0
C      1  0.5264630000000  0.4768390000000  0.4549030000000 1.0
C      1  0.4872840000000  0.5017610000000  0.5575510000000 1.0
C      1  0.5152180000000  0.5008450000000  0.4413650000000 1.0
C      1  0.5165340000000  0.4999580000000  0.5606550000000 1.0
C      1  0.4863120000000  0.4994150000000  0.4425260000000 1.0
C      1  0.5699000000000  0.5035280000000  0.5170540000000 1.0
C      1  0.4352140000000  0.5045110000000  0.4798500000000 1.0
C      1  0.4360790000000  0.4964020000000  0.5190530000000 1.0
C      1  0.5615270000000  0.4995980000000  0.4844240000000 1.0
C      1  0.5655860000000  0.4767100000000  0.5201080000000 1.0
C      1  0.4334870000000  0.4745480000000  0.4788180000000 1.0
C      1  0.4341980000000  0.5264060000000  0.5201510000000 1.0
C      1  0.5685860000000  0.5276210000000  0.4839640000000 1.0
C      1  0.4485380000000  0.4502780000000  0.4846820000000 1.0
C      1  0.5543710000000  0.4516610000000  0.5162990000000 1.0
C      1  0.5540610000000  0.5516100000000  0.4829300000000 1.0
C      1  0.4491610000000  0.5508850000000  0.5156240000000 1.0
C      1  0.4725260000000  0.4774060000000  0.4553120000000 1.0
C      1  0.5292460000000  0.4759710000000  0.5479810000000 1.0
C      1  0.5293350000000  0.5233670000000  0.4545010000000 1.0
C      1  0.4733410000000  0.5229990000000  0.5440390000000 1.0
C      1  0.5197010000000  0.4852550000000  0.5226400000000 1.0
C      1  0.4570250000000  0.4882930000000  0.4760640000000 1.0
C      1  0.4578740000000  0.5126080000000  0.5228990000000 1.0
C      1  0.5320680000000  0.5092700000000  0.4798130000000 1.0
C      1  0.5105010000000  0.5230170000000  0.5181140000000 1.0
C      1  0.4889410000000  0.5283920000000  0.4780220000000 1.0
C      1  0.4932720000000  0.4740390000000  0.5228490000000 1.0
C      1  0.5099550000000  0.4755320000000  0.4788690000000 1.0
C      1  0.5314080000000  0.4481870000000  0.5365870000000 1.0
C      1  0.4716980000000  0.4502590000000  0.4660250000000 1.0
C      1  0.4720080000000  0.5507660000000  0.5347060000000 1.0
C      1  0.5299630000000  0.5512380000000  0.4640590000000 1.0
C      1  0.4538510000000  0.5512030000000  0.4872200000000 1.0
C      1  0.5487350000000  0.5491380000000  0.5123340000000 1.0
C      1  0.5489460000000  0.4510000000000  0.4869930000000 1.0
C      1  0.4545110000000  0.4499980000000  0.5130540000000 1.0
C      1  0.5053570000000  0.5083700000000  0.4918220000000 1.0
END
