TITL C-2441167-4473-7 0.0198603331168409 125000 -12792.779158772 0 0 90 (C1) n - 1
REM
REM in /home/bkarasulu/work/CARBON/AIRSS/Generating-Clusters/ReaxFF-fromJPCA2015/Units_Real/with-SteepDescent/Higher-Symm
REM
REM
REM
REM
REM
REM ./C.cell (1df0a924f5614ab8850e4351716899ee)
REM
REM compiler GCC version 9.2.1 20190827 (Red Hat 9.2.1-1)
REM options -cpp -mtune=generic -march=x86-64 -g -O0 -fpre-include=/usr/include/finclude/math-vector-fortran.h
REM seed 795460548 -768620792 -554727087 161352079 2084614774 1571545804 403141104 -962591353 -12751606 -2127723795 -1347442283 1441434902 454068931 -1322965974 688379397 -1879783503 -731556655 -606829808 -185634793 -232287215 571820691 -844029702 115305318 -2125871331 1006440794 1552697496 1274835779 934607475 -1040130791 1780159616 -1307156459 -1485902063 1276407450
REM
CELL 1.54180   50.00000   50.00000   50.00000   90.00000   90.00000   90.00000
LATT -1
SFAC C  
C      1  0.4398930000000  0.4315980000000  0.4807980000000 1.0
C      1  0.4355910000000  0.5185980000000  0.5591950000000 1.0
C      1  0.4321340000000  0.5422470000000  0.4559650000000 1.0
C      1  0.4425020000000  0.4713060000000  0.4462050000000 1.0
C      1  0.4390740000000  0.4704740000000  0.5492100000000 1.0
C      1  0.4400220000000  0.5604960000000  0.5013230000000 1.0
C      1  0.5493400000000  0.5055610000000  0.5700450000000 1.0
C      1  0.5478420000000  0.5606330000000  0.4628430000000 1.0
C      1  0.5431570000000  0.4298730000000  0.4695460000000 1.0
C      1  0.5381830000000  0.4480350000000  0.5669670000000 1.0
C      1  0.5329640000000  0.5922390000000  0.5131330000000 1.0
C      1  0.5302100000000  0.4740400000000  0.4181740000000 1.0
C      1  0.5518400000000  0.5126430000000  0.4505630000000 1.0
C      1  0.5337020000000  0.4489010000000  0.5141390000000 1.0
C      1  0.5501470000000  0.5440520000000  0.5385090000000 1.0
C      1  0.5087020000000  0.4368130000000  0.5278390000000 1.0
C      1  0.5047090000000  0.5669900000000  0.5427280000000 1.0
C      1  0.5186290000000  0.4998920000000  0.4081260000000 1.0
C      1  0.4343310000000  0.4498260000000  0.5322210000000 1.0
C      1  0.4316190000000  0.5559930000000  0.5269760000000 1.0
C      1  0.4293090000000  0.4952340000000  0.4417950000000 1.0
C      1  0.5290940000000  0.4692440000000  0.4863460000000 1.0
C      1  0.5255710000000  0.4949530000000  0.5302120000000 1.0
C      1  0.5334900000000  0.5240170000000  0.4923500000000 1.0
C      1  0.5503640000000  0.4540570000000  0.5422750000000 1.0
C      1  0.5462100000000  0.5656140000000  0.5177750000000 1.0
C      1  0.5481740000000  0.4871680000000  0.4376400000000 1.0
C      1  0.4687320000000  0.4378270000000  0.5082010000000 1.0
C      1  0.4595870000000  0.5334690000000  0.5528180000000 1.0
C      1  0.4564810000000  0.5310270000000  0.4448920000000 1.0
C      1  0.5763050000000  0.5273690000000  0.4926840000000 1.0
C      1  0.5711400000000  0.4751660000000  0.4859120000000 1.0
C      1  0.5780940000000  0.4890620000000  0.5284070000000 1.0
C      1  0.4218960000000  0.5156230000000  0.4624840000000 1.0
C      1  0.4274890000000  0.4504400000000  0.5007500000000 1.0
C      1  0.4227550000000  0.5272470000000  0.5344650000000 1.0
C      1  0.5058640000000  0.4153290000000  0.4886750000000 1.0
C      1  0.5102020000000  0.5303220000000  0.5731860000000 1.0
C      1  0.5110180000000  0.5430470000000  0.4389270000000 1.0
C      1  0.4645810000000  0.5159620000000  0.5290640000000 1.0
C      1  0.4622970000000  0.5182490000000  0.4705840000000 1.0
C      1  0.4660030000000  0.4656040000000  0.4977200000000 1.0
C      1  0.4979780000000  0.5047860000000  0.5838230000000 1.0
C      1  0.4974880000000  0.5659840000000  0.4522850000000 1.0
C      1  0.4938280000000  0.4230530000000  0.4637910000000 1.0
C      1  0.5220630000000  0.5776260000000  0.4633310000000 1.0
C      1  0.5187590000000  0.4328040000000  0.4515670000000 1.0
C      1  0.5242750000000  0.4922510000000  0.5843710000000 1.0
C      1  0.5063830000000  0.5316170000000  0.4897250000000 1.0
C      1  0.5047580000000  0.4757900000000  0.4755440000000 1.0
C      1  0.5036850000000  0.4891340000000  0.5385640000000 1.0
C      1  0.4578510000000  0.5601450000000  0.5397770000000 1.0
C      1  0.4545310000000  0.5062500000000  0.4286660000000 1.0
C      1  0.4606390000000  0.4370830000000  0.5366570000000 1.0
C      1  0.4764620000000  0.5669820000000  0.4731780000000 1.0
C      1  0.4645680000000  0.4311750000000  0.4627960000000 1.0
C      1  0.4750190000000  0.4887590000000  0.5757000000000 1.0
C      1  0.4931620000000  0.4722900000000  0.4470490000000 1.0
C      1  0.4930350000000  0.4683890000000  0.5629170000000 1.0
C      1  0.4935000000000  0.5619540000000  0.4968600000000 1.0
C      1  0.5196330000000  0.4640050000000  0.5807190000000 1.0
C      1  0.5142740000000  0.5845650000000  0.4907320000000 1.0
C      1  0.5136240000000  0.4547550000000  0.4331340000000 1.0
C      1  0.4822480000000  0.5705530000000  0.5262730000000 1.0
C      1  0.4821800000000  0.4974150000000  0.4307360000000 1.0
C      1  0.4874100000000  0.4446940000000  0.5458420000000 1.0
C      1  0.4876960000000  0.5128330000000  0.4797840000000 1.0
C      1  0.4875970000000  0.4871520000000  0.4952430000000 1.0
C      1  0.4888490000000  0.5045870000000  0.5197320000000 1.0
C      1  0.5432520000000  0.4833220000000  0.5486560000000 1.0
C      1  0.5426100000000  0.5517300000000  0.4917880000000 1.0
C      1  0.5416590000000  0.4687280000000  0.4598160000000 1.0
C      1  0.5007590000000  0.5439200000000  0.5504170000000 1.0
C      1  0.5008620000000  0.5186810000000  0.4233550000000 1.0
C      1  0.4918400000000  0.4239750000000  0.5095270000000 1.0
C      1  0.4643380000000  0.4563910000000  0.4484700000000 1.0
C      1  0.4467330000000  0.4914350000000  0.5664900000000 1.0
C      1  0.4468170000000  0.5620950000000  0.4748190000000 1.0
C      1  0.5331410000000  0.4247590000000  0.4961750000000 1.0
C      1  0.5382430000000  0.5321100000000  0.5635890000000 1.0
C      1  0.5390000000000  0.5386490000000  0.4447770000000 1.0
C      1  0.4384220000000  0.5060010000000  0.4861510000000 1.0
C      1  0.4416900000000  0.4743850000000  0.4923530000000 1.0
C      1  0.4406600000000  0.5159060000000  0.5150470000000 1.0
C      1  0.5738980000000  0.5099680000000  0.5457540000000 1.0
C      1  0.5799960000000  0.5499870000000  0.4757980000000 1.0
C      1  0.5637330000000  0.4515450000000  0.4689200000000 1.0
C      1  0.5713430000000  0.5297050000000  0.5254340000000 1.0
C      1  0.5586740000000  0.5063200000000  0.4790390000000 1.0
C      1  0.5715800000000  0.4675220000000  0.5131630000000 1.0
END
