TITL C-2441156-4686-201 0.0348461985143994 125000 -20642.9021389458 0 0 142 (C1) n - 1
REM
REM in /home/bkarasulu/work/CARBON/AIRSS/Generating-Clusters/ReaxFF-fromJPCA2015/Units_Real/with-SteepDescent/Higher-Symm
REM
REM
REM
REM
REM
REM ./C.cell (1df0a924f5614ab8850e4351716899ee)
REM
REM compiler GCC version 9.2.1 20190827 (Red Hat 9.2.1-1)
REM options -cpp -mtune=generic -march=x86-64 -g -O0 -fpre-include=/usr/include/finclude/math-vector-fortran.h
REM seed -2144099363 -112439295 -1939199591 494692746 -1833388191 2121414397 734356111 -2094121940 1568068849 -114247188 -735518185 -202461999 -1328515572 1246375261 -699748024 121092255 -258744353 1796903482 -1675256065 907072810 1228907155 -752786501 189799484 1583110594 538819802 -1541349151 -72812935 273846367 -2047345555 524956647 -1336340503 1474115282 -1370674359
REM
CELL 1.54180   50.00000   50.00000   50.00000   90.00000   90.00000   90.00000
LATT -1
SFAC C  
C      1  0.5627060000000  0.5509660000000  0.4621290000000 1.0
C      1  0.4399730000000  0.5402010000000  0.4657820000000 1.0
C      1  0.5037930000000  0.5398020000000  0.5715620000000 1.0
C      1  0.5065270000000  0.4619340000000  0.4156210000000 1.0
C      1  0.4208210000000  0.4606960000000  0.5344390000000 1.0
C      1  0.5674890000000  0.4488940000000  0.5535640000000 1.0
C      1  0.4641190000000  0.5192590000000  0.4577480000000 1.0
C      1  0.4811960000000  0.5220090000000  0.5540570000000 1.0
C      1  0.5537650000000  0.5305500000000  0.4890940000000 1.0
C      1  0.5780930000000  0.5259990000000  0.4483660000000 1.0
C      1  0.4133800000000  0.5250060000000  0.4577930000000 1.0
C      1  0.5073830000000  0.5232100000000  0.5962780000000 1.0
C      1  0.5467190000000  0.5538870000000  0.5666680000000 1.0
C      1  0.5327160000000  0.5429590000000  0.4306800000000 1.0
C      1  0.4051050000000  0.5576630000000  0.5193250000000 1.0
C      1  0.4612690000000  0.5842560000000  0.4707630000000 1.0
C      1  0.4989550000000  0.5771080000000  0.5290910000000 1.0
C      1  0.5356380000000  0.5730110000000  0.4893770000000 1.0
C      1  0.4142180000000  0.4871790000000  0.5460510000000 1.0
C      1  0.5754750000000  0.4940420000000  0.5470630000000 1.0
C      1  0.5024080000000  0.4887990000000  0.4041140000000 1.0
C      1  0.4144040000000  0.5375480000000  0.5370150000000 1.0
C      1  0.5711120000000  0.5416230000000  0.5575040000000 1.0
C      1  0.5166590000000  0.5399470000000  0.4064140000000 1.0
C      1  0.5381040000000  0.5884340000000  0.5340310000000 1.0
C      1  0.5153730000000  0.5792200000000  0.4561940000000 1.0
C      1  0.4517890000000  0.5798190000000  0.5155230000000 1.0
C      1  0.5909090000000  0.5058960000000  0.4655790000000 1.0
C      1  0.4224190000000  0.5077350000000  0.4360520000000 1.0
C      1  0.4858550000000  0.5054870000000  0.5988950000000 1.0
C      1  0.4169880000000  0.4972450000000  0.5730750000000 1.0
C      1  0.6010650000000  0.4961850000000  0.5342990000000 1.0
C      1  0.4768670000000  0.5026400000000  0.3952070000000 1.0
C      1  0.4158850000000  0.4489050000000  0.4859100000000 1.0
C      1  0.5286830000000  0.4572560000000  0.5835980000000 1.0
C      1  0.5545180000000  0.4599840000000  0.4365270000000 1.0
C      1  0.4808460000000  0.4763860000000  0.4617680000000 1.0
C      1  0.4815510000000  0.4751100000000  0.5313670000000 1.0
C      1  0.5469230000000  0.4795760000000  0.5031280000000 1.0
C      1  0.6072870000000  0.4790790000000  0.5132250000000 1.0
C      1  0.4596000000000  0.4785300000000  0.4002520000000 1.0
C      1  0.4395110000000  0.4836310000000  0.5803370000000 1.0
C      1  0.5054730000000  0.4595800000000  0.5192560000000 1.0
C      1  0.5250850000000  0.4615880000000  0.4961050000000 1.0
C      1  0.4815360000000  0.4527500000000  0.4781210000000 1.0
C      1  0.5032000000000  0.5698560000000  0.5696220000000 1.0
C      1  0.5713550000000  0.5715670000000  0.4738460000000 1.0
C      1  0.4453450000000  0.5673740000000  0.4555290000000 1.0
C      1  0.4849110000000  0.4919490000000  0.5543340000000 1.0
C      1  0.5477250000000  0.5012270000000  0.4841570000000 1.0
C      1  0.4568980000000  0.4912710000000  0.4595420000000 1.0
C      1  0.4468140000000  0.5034910000000  0.3966420000000 1.0
C      1  0.4354400000000  0.5074880000000  0.5924740000000 1.0
C      1  0.6130260000000  0.5057590000000  0.5099540000000 1.0
C      1  0.4917160000000  0.5522770000000  0.4149540000000 1.0
C      1  0.4389940000000  0.5487560000000  0.5522470000000 1.0
C      1  0.5754680000000  0.5518440000000  0.5299480000000 1.0
C      1  0.5871290000000  0.4767010000000  0.4693410000000 1.0
C      1  0.4347910000000  0.4787770000000  0.4444380000000 1.0
C      1  0.4844950000000  0.4796590000000  0.5832990000000 1.0
C      1  0.5133880000000  0.5507180000000  0.5258970000000 1.0
C      1  0.5085490000000  0.5392950000000  0.4754010000000 1.0
C      1  0.4710750000000  0.5474320000000  0.5007450000000 1.0
C      1  0.5428700000000  0.4171180000000  0.4694040000000 1.0
C      1  0.4505090000000  0.4147930000000  0.4759420000000 1.0
C      1  0.5036460000000  0.4181830000000  0.5535420000000 1.0
C      1  0.5227260000000  0.4019400000000  0.4847300000000 1.0
C      1  0.4728880000000  0.4022680000000  0.4871250000000 1.0
C      1  0.4986590000000  0.4046890000000  0.5284080000000 1.0
C      1  0.4946490000000  0.5734820000000  0.4362270000000 1.0
C      1  0.4545050000000  0.5721120000000  0.5434050000000 1.0
C      1  0.5627930000000  0.5771860000000  0.5226700000000 1.0
C      1  0.5078200000000  0.5089690000000  0.5219740000000 1.0
C      1  0.5200490000000  0.5003350000000  0.4751920000000 1.0
C      1  0.4774480000000  0.5073060000000  0.4927490000000 1.0
C      1  0.4959740000000  0.4306000000000  0.4580420000000 1.0
C      1  0.4493700000000  0.4211100000000  0.5234610000000 1.0
C      1  0.5448080000000  0.4162340000000  0.5297530000000 1.0
C      1  0.5405170000000  0.5656970000000  0.4482430000000 1.0
C      1  0.4292460000000  0.5633920000000  0.5058140000000 1.0
C      1  0.5304220000000  0.5773490000000  0.5607890000000 1.0
C      1  0.4097390000000  0.4658620000000  0.5080860000000 1.0
C      1  0.5548160000000  0.4626790000000  0.5761690000000 1.0
C      1  0.5370300000000  0.4669800000000  0.4175120000000 1.0
C      1  0.4585840000000  0.4412780000000  0.5664720000000 1.0
C      1  0.5790730000000  0.4390200000000  0.5009260000000 1.0
C      1  0.4613310000000  0.4400660000000  0.4297440000000 1.0
C      1  0.5277980000000  0.5352790000000  0.5521300000000 1.0
C      1  0.5122920000000  0.5312050000000  0.4492380000000 1.0
C      1  0.4436620000000  0.5372230000000  0.4964100000000 1.0
C      1  0.5504820000000  0.4951140000000  0.5821870000000 1.0
C      1  0.5466100000000  0.4969360000000  0.4156290000000 1.0
C      1  0.4029490000000  0.4957490000000  0.5028010000000 1.0
C      1  0.4489630000000  0.4648940000000  0.4220470000000 1.0
C      1  0.4590820000000  0.4650880000000  0.5818770000000 1.0
C      1  0.5924030000000  0.4642070000000  0.4944390000000 1.0
C      1  0.4410160000000  0.4401040000000  0.5429150000000 1.0
C      1  0.5690160000000  0.4327310000000  0.5285060000000 1.0
C      1  0.4899970000000  0.4417280000000  0.4286240000000 1.0
C      1  0.5609280000000  0.5823570000000  0.4946900000000 1.0
C      1  0.4677360000000  0.5817240000000  0.4442390000000 1.0
C      1  0.4818520000000  0.5800010000000  0.5529410000000 1.0
C      1  0.4083140000000  0.5089170000000  0.5286890000000 1.0
C      1  0.5703570000000  0.5134370000000  0.5672650000000 1.0
C      1  0.5221340000000  0.5105220000000  0.4053410000000 1.0
C      1  0.5225780000000  0.4615270000000  0.4660650000000 1.0
C      1  0.4609960000000  0.4564350000000  0.4968140000000 1.0
C      1  0.5266360000000  0.4593870000000  0.5384530000000 1.0
C      1  0.4737850000000  0.5769660000000  0.4954200000000 1.0
C      1  0.5160460000000  0.5956390000000  0.5149430000000 1.0
C      1  0.5095970000000  0.5873000000000  0.4862170000000 1.0
C      1  0.4820230000000  0.5318900000000  0.4808950000000 1.0
C      1  0.4893730000000  0.5330440000000  0.5255770000000 1.0
C      1  0.5272030000000  0.5464870000000  0.4961130000000 1.0
C      1  0.5674910000000  0.4312760000000  0.4759620000000 1.0
C      1  0.4440240000000  0.4310430000000  0.4528420000000 1.0
C      1  0.4864730000000  0.4330450000000  0.5712760000000 1.0
C      1  0.5265170000000  0.5047430000000  0.5915090000000 1.0
C      1  0.5642400000000  0.5098470000000  0.4326990000000 1.0
C      1  0.4068720000000  0.5090210000000  0.4788210000000 1.0
C      1  0.5481020000000  0.4846960000000  0.5333080000000 1.0
C      1  0.5082580000000  0.4842130000000  0.4542740000000 1.0
C      1  0.4568610000000  0.4796130000000  0.5146980000000 1.0
C      1  0.4251470000000  0.4517930000000  0.4592240000000 1.0
C      1  0.5017980000000  0.4527390000000  0.5865000000000 1.0
C      1  0.5728470000000  0.4540440000000  0.4564930000000 1.0
C      1  0.4398650000000  0.5208180000000  0.4180730000000 1.0
C      1  0.4610460000000  0.5202860000000  0.5935780000000 1.0
C      1  0.5983010000000  0.5210510000000  0.4903310000000 1.0
C      1  0.4730320000000  0.5288890000000  0.4173510000000 1.0
C      1  0.4569390000000  0.5327600000000  0.5680110000000 1.0
C      1  0.5779070000000  0.5346090000000  0.5061220000000 1.0
C      1  0.4540280000000  0.5074350000000  0.5070710000000 1.0
C      1  0.5309670000000  0.5090570000000  0.5372320000000 1.0
C      1  0.4881600000000  0.5173160000000  0.4398790000000 1.0
C      1  0.4396800000000  0.4310360000000  0.4971960000000 1.0
C      1  0.5295600000000  0.4319320000000  0.5492810000000 1.0
C      1  0.5249630000000  0.4352820000000  0.4557980000000 1.0
C      1  0.5239070000000  0.4035240000000  0.5135570000000 1.0
C      1  0.4966130000000  0.4047500000000  0.4727260000000 1.0
C      1  0.4727680000000  0.4057920000000  0.5156060000000 1.0
C      1  0.5027020000000  0.4975650000000  0.4971330000000 1.0
END
