TITL C-2441162-9305-1169 0.0765878443411426 125000 -19315.3065718924 0 0 144 (C1) n - 1
REM
REM in /home/bkarasulu/work/CARBON/AIRSS/Generating-Clusters/ReaxFF-fromJPCA2015/Units_Real/with-SteepDescent/Higher-Symm
REM
REM
REM
REM
REM
REM ./C.cell (1df0a924f5614ab8850e4351716899ee)
REM
REM compiler GCC version 9.2.1 20190827 (Red Hat 9.2.1-1)
REM options -cpp -mtune=generic -march=x86-64 -g -O0 -fpre-include=/usr/include/finclude/math-vector-fortran.h
REM seed -711670831 1660375842 -191571892 -489091172 -55694976 1374671850 279286501 -1252915859 -836936738 -262816274 -1269367038 1590610130 -201283976 -784854520 -765263289 1983650980 -335088514 161450303 1269127225 1222300425 445285942 871270374 1445507671 -1695513501 -282289524 1584617830 -97596175 391706584 1868875090 1837145481 370103946 1218478995 1496308704
REM
CELL 1.54180   50.00000   50.00000   50.00000   90.00000   90.00000   90.00000
LATT -1
SFAC C  
C      1  0.4538090000000  0.4848360000000  0.5847150000000 1.0
C      1  0.5148220000000  0.4908350000000  0.5907540000000 1.0
C      1  0.4623430000000  0.5546900000000  0.5482350000000 1.0
C      1  0.4471250000000  0.5681370000000  0.5077330000000 1.0
C      1  0.5301730000000  0.5486650000000  0.5498650000000 1.0
C      1  0.4234740000000  0.5100260000000  0.5551500000000 1.0
C      1  0.5885970000000  0.4789130000000  0.4957130000000 1.0
C      1  0.5936540000000  0.5137190000000  0.5371980000000 1.0
C      1  0.4651520000000  0.5225340000000  0.4075290000000 1.0
C      1  0.4010340000000  0.5268350000000  0.5050120000000 1.0
C      1  0.4752230000000  0.4279080000000  0.5723830000000 1.0
C      1  0.5367920000000  0.4990170000000  0.4103490000000 1.0
C      1  0.4852070000000  0.5259410000000  0.5968140000000 1.0
C      1  0.4709090000000  0.5072500000000  0.5504690000000 1.0
C      1  0.4421060000000  0.4890690000000  0.4741900000000 1.0
C      1  0.4677420000000  0.5496390000000  0.4172880000000 1.0
C      1  0.4352530000000  0.5054010000000  0.5155360000000 1.0
C      1  0.4189150000000  0.4555480000000  0.4517410000000 1.0
C      1  0.5617920000000  0.5012960000000  0.4256680000000 1.0
C      1  0.4456560000000  0.4137100000000  0.5100970000000 1.0
C      1  0.4920190000000  0.4413170000000  0.4988530000000 1.0
C      1  0.5369250000000  0.5264840000000  0.5025050000000 1.0
C      1  0.4971140000000  0.4907570000000  0.4920910000000 1.0
C      1  0.5858330000000  0.5233520000000  0.4727780000000 1.0
C      1  0.4915840000000  0.4468590000000  0.5860860000000 1.0
C      1  0.5217680000000  0.5896620000000  0.4892860000000 1.0
C      1  0.5107340000000  0.5389250000000  0.5027030000000 1.0
C      1  0.5441570000000  0.4949900000000  0.4736950000000 1.0
C      1  0.4755190000000  0.4410030000000  0.5484360000000 1.0
C      1  0.4854910000000  0.5462110000000  0.4410810000000 1.0
C      1  0.4950260000000  0.5829150000000  0.5334290000000 1.0
C      1  0.4460180000000  0.5488580000000  0.5261800000000 1.0
C      1  0.4921420000000  0.4562380000000  0.4480010000000 1.0
C      1  0.5638130000000  0.5452710000000  0.5744960000000 1.0
C      1  0.4309350000000  0.4816170000000  0.4473430000000 1.0
C      1  0.5207160000000  0.4090500000000  0.4646240000000 1.0
C      1  0.5733920000000  0.4825880000000  0.4450210000000 1.0
C      1  0.5611180000000  0.4504780000000  0.5351480000000 1.0
C      1  0.4534920000000  0.4275960000000  0.5526720000000 1.0
C      1  0.5172200000000  0.5217290000000  0.4038750000000 1.0
C      1  0.4811860000000  0.5949850000000  0.4752070000000 1.0
C      1  0.4351140000000  0.4569760000000  0.5244640000000 1.0
C      1  0.5528360000000  0.5686530000000  0.4603230000000 1.0
C      1  0.4804280000000  0.5328750000000  0.5459470000000 1.0
C      1  0.5337190000000  0.4713090000000  0.5803090000000 1.0
C      1  0.5137670000000  0.5193940000000  0.5930470000000 1.0
C      1  0.4054280000000  0.4800490000000  0.4943040000000 1.0
C      1  0.5051970000000  0.5998250000000  0.5116780000000 1.0
C      1  0.5673420000000  0.5301690000000  0.4302760000000 1.0
C      1  0.4719890000000  0.4703600000000  0.4556250000000 1.0
C      1  0.4577450000000  0.4962170000000  0.5287470000000 1.0
C      1  0.5478520000000  0.4821130000000  0.4988770000000 1.0
C      1  0.4691800000000  0.4196470000000  0.4530370000000 1.0
C      1  0.4107840000000  0.4906230000000  0.5203950000000 1.0
C      1  0.4164050000000  0.4531560000000  0.4806730000000 1.0
C      1  0.5611930000000  0.5575780000000  0.5084140000000 1.0
C      1  0.4907460000000  0.5105620000000  0.3987900000000 1.0
C      1  0.5717120000000  0.5444690000000  0.4562480000000 1.0
C      1  0.5320140000000  0.4375500000000  0.4716180000000 1.0
C      1  0.4364260000000  0.5127610000000  0.4878220000000 1.0
C      1  0.5051620000000  0.5678630000000  0.4360100000000 1.0
C      1  0.5019490000000  0.4753040000000  0.5375800000000 1.0
C      1  0.4436550000000  0.5618480000000  0.4295330000000 1.0
C      1  0.5190160000000  0.5236080000000  0.5477280000000 1.0
C      1  0.5535010000000  0.4380880000000  0.5544540000000 1.0
C      1  0.4997180000000  0.4973630000000  0.5203760000000 1.0
C      1  0.5253100000000  0.5600740000000  0.4562370000000 1.0
C      1  0.5862250000000  0.4939520000000  0.4706720000000 1.0
C      1  0.4512020000000  0.5815260000000  0.4501620000000 1.0
C      1  0.5227270000000  0.5321420000000  0.4583940000000 1.0
C      1  0.5234400000000  0.4893110000000  0.4560910000000 1.0
C      1  0.4729320000000  0.5487170000000  0.4678330000000 1.0
C      1  0.4849670000000  0.4144190000000  0.4910800000000 1.0
C      1  0.4377090000000  0.5267130000000  0.5763340000000 1.0
C      1  0.4698770000000  0.4701970000000  0.4123200000000 1.0
C      1  0.5439890000000  0.5230880000000  0.4753310000000 1.0
C      1  0.5603810000000  0.4570720000000  0.4426710000000 1.0
C      1  0.5205480000000  0.5495670000000  0.4131540000000 1.0
C      1  0.4981020000000  0.4154370000000  0.4455560000000 1.0
C      1  0.5882100000000  0.4879410000000  0.5243000000000 1.0
C      1  0.5559490000000  0.5506330000000  0.5352900000000 1.0
C      1  0.5618770000000  0.4747310000000  0.5707920000000 1.0
C      1  0.5622210000000  0.4436990000000  0.4672340000000 1.0
C      1  0.4922120000000  0.4047560000000  0.5181970000000 1.0
C      1  0.5392370000000  0.5033250000000  0.5463880000000 1.0
C      1  0.4953260000000  0.5196430000000  0.4880080000000 1.0
C      1  0.4841520000000  0.4461110000000  0.4227290000000 1.0
C      1  0.4513890000000  0.4439920000000  0.4507060000000 1.0
C      1  0.4697010000000  0.5221810000000  0.4772450000000 1.0
C      1  0.4570040000000  0.4107840000000  0.4793980000000 1.0
C      1  0.5278300000000  0.4260780000000  0.5555810000000 1.0
C      1  0.5083450000000  0.5621820000000  0.5801600000000 1.0
C      1  0.4675020000000  0.5855730000000  0.5221610000000 1.0
C      1  0.5221440000000  0.4710500000000  0.5029870000000 1.0
C      1  0.4595910000000  0.4698720000000  0.5160550000000 1.0
C      1  0.5759780000000  0.4710540000000  0.5448650000000 1.0
C      1  0.5644350000000  0.4339830000000  0.5139390000000 1.0
C      1  0.4650810000000  0.4080310000000  0.5289530000000 1.0
C      1  0.5426680000000  0.4120970000000  0.5126230000000 1.0
C      1  0.5094080000000  0.4310620000000  0.4231590000000 1.0
C      1  0.4440670000000  0.4402290000000  0.4784740000000 1.0
C      1  0.4767630000000  0.5036920000000  0.4516150000000 1.0
C      1  0.4777800000000  0.6044180000000  0.5017400000000 1.0
C      1  0.5583360000000  0.5032980000000  0.5697860000000 1.0
C      1  0.4813800000000  0.5527750000000  0.5891060000000 1.0
C      1  0.5057840000000  0.5110740000000  0.4475470000000 1.0
C      1  0.5458910000000  0.5458050000000  0.4222240000000 1.0
C      1  0.5734250000000  0.5616350000000  0.5536630000000 1.0
C      1  0.4059560000000  0.5081700000000  0.4836350000000 1.0
C      1  0.4086310000000  0.5302390000000  0.5320680000000 1.0
C      1  0.4202040000000  0.5557300000000  0.5239320000000 1.0
C      1  0.4277190000000  0.4353480000000  0.5142650000000 1.0
C      1  0.5794900000000  0.5224540000000  0.5645080000000 1.0
C      1  0.5308820000000  0.5435490000000  0.5834710000000 1.0
C      1  0.4578800000000  0.5122800000000  0.5921840000000 1.0
C      1  0.4459040000000  0.5601390000000  0.4717790000000 1.0
C      1  0.4340120000000  0.4815700000000  0.5632050000000 1.0
C      1  0.6046120000000  0.5311160000000  0.5179420000000 1.0
C      1  0.5002120000000  0.5249970000000  0.5276200000000 1.0
C      1  0.5191780000000  0.4450410000000  0.4960790000000 1.0
C      1  0.4835560000000  0.4752700000000  0.5865350000000 1.0
C      1  0.4941850000000  0.4819260000000  0.4017870000000 1.0
C      1  0.4889030000000  0.4873510000000  0.5597620000000 1.0
C      1  0.5196780000000  0.4601880000000  0.4528520000000 1.0
C      1  0.5277650000000  0.4023320000000  0.4907200000000 1.0
C      1  0.5347630000000  0.5697050000000  0.5062840000000 1.0
C      1  0.4664490000000  0.4766690000000  0.4842040000000 1.0
C      1  0.4530760000000  0.5145220000000  0.4342720000000 1.0
C      1  0.5191500000000  0.4151260000000  0.5294240000000 1.0
C      1  0.4841210000000  0.4546440000000  0.5256020000000 1.0
C      1  0.5225520000000  0.4746500000000  0.4081870000000 1.0
C      1  0.5842220000000  0.5340220000000  0.4992760000000 1.0
C      1  0.4475420000000  0.4869840000000  0.4233000000000 1.0
C      1  0.5326980000000  0.4515300000000  0.4245510000000 1.0
C      1  0.4543650000000  0.5514280000000  0.5762210000000 1.0
C      1  0.5122720000000  0.5711900000000  0.5536720000000 1.0
C      1  0.5184920000000  0.4457210000000  0.5760370000000 1.0
C      1  0.4374900000000  0.5419040000000  0.4492520000000 1.0
C      1  0.4339360000000  0.4553060000000  0.5497310000000 1.0
C      1  0.5489800000000  0.5927760000000  0.4767520000000 1.0
C      1  0.5460530000000  0.5043660000000  0.5181670000000 1.0
C      1  0.5744860000000  0.4525220000000  0.4924560000000 1.0
C      1  0.5600160000000  0.5854290000000  0.5028150000000 1.0
C      1  0.4806220000000  0.5866700000000  0.4504710000000 1.0
END
