TITL C-2441169-1362-797 0.0312428350463695 125000 -5698.20202925433 0 0 52 (C1) n - 1
REM
REM in /home/bkarasulu/work/CARBON/AIRSS/Generating-Clusters/ReaxFF-fromJPCA2015/Units_Real/with-SteepDescent/Higher-Symm
REM
REM
REM
REM
REM
REM ./C.cell (1df0a924f5614ab8850e4351716899ee)
REM
REM compiler GCC version 9.2.1 20190827 (Red Hat 9.2.1-1)
REM options -cpp -mtune=generic -march=x86-64 -g -O0 -fpre-include=/usr/include/finclude/math-vector-fortran.h
REM seed 421355300 -1647291868 1874019500 -2009308676 381835316 1265606251 -386888075 -1567476932 -720656175 -216779067 -886985886 994066632 334137319 341776867 -1183573594 1160923812 -774590871 662516365 -103478926 1721507169 -2094173927 637531758 -1659344608 -753228800 -1692739687 718561972 753940942 259697035 2038040964 -1152534614 1159641652 -1427141647 354925011
REM
CELL 1.54180   50.00000   50.00000   50.00000   90.00000   90.00000   90.00000
LATT -1
SFAC C  
C      1  0.5579250000000  0.5347880000000  0.5118530000000 1.0
C      1  0.5129410000000  0.5584390000000  0.5349790000000 1.0
C      1  0.5384160000000  0.5074720000000  0.5628490000000 1.0
C      1  0.4397610000000  0.5387250000000  0.4923100000000 1.0
C      1  0.5587520000000  0.4645360000000  0.4888300000000 1.0
C      1  0.4382180000000  0.4609450000000  0.5047790000000 1.0
C      1  0.4920920000000  0.5651760000000  0.4615250000000 1.0
C      1  0.5113660000000  0.4380510000000  0.4620300000000 1.0
C      1  0.4951400000000  0.4384700000000  0.5386330000000 1.0
C      1  0.4629770000000  0.5049670000000  0.4311750000000 1.0
C      1  0.5364790000000  0.4873030000000  0.4426570000000 1.0
C      1  0.4632610000000  0.4930050000000  0.5643410000000 1.0
C      1  0.5474710000000  0.4904550000000  0.5192890000000 1.0
C      1  0.5202740000000  0.5466510000000  0.4896150000000 1.0
C      1  0.4903090000000  0.5184000000000  0.5454340000000 1.0
C      1  0.4518460000000  0.4895730000000  0.4792950000000 1.0
C      1  0.5497330000000  0.5105130000000  0.4782160000000 1.0
C      1  0.4518990000000  0.5102410000000  0.5187970000000 1.0
C      1  0.4800780000000  0.5490310000000  0.5111120000000 1.0
C      1  0.5199550000000  0.4529600000000  0.5098190000000 1.0
C      1  0.4815930000000  0.4521090000000  0.4878180000000 1.0
C      1  0.5106810000000  0.5193930000000  0.4503910000000 1.0
C      1  0.4902930000000  0.4823880000000  0.4526170000000 1.0
C      1  0.5125640000000  0.4778440000000  0.5486860000000 1.0
C      1  0.5334130000000  0.4760920000000  0.4985220000000 1.0
C      1  0.4977050000000  0.5353880000000  0.4744210000000 1.0
C      1  0.4731970000000  0.4986180000000  0.5327900000000 1.0
C      1  0.4647680000000  0.4735070000000  0.5022030000000 1.0
C      1  0.5334540000000  0.5229320000000  0.4998630000000 1.0
C      1  0.4658320000000  0.5239200000000  0.4987240000000 1.0
C      1  0.5015820000000  0.5339240000000  0.5231760000000 1.0
C      1  0.4966440000000  0.4639540000000  0.5242960000000 1.0
C      1  0.5026210000000  0.4661160000000  0.4740440000000 1.0
C      1  0.5234050000000  0.4994810000000  0.4661840000000 1.0
C      1  0.4724570000000  0.5044730000000  0.4624580000000 1.0
C      1  0.5250150000000  0.5010590000000  0.5355350000000 1.0
C      1  0.5209620000000  0.4340830000000  0.5308260000000 1.0
C      1  0.5341110000000  0.5187520000000  0.4335770000000 1.0
C      1  0.4344350000000  0.5362440000000  0.5205470000000 1.0
C      1  0.4808800000000  0.4332230000000  0.4653170000000 1.0
C      1  0.5216450000000  0.5660000000000  0.4666780000000 1.0
C      1  0.4803990000000  0.5657660000000  0.5337890000000 1.0
C      1  0.4674830000000  0.5222620000000  0.5655660000000 1.0
C      1  0.5361430000000  0.4772800000000  0.5674220000000 1.0
C      1  0.4679350000000  0.4758070000000  0.4326350000000 1.0
C      1  0.5665310000000  0.5348720000000  0.4815350000000 1.0
C      1  0.4334090000000  0.4689650000000  0.4793540000000 1.0
C      1  0.5669280000000  0.4669850000000  0.5178680000000 1.0
C      1  0.4683410000000  0.4686350000000  0.5314170000000 1.0
C      1  0.5404060000000  0.4643790000000  0.4613460000000 1.0
C      1  0.4696530000000  0.5331920000000  0.4709180000000 1.0
C      1  0.5384150000000  0.5449040000000  0.5323940000000 1.0
END
