TITL C-2441163-1170-71 0.123975352227833 125000 -25021.7223352964 0 0 195 (C1) n - 1
REM
REM in /home/bkarasulu/work/CARBON/AIRSS/Generating-Clusters/ReaxFF-fromJPCA2015/Units_Real/with-SteepDescent/Higher-Symm
REM
REM
REM
REM
REM
REM ./C.cell (1df0a924f5614ab8850e4351716899ee)
REM
REM compiler GCC version 9.2.1 20190827 (Red Hat 9.2.1-1)
REM options -cpp -mtune=generic -march=x86-64 -g -O0 -fpre-include=/usr/include/finclude/math-vector-fortran.h
REM seed -1221152492 748524557 -776693046 -1266417745 150524527 -1288105751 211765772 -291809008 -434773631 1183809758 1450681350 -828656094 37861433 -70528530 -1413805377 829247139 572427611 -528214505 1297245777 1585820303 -1957320922 -1895679153 806794404 1454850829 -151389904 965861783 -1124193134 -1709000272 648613309 2114622246 -2034637453 -1964648686 148189437
REM
CELL 1.54180   50.00000   50.00000   50.00000   90.00000   90.00000   90.00000
LATT -1
SFAC C  
C      1  0.5027450000000  0.4254840000000  0.5996210000000 1.0
C      1  0.4306630000000  0.5324980000000  0.6006800000000 1.0
C      1  0.5453900000000  0.5507290000000  0.6043210000000 1.0
C      1  0.5153880000000  0.4393340000000  0.4026470000000 1.0
C      1  0.4359480000000  0.5281170000000  0.4003010000000 1.0
C      1  0.5493490000000  0.5511150000000  0.3928240000000 1.0
C      1  0.4742610000000  0.4300830000000  0.6020720000000 1.0
C      1  0.5601710000000  0.5260820000000  0.5982310000000 1.0
C      1  0.4499930000000  0.5535270000000  0.6011830000000 1.0
C      1  0.4857520000000  0.4419890000000  0.3997510000000 1.0
C      1  0.5605150000000  0.5250750000000  0.4000440000000 1.0
C      1  0.4506090000000  0.5521370000000  0.3911220000000 1.0
C      1  0.4393010000000  0.4764840000000  0.4775700000000 1.0
C      1  0.5191000000000  0.5712040000000  0.4823160000000 1.0
C      1  0.5536900000000  0.4528960000000  0.4812930000000 1.0
C      1  0.4341510000000  0.4767400000000  0.5227490000000 1.0
C      1  0.5133630000000  0.5697330000000  0.5214330000000 1.0
C      1  0.5589460000000  0.4538130000000  0.5243340000000 1.0
C      1  0.5660870000000  0.4766560000000  0.4653150000000 1.0
C      1  0.4780950000000  0.5670260000000  0.4810650000000 1.0
C      1  0.4462070000000  0.4497800000000  0.4758300000000 1.0
C      1  0.5683750000000  0.4797620000000  0.5185320000000 1.0
C      1  0.4858530000000  0.5682840000000  0.5240520000000 1.0
C      1  0.4512810000000  0.4529800000000  0.5153150000000 1.0
C      1  0.4863920000000  0.5773900000000  0.5715380000000 1.0
C      1  0.5771170000000  0.4879720000000  0.5685550000000 1.0
C      1  0.4411040000000  0.4525550000000  0.5620380000000 1.0
C      1  0.4847150000000  0.5764450000000  0.4296030000000 1.0
C      1  0.5729950000000  0.4764800000000  0.4319980000000 1.0
C      1  0.4420530000000  0.4456960000000  0.4301510000000 1.0
C      1  0.5150300000000  0.5822230000000  0.5708010000000 1.0
C      1  0.4247050000000  0.4770800000000  0.5660450000000 1.0
C      1  0.5503470000000  0.4347980000000  0.5646530000000 1.0
C      1  0.5136910000000  0.5777030000000  0.4287610000000 1.0
C      1  0.4272670000000  0.4709770000000  0.4267490000000 1.0
C      1  0.5515160000000  0.4326780000000  0.4313630000000 1.0
C      1  0.4129580000000  0.5684490000000  0.4710020000000 1.0
C      1  0.6022090000000  0.5424920000000  0.4722710000000 1.0
C      1  0.4856820000000  0.3893950000000  0.4714960000000 1.0
C      1  0.4117390000000  0.5672080000000  0.5276330000000 1.0
C      1  0.6023050000000  0.5415360000000  0.5278690000000 1.0
C      1  0.4856310000000  0.3896660000000  0.5284760000000 1.0
C      1  0.5856710000000  0.5675400000000  0.4718750000000 1.0
C      1  0.3963220000000  0.5426400000000  0.4714210000000 1.0
C      1  0.5149920000000  0.3870820000000  0.4702310000000 1.0
C      1  0.5876800000000  0.5675320000000  0.5277910000000 1.0
C      1  0.3974580000000  0.5404820000000  0.5270250000000 1.0
C      1  0.5153520000000  0.3892100000000  0.5281280000000 1.0
C      1  0.5471620000000  0.5547960000000  0.4474290000000 1.0
C      1  0.5278710000000  0.4267700000000  0.4474440000000 1.0
C      1  0.4269440000000  0.5170680000000  0.4516350000000 1.0
C      1  0.5482990000000  0.5555540000000  0.5491890000000 1.0
C      1  0.5245480000000  0.4288750000000  0.5508160000000 1.0
C      1  0.4306550000000  0.5107340000000  0.5529850000000 1.0
C      1  0.4515080000000  0.5572630000000  0.4430340000000 1.0
C      1  0.4753800000000  0.4278940000000  0.4461770000000 1.0
C      1  0.5723000000000  0.5166580000000  0.4513920000000 1.0
C      1  0.4507090000000  0.5532800000000  0.5479500000000 1.0
C      1  0.4739420000000  0.4294340000000  0.5534150000000 1.0
C      1  0.5723630000000  0.5152600000000  0.5507270000000 1.0
C      1  0.4710990000000  0.4357950000000  0.4749420000000 1.0
C      1  0.4568470000000  0.5512220000000  0.4712620000000 1.0
C      1  0.5631560000000  0.5041280000000  0.4761900000000 1.0
C      1  0.4799700000000  0.4405000000000  0.5272900000000 1.0
C      1  0.4572990000000  0.5396820000000  0.5229050000000 1.0
C      1  0.5586170000000  0.5189620000000  0.5223170000000 1.0
C      1  0.5277400000000  0.4402150000000  0.4730860000000 1.0
C      1  0.5336380000000  0.5508140000000  0.4725150000000 1.0
C      1  0.4440420000000  0.5255090000000  0.4739070000000 1.0
C      1  0.5083750000000  0.4398580000000  0.5286050000000 1.0
C      1  0.5432260000000  0.5444460000000  0.5224760000000 1.0
C      1  0.4436800000000  0.5140650000000  0.5267100000000 1.0
C      1  0.5681710000000  0.5841570000000  0.5136430000000 1.0
C      1  0.5391700000000  0.3976450000000  0.5137940000000 1.0
C      1  0.3925750000000  0.5157350000000  0.5115750000000 1.0
C      1  0.5674340000000  0.5845310000000  0.4851900000000 1.0
C      1  0.5401810000000  0.3940810000000  0.4845690000000 1.0
C      1  0.3938180000000  0.5158220000000  0.4832050000000 1.0
C      1  0.4322100000000  0.5838720000000  0.5145460000000 1.0
C      1  0.4634190000000  0.3982270000000  0.5135420000000 1.0
C      1  0.6072100000000  0.5165700000000  0.5127870000000 1.0
C      1  0.4321360000000  0.5852770000000  0.4854650000000 1.0
C      1  0.4656270000000  0.4042380000000  0.4858650000000 1.0
C      1  0.6043470000000  0.5155950000000  0.4840090000000 1.0
C      1  0.5153620000000  0.4672840000000  0.5207120000000 1.0
C      1  0.4739700000000  0.4981430000000  0.5238640000000 1.0
C      1  0.5158190000000  0.5287420000000  0.5239830000000 1.0
C      1  0.5169360000000  0.4668950000000  0.4755290000000 1.0
C      1  0.4650760000000  0.5068780000000  0.4784440000000 1.0
C      1  0.5154700000000  0.5264320000000  0.4767740000000 1.0
C      1  0.4891940000000  0.4766130000000  0.5097510000000 1.0
C      1  0.5332750000000  0.5048120000000  0.5209690000000 1.0
C      1  0.4846610000000  0.5246220000000  0.5150480000000 1.0
C      1  0.4877200000000  0.4652270000000  0.4822410000000 1.0
C      1  0.5341140000000  0.5007780000000  0.4809960000000 1.0
C      1  0.4884400000000  0.5209040000000  0.4875910000000 1.0
C      1  0.5439400000000  0.4464410000000  0.4067540000000 1.0
C      1  0.4459500000000  0.4781160000000  0.4018230000000 1.0
C      1  0.5154670000000  0.5608730000000  0.4034710000000 1.0
C      1  0.5577070000000  0.4536780000000  0.5874070000000 1.0
C      1  0.4322710000000  0.4706110000000  0.5973010000000 1.0
C      1  0.5190990000000  0.5659200000000  0.5952880000000 1.0
C      1  0.4565380000000  0.4505280000000  0.4047360000000 1.0
C      1  0.5536790000000  0.4751530000000  0.4080580000000 1.0
C      1  0.4820390000000  0.5602900000000  0.4023940000000 1.0
C      1  0.4593320000000  0.4590680000000  0.5976930000000 1.0
C      1  0.5593160000000  0.4823090000000  0.5915440000000 1.0
C      1  0.4905580000000  0.5590970000000  0.5960470000000 1.0
C      1  0.4223880000000  0.5615200000000  0.4439470000000 1.0
C      1  0.5925740000000  0.5369590000000  0.4453230000000 1.0
C      1  0.4860990000000  0.4022070000000  0.4462570000000 1.0
C      1  0.4227160000000  0.5598790000000  0.5539390000000 1.0
C      1  0.5909870000000  0.5361460000000  0.5533640000000 1.0
C      1  0.4856340000000  0.4019880000000  0.5547410000000 1.0
C      1  0.5757230000000  0.5606220000000  0.4467380000000 1.0
C      1  0.4057520000000  0.5369490000000  0.4445260000000 1.0
C      1  0.5143220000000  0.4007780000000  0.4442530000000 1.0
C      1  0.5767330000000  0.5605130000000  0.5542450000000 1.0
C      1  0.4102140000000  0.5327400000000  0.5523520000000 1.0
C      1  0.5151870000000  0.4016560000000  0.5550290000000 1.0
C      1  0.4841630000000  0.4748450000000  0.4531120000000 1.0
C      1  0.4854620000000  0.5183470000000  0.4407310000000 1.0
C      1  0.5284560000000  0.4997500000000  0.4503810000000 1.0
C      1  0.4909970000000  0.4766160000000  0.5615380000000 1.0
C      1  0.4843800000000  0.5227100000000  0.5617760000000 1.0
C      1  0.5343220000000  0.4960100000000  0.5492160000000 1.0
C      1  0.5141130000000  0.4757320000000  0.4477450000000 1.0
C      1  0.5120380000000  0.5221010000000  0.4478360000000 1.0
C      1  0.4696820000000  0.4984290000000  0.4508280000000 1.0
C      1  0.5176680000000  0.4737090000000  0.5511880000000 1.0
C      1  0.5081460000000  0.5328390000000  0.5514720000000 1.0
C      1  0.4739780000000  0.4977530000000  0.5534730000000 1.0
C      1  0.4798100000000  0.5934290000000  0.4728440000000 1.0
C      1  0.5926300000000  0.4674980000000  0.4772270000000 1.0
C      1  0.4204380000000  0.4382560000000  0.4775900000000 1.0
C      1  0.4795140000000  0.5960690000000  0.5297240000000 1.0
C      1  0.5954450000000  0.4708070000000  0.5252760000000 1.0
C      1  0.4291990000000  0.4316360000000  0.5168760000000 1.0
C      1  0.5198310000000  0.5968830000000  0.4721100000000 1.0
C      1  0.4105320000000  0.4669660000000  0.4793160000000 1.0
C      1  0.5813760000000  0.4408620000000  0.4751590000000 1.0
C      1  0.5197090000000  0.5967960000000  0.5265980000000 1.0
C      1  0.4066510000000  0.4715050000000  0.5253710000000 1.0
C      1  0.5748080000000  0.4320100000000  0.5252220000000 1.0
C      1  0.4729210000000  0.5079030000000  0.5996880000000 1.0
C      1  0.5201520000000  0.5201710000000  0.6002860000000 1.0
C      1  0.5089090000000  0.4748250000000  0.6018940000000 1.0
C      1  0.4656020000000  0.4990900000000  0.3954810000000 1.0
C      1  0.5149990000000  0.5315070000000  0.4021620000000 1.0
C      1  0.5130850000000  0.4808260000000  0.3975900000000 1.0
C      1  0.5307950000000  0.4938800000000  0.6013300000000 1.0
C      1  0.4931690000000  0.5291930000000  0.6024820000000 1.0
C      1  0.4802250000000  0.4807910000000  0.6034080000000 1.0
C      1  0.5364020000000  0.4961940000000  0.3986160000000 1.0
C      1  0.4853220000000  0.5310190000000  0.3996540000000 1.0
C      1  0.4856020000000  0.4831520000000  0.3931940000000 1.0
C      1  0.5481520000000  0.5156410000000  0.5678150000000 1.0
C      1  0.4873180000000  0.4499830000000  0.5700720000000 1.0
C      1  0.4634780000000  0.5404050000000  0.5717110000000 1.0
C      1  0.5523630000000  0.5134080000000  0.4317110000000 1.0
C      1  0.4873870000000  0.4475560000000  0.4289960000000 1.0
C      1  0.4647750000000  0.5328560000000  0.4284170000000 1.0
C      1  0.4495320000000  0.5148880000000  0.5813430000000 1.0
C      1  0.5125470000000  0.4510700000000  0.5845210000000 1.0
C      1  0.5312140000000  0.5393200000000  0.5668390000000 1.0
C      1  0.4418540000000  0.5140280000000  0.4269280000000 1.0
C      1  0.5112440000000  0.4589140000000  0.4236600000000 1.0
C      1  0.5320860000000  0.5346170000000  0.4306110000000 1.0
C      1  0.5713350000000  0.4207090000000  0.5504640000000 1.0
C      1  0.3985510000000  0.4772740000000  0.5511260000000 1.0
C      1  0.5313220000000  0.5985420000000  0.5523510000000 1.0
C      1  0.5736720000000  0.4248560000000  0.4513600000000 1.0
C      1  0.4064030000000  0.4835970000000  0.4418260000000 1.0
C      1  0.5303120000000  0.5952690000000  0.4454280000000 1.0
C      1  0.4317560000000  0.4298480000000  0.5471460000000 1.0
C      1  0.5996490000000  0.4782710000000  0.5534660000000 1.0
C      1  0.4684170000000  0.5944050000000  0.5557100000000 1.0
C      1  0.4284850000000  0.4251030000000  0.4513430000000 1.0
C      1  0.5969560000000  0.4850030000000  0.4405050000000 1.0
C      1  0.4698020000000  0.5958800000000  0.4461260000000 1.0
C      1  0.6126350000000  0.4928600000000  0.5297160000000 1.0
C      1  0.4402520000000  0.4077070000000  0.5280540000000 1.0
C      1  0.4518620000000  0.5978220000000  0.5318130000000 1.0
C      1  0.6074500000000  0.4903860000000  0.4666980000000 1.0
C      1  0.4389500000000  0.4034040000000  0.4659470000000 1.0
C      1  0.4523710000000  0.5995000000000  0.4689870000000 1.0
C      1  0.3878890000000  0.4914610000000  0.5283030000000 1.0
C      1  0.5641510000000  0.4061260000000  0.5263080000000 1.0
C      1  0.5480330000000  0.5992140000000  0.5288350000000 1.0
C      1  0.3948990000000  0.4889680000000  0.4674270000000 1.0
C      1  0.5598130000000  0.4068930000000  0.4679380000000 1.0
C      1  0.5479590000000  0.5989190000000  0.4682420000000 1.0
C      1  0.4993700000000  0.5598100000000  0.4976060000000 1.0
C      1  0.4493390000000  0.4772160000000  0.5022540000000 1.0
C      1  0.5457880000000  0.4655050000000  0.5063740000000 1.0
END
