TITL C-2441158-471-892 0.0114947688527326 125000 -8750.92061699062 0 0 62 (C1) n - 1
REM
REM in /home/bkarasulu/work/CARBON/AIRSS/Generating-Clusters/ReaxFF-fromJPCA2015/Units_Real/with-SteepDescent/Higher-Symm
REM
REM
REM
REM
REM
REM ./C.cell (1df0a924f5614ab8850e4351716899ee)
REM
REM compiler GCC version 9.2.1 20190827 (Red Hat 9.2.1-1)
REM options -cpp -mtune=generic -march=x86-64 -g -O0 -fpre-include=/usr/include/finclude/math-vector-fortran.h
REM seed 36629888 -576578266 -1622035767 676326747 6117251 956113164 -1816515951 624483521 430793913 624880360 2083211665 -1023962675 1843433618 1098624802 1826329035 -1162874091 1626415570 -275700157 530664521 142003664 495048509 -469072676 230622710 -871141676 -2128485137 2033602284 781604403 1008861339 -1832229865 504163189 268822978 991332132 630200022
REM
CELL 1.54180   50.00000   50.00000   50.00000   90.00000   90.00000   90.00000
LATT -1
SFAC C  
C      1  0.4724130000000  0.5413350000000  0.4794170000000 1.0
C      1  0.4395170000000  0.5178590000000  0.5378330000000 1.0
C      1  0.5060450000000  0.5587020000000  0.5414340000000 1.0
C      1  0.4534050000000  0.5424630000000  0.5017210000000 1.0
C      1  0.5171130000000  0.5147790000000  0.5576880000000 1.0
C      1  0.5209040000000  0.5231140000000  0.4720430000000 1.0
C      1  0.4850220000000  0.4294310000000  0.5290800000000 1.0
C      1  0.5475640000000  0.4662790000000  0.5442420000000 1.0
C      1  0.5419030000000  0.4519920000000  0.4769780000000 1.0
C      1  0.4952980000000  0.5230010000000  0.4391250000000 1.0
C      1  0.5343470000000  0.5533380000000  0.5380270000000 1.0
C      1  0.5009220000000  0.4956350000000  0.4306050000000 1.0
C      1  0.5493540000000  0.5440890000000  0.4543660000000 1.0
C      1  0.4986720000000  0.4380250000000  0.4713210000000 1.0
C      1  0.5289450000000  0.5334640000000  0.4979140000000 1.0
C      1  0.4428170000000  0.4680520000000  0.5240070000000 1.0
C      1  0.4661930000000  0.4520660000000  0.5298170000000 1.0
C      1  0.4737780000000  0.5235340000000  0.4570430000000 1.0
C      1  0.4622070000000  0.5571860000000  0.5256850000000 1.0
C      1  0.5591400000000  0.4650160000000  0.4956230000000 1.0
C      1  0.4450020000000  0.4894760000000  0.5444570000000 1.0
C      1  0.4295720000000  0.4990420000000  0.4894150000000 1.0
C      1  0.5683310000000  0.5165800000000  0.4988280000000 1.0
C      1  0.4995640000000  0.5768830000000  0.4954140000000 1.0
C      1  0.4569290000000  0.5025590000000  0.4569730000000 1.0
C      1  0.4859020000000  0.5146140000000  0.5256830000000 1.0
C      1  0.5410950000000  0.5257960000000  0.5455970000000 1.0
C      1  0.4941850000000  0.4779910000000  0.4921960000000 1.0
C      1  0.5115170000000  0.5437740000000  0.4533900000000 1.0
C      1  0.5036440000000  0.4669280000000  0.4660720000000 1.0
C      1  0.5404600000000  0.4998940000000  0.4568470000000 1.0
C      1  0.4592380000000  0.5372270000000  0.5465340000000 1.0
C      1  0.5082640000000  0.4878210000000  0.5654920000000 1.0
C      1  0.5294100000000  0.5062430000000  0.5072280000000 1.0
C      1  0.4935820000000  0.5587030000000  0.4735060000000 1.0
C      1  0.5288560000000  0.4887970000000  0.4342760000000 1.0
C      1  0.4356730000000  0.5207980000000  0.5087630000000 1.0
C      1  0.5402420000000  0.5584450000000  0.5094680000000 1.0
C      1  0.4934500000000  0.5320530000000  0.5482130000000 1.0
C      1  0.4298980000000  0.5026980000000  0.4604180000000 1.0
C      1  0.4869820000000  0.4725060000000  0.4422440000000 1.0
C      1  0.5095020000000  0.4385640000000  0.5421990000000 1.0
C      1  0.5197940000000  0.4646310000000  0.5510070000000 1.0
C      1  0.5512600000000  0.4933640000000  0.4953130000000 1.0
C      1  0.4721220000000  0.4381550000000  0.4834560000000 1.0
C      1  0.4509820000000  0.4551210000000  0.4734600000000 1.0
C      1  0.5290580000000  0.5834260000000  0.4972980000000 1.0
C      1  0.5113710000000  0.4267010000000  0.5153660000000 1.0
C      1  0.5216220000000  0.4337540000000  0.4881970000000 1.0
C      1  0.5670380000000  0.4860740000000  0.5368850000000 1.0
C      1  0.4389610000000  0.4723390000000  0.4952970000000 1.0
C      1  0.4801840000000  0.4863130000000  0.5629250000000 1.0
C      1  0.5406920000000  0.4702800000000  0.4534150000000 1.0
C      1  0.4718380000000  0.4949220000000  0.5406720000000 1.0
C      1  0.5616210000000  0.5224700000000  0.4680650000000 1.0
C      1  0.4422050000000  0.4864360000000  0.4399440000000 1.0
C      1  0.4774910000000  0.4594530000000  0.5034030000000 1.0
C      1  0.4882600000000  0.5710020000000  0.5226340000000 1.0
C      1  0.5023170000000  0.4999100000000  0.5082470000000 1.0
C      1  0.5643400000000  0.4614960000000  0.5227320000000 1.0
C      1  0.5628200000000  0.5134770000000  0.5280080000000 1.0
C      1  0.4591680000000  0.4639220000000  0.4464950000000 1.0
END
