TITL C-2441154-10-322 0.0116117297137628 125000 -10899.3652167584 0 0 74 (C1) n - 1
REM
REM in /home/bkarasulu/work/CARBON/AIRSS/Generating-Clusters/ReaxFF-fromJPCA2015/Units_Real/with-SteepDescent/Higher-Symm
REM
REM
REM
REM
REM
REM ./C.cell (1df0a924f5614ab8850e4351716899ee)
REM
REM compiler GCC version 9.2.1 20190827 (Red Hat 9.2.1-1)
REM options -cpp -mtune=generic -march=x86-64 -g -O0 -fpre-include=/usr/include/finclude/math-vector-fortran.h
REM seed -1292642899 17541333 -1509944104 1909829647 1803376193 -1959388881 1484377803 -1034465792 921446428 692126646 -2071377213 627508007 665494643 -2130301513 781518986 -1560486872 1521231776 1011566677 903235895 174573356 -446046396 -2019167254 919334847 -1337169201 550575927 1832152680 2122425563 -488098943 1286811605 877810469 -703705365 748739447 1543555071
REM
CELL 1.54180   50.00000   50.00000   50.00000   90.00000   90.00000   90.00000
LATT -1
SFAC C  
C      1  0.5124730000000  0.5451330000000  0.4443210000000 1.0
C      1  0.4945790000000  0.4635530000000  0.4368190000000 1.0
C      1  0.5133040000000  0.5399280000000  0.5561250000000 1.0
C      1  0.4817710000000  0.4613280000000  0.5615130000000 1.0
C      1  0.5649570000000  0.5075680000000  0.4475510000000 1.0
C      1  0.4495710000000  0.4885270000000  0.4540130000000 1.0
C      1  0.5653700000000  0.5133020000000  0.5448740000000 1.0
C      1  0.4380010000000  0.4929930000000  0.5534280000000 1.0
C      1  0.4587890000000  0.5695690000000  0.4861890000000 1.0
C      1  0.5380050000000  0.4303380000000  0.4855250000000 1.0
C      1  0.4597780000000  0.5698770000000  0.5155260000000 1.0
C      1  0.5396920000000  0.4319990000000  0.5151920000000 1.0
C      1  0.5092310000000  0.4772550000000  0.5303780000000 1.0
C      1  0.4835540000000  0.5235170000000  0.5269600000000 1.0
C      1  0.5193910000000  0.4877410000000  0.4833670000000 1.0
C      1  0.4840790000000  0.5241890000000  0.4717780000000 1.0
C      1  0.4578800000000  0.5241720000000  0.5149130000000 1.0
C      1  0.5247550000000  0.4998270000000  0.5286230000000 1.0
C      1  0.4584810000000  0.5234260000000  0.4850530000000 1.0
C      1  0.5487680000000  0.4772290000000  0.4953400000000 1.0
C      1  0.4867420000000  0.4746750000000  0.5126330000000 1.0
C      1  0.5080930000000  0.5176670000000  0.5131270000000 1.0
C      1  0.4933550000000  0.4757670000000  0.4846080000000 1.0
C      1  0.5088300000000  0.5148720000000  0.4840750000000 1.0
C      1  0.4849010000000  0.5719020000000  0.4742080000000 1.0
C      1  0.5122750000000  0.4315410000000  0.4715260000000 1.0
C      1  0.4857170000000  0.5701970000000  0.5284520000000 1.0
C      1  0.5135680000000  0.4295900000000  0.5293290000000 1.0
C      1  0.5491420000000  0.5388840000000  0.4853930000000 1.0
C      1  0.4421790000000  0.4571120000000  0.4893070000000 1.0
C      1  0.5509860000000  0.5388120000000  0.5149920000000 1.0
C      1  0.4438320000000  0.4594540000000  0.5179160000000 1.0
C      1  0.4819900000000  0.5013700000000  0.5763830000000 1.0
C      1  0.5223580000000  0.4920620000000  0.5811380000000 1.0
C      1  0.4802130000000  0.5094130000000  0.4207000000000 1.0
C      1  0.5208750000000  0.5032040000000  0.4165530000000 1.0
C      1  0.5116150000000  0.5667800000000  0.5163450000000 1.0
C      1  0.4881840000000  0.4307610000000  0.5160530000000 1.0
C      1  0.5107220000000  0.5676730000000  0.4865790000000 1.0
C      1  0.4871190000000  0.4305810000000  0.4869890000000 1.0
C      1  0.5451130000000  0.4576160000000  0.4490330000000 1.0
C      1  0.4540980000000  0.5395120000000  0.4459440000000 1.0
C      1  0.5453370000000  0.4602770000000  0.5481860000000 1.0
C      1  0.4535460000000  0.5433790000000  0.5569730000000 1.0
C      1  0.5396700000000  0.5031320000000  0.4372770000000 1.0
C      1  0.4732430000000  0.4687250000000  0.4580210000000 1.0
C      1  0.5435430000000  0.5058460000000  0.5497550000000 1.0
C      1  0.4663660000000  0.4853690000000  0.5557340000000 1.0
C      1  0.4849060000000  0.5474670000000  0.5487060000000 1.0
C      1  0.5161050000000  0.4529150000000  0.5476140000000 1.0
C      1  0.4841840000000  0.5505210000000  0.4525030000000 1.0
C      1  0.5166240000000  0.4483870000000  0.4477860000000 1.0
C      1  0.4553620000000  0.5114660000000  0.4371280000000 1.0
C      1  0.5570430000000  0.4818860000000  0.4380470000000 1.0
C      1  0.4439590000000  0.5183840000000  0.5639120000000 1.0
C      1  0.5474690000000  0.4845830000000  0.5660900000000 1.0
C      1  0.4645680000000  0.4450980000000  0.4751920000000 1.0
C      1  0.5274630000000  0.5506790000000  0.4694030000000 1.0
C      1  0.4717740000000  0.4533390000000  0.5286990000000 1.0
C      1  0.5287550000000  0.5488320000000  0.5324110000000 1.0
C      1  0.4973240000000  0.4763840000000  0.5821850000000 1.0
C      1  0.5081520000000  0.5166370000000  0.5734800000000 1.0
C      1  0.4969700000000  0.4855100000000  0.4180070000000 1.0
C      1  0.5048520000000  0.5260580000000  0.4235860000000 1.0
C      1  0.4319430000000  0.4825500000000  0.4764550000000 1.0
C      1  0.5669990000000  0.5178020000000  0.4749290000000 1.0
C      1  0.4291940000000  0.4833210000000  0.5257500000000 1.0
C      1  0.5728080000000  0.5186850000000  0.5187560000000 1.0
C      1  0.5525520000000  0.4577250000000  0.5203660000000 1.0
C      1  0.4453480000000  0.5475380000000  0.5291230000000 1.0
C      1  0.5536480000000  0.4531440000000  0.4762750000000 1.0
C      1  0.4449410000000  0.5468450000000  0.4722990000000 1.0
C      1  0.4213400000000  0.4973580000000  0.5005090000000 1.0
C      1  0.5696740000000  0.4992410000000  0.4967290000000 1.0
END
