TITL C-2441156-4686-1059 0.080492438567371 125000 -19178.8200444802 0 0 140 (C1) n - 1
REM
REM in /home/bkarasulu/work/CARBON/AIRSS/Generating-Clusters/ReaxFF-fromJPCA2015/Units_Real/with-SteepDescent/Higher-Symm
REM
REM
REM
REM
REM
REM ./C.cell (1df0a924f5614ab8850e4351716899ee)
REM
REM compiler GCC version 9.2.1 20190827 (Red Hat 9.2.1-1)
REM options -cpp -mtune=generic -march=x86-64 -g -O0 -fpre-include=/usr/include/finclude/math-vector-fortran.h
REM seed 1857224725 -297494627 -1086607793 -270041373 1433555315 1215984567 643981549 -590208069 -809684873 -2133829972 -1259227079 -194889784 -1790727296 1225160656 1755276939 -1725451138 -1846961058 601730793 -130104679 -1803366411 -637544649 -512358772 -865157103 1841153554 -169496314 1303065940 -187027669 551671928 -1856395163 1136331133 -966539746 -1575609971 -467496925
REM
CELL 1.54180   50.00000   50.00000   50.00000   90.00000   90.00000   90.00000
LATT -1
SFAC C  
C      1  0.4199070000000  0.5087600000000  0.4687470000000 1.0
C      1  0.5047790000000  0.5755330000000  0.4705470000000 1.0
C      1  0.5772540000000  0.4951480000000  0.4689730000000 1.0
C      1  0.4902710000000  0.4203470000000  0.4664800000000 1.0
C      1  0.4196500000000  0.4942890000000  0.5357860000000 1.0
C      1  0.5063550000000  0.4203820000000  0.5342860000000 1.0
C      1  0.5792670000000  0.5071220000000  0.5306660000000 1.0
C      1  0.4948590000000  0.5772300000000  0.5307000000000 1.0
C      1  0.5164770000000  0.5865650000000  0.5477580000000 1.0
C      1  0.5875150000000  0.4859810000000  0.5483060000000 1.0
C      1  0.4812600000000  0.4148050000000  0.5459810000000 1.0
C      1  0.4144100000000  0.5188930000000  0.5494220000000 1.0
C      1  0.5151410000000  0.4149800000000  0.4533580000000 1.0
C      1  0.5867580000000  0.5173400000000  0.4534000000000 1.0
C      1  0.4850850000000  0.5859340000000  0.4524390000000 1.0
C      1  0.4148170000000  0.4848870000000  0.4541360000000 1.0
C      1  0.5597860000000  0.5535780000000  0.4379810000000 1.0
C      1  0.5558270000000  0.4383730000000  0.4372580000000 1.0
C      1  0.4388020000000  0.4453470000000  0.4320810000000 1.0
C      1  0.4440420000000  0.5619860000000  0.4385360000000 1.0
C      1  0.5615890000000  0.4455900000000  0.5641000000000 1.0
C      1  0.5547330000000  0.5613740000000  0.5644010000000 1.0
C      1  0.4394680000000  0.5554780000000  0.5654390000000 1.0
C      1  0.4438350000000  0.4385870000000  0.5675860000000 1.0
C      1  0.5308150000000  0.4486110000000  0.4738750000000 1.0
C      1  0.4489630000000  0.4604670000000  0.4790390000000 1.0
C      1  0.4686910000000  0.5552810000000  0.4743930000000 1.0
C      1  0.5561410000000  0.5299330000000  0.4769640000000 1.0
C      1  0.5306740000000  0.5543800000000  0.5267560000000 1.0
C      1  0.4502740000000  0.5268640000000  0.5256220000000 1.0
C      1  0.4583030000000  0.4480300000000  0.5207610000000 1.0
C      1  0.5535910000000  0.4689630000000  0.5260370000000 1.0
C      1  0.4296660000000  0.4502350000000  0.5172620000000 1.0
C      1  0.4463710000000  0.5710410000000  0.5108440000000 1.0
C      1  0.5710000000000  0.5542820000000  0.5103560000000 1.0
C      1  0.5562820000000  0.4282320000000  0.5103750000000 1.0
C      1  0.4300850000000  0.5538590000000  0.4921020000000 1.0
C      1  0.4529590000000  0.4324780000000  0.4822440000000 1.0
C      1  0.5723370000000  0.4439720000000  0.4913850000000 1.0
C      1  0.5542740000000  0.5703980000000  0.4916710000000 1.0
C      1  0.5694200000000  0.5270800000000  0.4327930000000 1.0
C      1  0.5278270000000  0.4315700000000  0.4331200000000 1.0
C      1  0.4306940000000  0.4732430000000  0.4313600000000 1.0
C      1  0.4721490000000  0.5677180000000  0.4339580000000 1.0
C      1  0.5705300000000  0.4731540000000  0.5688820000000 1.0
C      1  0.5273830000000  0.5695720000000  0.5689340000000 1.0
C      1  0.4299850000000  0.5289040000000  0.5710200000000 1.0
C      1  0.4708280000000  0.4277440000000  0.5697860000000 1.0
C      1  0.5328640000000  0.5585990000000  0.4286020000000 1.0
C      1  0.5615730000000  0.4651530000000  0.4277890000000 1.0
C      1  0.4659830000000  0.4400800000000  0.4224410000000 1.0
C      1  0.4325460000000  0.5372340000000  0.4289880000000 1.0
C      1  0.5344220000000  0.4404490000000  0.5733780000000 1.0
C      1  0.5604050000000  0.5346890000000  0.5738260000000 1.0
C      1  0.4670120000000  0.5602090000000  0.5736780000000 1.0
C      1  0.4394310000000  0.4663030000000  0.5760590000000 1.0
C      1  0.5326950000000  0.5870600000000  0.5023290000000 1.0
C      1  0.5881010000000  0.4670810000000  0.5015090000000 1.0
C      1  0.4758590000000  0.4143790000000  0.4952610000000 1.0
C      1  0.4142750000000  0.5295620000000  0.5005750000000 1.0
C      1  0.5325810000000  0.4151120000000  0.4995840000000 1.0
C      1  0.5881010000000  0.5323410000000  0.5020100000000 1.0
C      1  0.4687580000000  0.5871030000000  0.5015130000000 1.0
C      1  0.4148450000000  0.4710490000000  0.5020770000000 1.0
C      1  0.5473780000000  0.4909100000000  0.5754470000000 1.0
C      1  0.4866190000000  0.4507680000000  0.5787490000000 1.0
C      1  0.4539400000000  0.5144150000000  0.5786090000000 1.0
C      1  0.5114380000000  0.5470990000000  0.5771520000000 1.0
C      1  0.5484120000000  0.5085740000000  0.4248920000000 1.0
C      1  0.4869550000000  0.5473570000000  0.4201000000000 1.0
C      1  0.4540800000000  0.4894060000000  0.4263510000000 1.0
C      1  0.5122920000000  0.4538860000000  0.4223850000000 1.0
C      1  0.4870640000000  0.5077460000000  0.3940780000000 1.0
C      1  0.5138490000000  0.5171180000000  0.3972880000000 1.0
C      1  0.5237990000000  0.4895950000000  0.3958160000000 1.0
C      1  0.4959670000000  0.4799390000000  0.3940670000000 1.0
C      1  0.4805440000000  0.4924600000000  0.6030870000000 1.0
C      1  0.5081310000000  0.4807980000000  0.6013330000000 1.0
C      1  0.5196040000000  0.5083130000000  0.6030220000000 1.0
C      1  0.4922070000000  0.5200480000000  0.6040250000000 1.0
C      1  0.5830470000000  0.5362660000000  0.4736620000000 1.0
C      1  0.5373580000000  0.4194850000000  0.4713900000000 1.0
C      1  0.4198330000000  0.4642340000000  0.4743110000000 1.0
C      1  0.4643360000000  0.5831800000000  0.4731830000000 1.0
C      1  0.5833270000000  0.4630910000000  0.5303240000000 1.0
C      1  0.5364730000000  0.5815670000000  0.5292800000000 1.0
C      1  0.4212930000000  0.5367180000000  0.5282730000000 1.0
C      1  0.4653150000000  0.4202380000000  0.5229130000000 1.0
C      1  0.5707760000000  0.4450170000000  0.4623580000000 1.0
C      1  0.4429720000000  0.4263810000000  0.4555950000000 1.0
C      1  0.4281560000000  0.5591920000000  0.4635130000000 1.0
C      1  0.5538260000000  0.5694800000000  0.4626550000000 1.0
C      1  0.5708240000000  0.5559850000000  0.5398350000000 1.0
C      1  0.4448830000000  0.5701960000000  0.5400610000000 1.0
C      1  0.4247340000000  0.4431430000000  0.5449610000000 1.0
C      1  0.5558270000000  0.4290270000000  0.5397210000000 1.0
C      1  0.4793040000000  0.4647000000000  0.5101430000000 1.0
C      1  0.4635400000000  0.5133620000000  0.5040880000000 1.0
C      1  0.5207830000000  0.5329700000000  0.5121790000000 1.0
C      1  0.5366310000000  0.4848290000000  0.5083530000000 1.0
C      1  0.4788590000000  0.5339820000000  0.4888360000000 1.0
C      1  0.4648570000000  0.4833320000000  0.4929320000000 1.0
C      1  0.5158800000000  0.4656070000000  0.4925310000000 1.0
C      1  0.5361630000000  0.5172030000000  0.4921150000000 1.0
C      1  0.4813910000000  0.4956700000000  0.4675420000000 1.0
C      1  0.4916560000000  0.5232750000000  0.4658610000000 1.0
C      1  0.5181090000000  0.5108390000000  0.4672660000000 1.0
C      1  0.5057020000000  0.4877590000000  0.4772770000000 1.0
C      1  0.4749860000000  0.4930780000000  0.5439600000000 1.0
C      1  0.4956070000000  0.4732940000000  0.5328550000000 1.0
C      1  0.5175540000000  0.4939390000000  0.5321680000000 1.0
C      1  0.5027460000000  0.5188050000000  0.5293660000000 1.0
C      1  0.4548180000000  0.4877280000000  0.5900270000000 1.0
C      1  0.4863270000000  0.5465610000000  0.5912530000000 1.0
C      1  0.5464500000000  0.5153090000000  0.5917430000000 1.0
C      1  0.5136750000000  0.4546850000000  0.5889840000000 1.0
C      1  0.4488120000000  0.5166970000000  0.4187110000000 1.0
C      1  0.4874190000000  0.4544240000000  0.4078050000000 1.0
C      1  0.5489200000000  0.4840460000000  0.4096450000000 1.0
C      1  0.5142860000000  0.5418980000000  0.4140440000000 1.0
C      1  0.4706360000000  0.4213420000000  0.4454520000000 1.0
C      1  0.4188590000000  0.5329730000000  0.4543450000000 1.0
C      1  0.5272400000000  0.5738270000000  0.4533520000000 1.0
C      1  0.5748000000000  0.4714720000000  0.4529380000000 1.0
C      1  0.4721120000000  0.5737140000000  0.5474570000000 1.0
C      1  0.4219380000000  0.4705700000000  0.5531120000000 1.0
C      1  0.5296700000000  0.4240940000000  0.5495620000000 1.0
C      1  0.5756920000000  0.5291320000000  0.5483200000000 1.0
C      1  0.5057700000000  0.5221260000000  0.5592470000000 1.0
C      1  0.5269640000000  0.5001880000000  0.5586760000000 1.0
C      1  0.4857300000000  0.4727690000000  0.5599650000000 1.0
C      1  0.4759490000000  0.5164020000000  0.5597610000000 1.0
C      1  0.5073010000000  0.4801170000000  0.4342200000000 1.0
C      1  0.5269920000000  0.4998450000000  0.4409290000000 1.0
C      1  0.4729420000000  0.5246950000000  0.4112910000000 1.0
C      1  0.4791710000000  0.4840790000000  0.4406440000000 1.0
C      1  0.5046690000000  0.4201270000000  0.5059660000000 1.0
C      1  0.4185340000000  0.4995790000000  0.5076590000000 1.0
C      1  0.5027940000000  0.5808010000000  0.4999610000000 1.0
C      1  0.5819260000000  0.4956040000000  0.4974140000000 1.0
END
