TITL C-2441168-9922-1313 0.0444856069946764 125000 -19309.8607104149 0 0 134 (C1) n - 1
REM
REM in /home/bkarasulu/work/CARBON/AIRSS/Generating-Clusters/ReaxFF-fromJPCA2015/Units_Real/with-SteepDescent/Higher-Symm
REM
REM
REM
REM
REM
REM ./C.cell (1df0a924f5614ab8850e4351716899ee)
REM
REM compiler GCC version 9.2.1 20190827 (Red Hat 9.2.1-1)
REM options -cpp -mtune=generic -march=x86-64 -g -O0 -fpre-include=/usr/include/finclude/math-vector-fortran.h
REM seed 1367216850 -587922544 1984664906 -1156993778 -952266946 511461502 1481545824 -180499158 -1583662430 -891315208 1672745686 -622914700 1897072563 913339684 1553951497 454914072 -457896992 875500500 -2078545567 -1502204397 609002089 -1622789186 1229204466 885713751 -1546761090 386137970 1975919180 1852398987 1696322581 296735499 108716806 960870133 -1142120970
REM
CELL 1.54180   50.00000   50.00000   50.00000   90.00000   90.00000   90.00000
LATT -1
SFAC C  
C      1  0.5419710000000  0.4154080000000  0.5134170000000 1.0
C      1  0.4645980000000  0.4141890000000  0.5313420000000 1.0
C      1  0.4886390000000  0.4160830000000  0.4557870000000 1.0
C      1  0.4564040000000  0.5858510000000  0.5032670000000 1.0
C      1  0.5361900000000  0.5902410000000  0.5419080000000 1.0
C      1  0.4981050000000  0.5884730000000  0.4582760000000 1.0
C      1  0.4670580000000  0.5851070000000  0.4751310000000 1.0
C      1  0.5250820000000  0.5874050000000  0.4685750000000 1.0
C      1  0.5083420000000  0.5876350000000  0.5448250000000 1.0
C      1  0.5402300000000  0.4148630000000  0.4852590000000 1.0
C      1  0.4630570000000  0.4227720000000  0.4647150000000 1.0
C      1  0.4851970000000  0.4034170000000  0.5498440000000 1.0
C      1  0.5224630000000  0.5595970000000  0.4765420000000 1.0
C      1  0.4864260000000  0.5557460000000  0.5306750000000 1.0
C      1  0.4768170000000  0.5586900000000  0.4808890000000 1.0
C      1  0.4586670000000  0.4434340000000  0.4874960000000 1.0
C      1  0.5100010000000  0.4472880000000  0.5444760000000 1.0
C      1  0.5122640000000  0.4266930000000  0.4747590000000 1.0
C      1  0.4727570000000  0.4300600000000  0.5084640000000 1.0
C      1  0.5149110000000  0.4507700000000  0.4594030000000 1.0
C      1  0.5168770000000  0.4271590000000  0.5244530000000 1.0
C      1  0.5245220000000  0.5553720000000  0.5054650000000 1.0
C      1  0.4968700000000  0.5459330000000  0.4634780000000 1.0
C      1  0.4694180000000  0.5602220000000  0.5077060000000 1.0
C      1  0.4304850000000  0.4798490000000  0.4282830000000 1.0
C      1  0.5911730000000  0.4714840000000  0.4838530000000 1.0
C      1  0.4825720000000  0.4669210000000  0.5923670000000 1.0
C      1  0.5733880000000  0.5343630000000  0.4375320000000 1.0
C      1  0.4130280000000  0.5255850000000  0.4704360000000 1.0
C      1  0.5297820000000  0.5221300000000  0.5825710000000 1.0
C      1  0.5661720000000  0.5261350000000  0.5624240000000 1.0
C      1  0.4115790000000  0.5281270000000  0.5269290000000 1.0
C      1  0.5270750000000  0.5268530000000  0.4182160000000 1.0
C      1  0.4438900000000  0.4769830000000  0.5628730000000 1.0
C      1  0.5944540000000  0.4701750000000  0.5148060000000 1.0
C      1  0.4789810000000  0.4762890000000  0.4148410000000 1.0
C      1  0.5255680000000  0.4494490000000  0.5712940000000 1.0
C      1  0.4239530000000  0.4507130000000  0.4869640000000 1.0
C      1  0.5586320000000  0.4498560000000  0.4325420000000 1.0
C      1  0.4704150000000  0.5510270000000  0.5864980000000 1.0
C      1  0.5881780000000  0.5537380000000  0.4851530000000 1.0
C      1  0.4491930000000  0.5314680000000  0.4390200000000 1.0
C      1  0.4776140000000  0.5441480000000  0.4332770000000 1.0
C      1  0.5883440000000  0.5524230000000  0.5138190000000 1.0
C      1  0.4488320000000  0.5515140000000  0.5666090000000 1.0
C      1  0.5270480000000  0.4516360000000  0.4325530000000 1.0
C      1  0.4118730000000  0.4515390000000  0.5153980000000 1.0
C      1  0.5559980000000  0.4504190000000  0.5650990000000 1.0
C      1  0.5609540000000  0.5789040000000  0.5468630000000 1.0
C      1  0.4337470000000  0.5764050000000  0.5216390000000 1.0
C      1  0.5046780000000  0.5768390000000  0.4322840000000 1.0
C      1  0.4410340000000  0.4256160000000  0.5459650000000 1.0
C      1  0.5673510000000  0.4217510000000  0.5279440000000 1.0
C      1  0.4896860000000  0.4238330000000  0.4274170000000 1.0
C      1  0.4390460000000  0.4290390000000  0.4480390000000 1.0
C      1  0.5647270000000  0.4212680000000  0.4713180000000 1.0
C      1  0.4908210000000  0.4182420000000  0.5754400000000 1.0
C      1  0.5526790000000  0.5811190000000  0.4554890000000 1.0
C      1  0.4371910000000  0.5725890000000  0.4683280000000 1.0
C      1  0.5098510000000  0.5741280000000  0.5725290000000 1.0
C      1  0.5869700000000  0.5117250000000  0.5495260000000 1.0
C      1  0.4164550000000  0.5159050000000  0.5530330000000 1.0
C      1  0.5061220000000  0.5152230000000  0.4007810000000 1.0
C      1  0.4174330000000  0.4866830000000  0.5550410000000 1.0
C      1  0.5888480000000  0.4826270000000  0.5405200000000 1.0
C      1  0.5041890000000  0.4861470000000  0.4014010000000 1.0
C      1  0.4080360000000  0.4833900000000  0.4467430000000 1.0
C      1  0.5915450000000  0.4853750000000  0.4578710000000 1.0
C      1  0.5007830000000  0.4853060000000  0.6032210000000 1.0
C      1  0.5915380000000  0.5154850000000  0.4500980000000 1.0
C      1  0.4100680000000  0.5131230000000  0.4439340000000 1.0
C      1  0.5068310000000  0.5150540000000  0.6005830000000 1.0
C      1  0.5338980000000  0.5025270000000  0.4350330000000 1.0
C      1  0.5428150000000  0.4924160000000  0.5350640000000 1.0
C      1  0.4114340000000  0.5026330000000  0.5140910000000 1.0
C      1  0.4739910000000  0.4988560000000  0.4333080000000 1.0
C      1  0.4614480000000  0.5000880000000  0.5595540000000 1.0
C      1  0.5585540000000  0.5086040000000  0.5124980000000 1.0
C      1  0.4896950000000  0.5103290000000  0.5584890000000 1.0
C      1  0.4586090000000  0.5081250000000  0.4566060000000 1.0
C      1  0.5603690000000  0.5093580000000  0.4838440000000 1.0
C      1  0.5222030000000  0.5006090000000  0.5623620000000 1.0
C      1  0.5499330000000  0.4950660000000  0.4587810000000 1.0
C      1  0.4135960000000  0.5016530000000  0.4865070000000 1.0
C      1  0.5277460000000  0.5547850000000  0.4258450000000 1.0
C      1  0.5539780000000  0.5510870000000  0.5630370000000 1.0
C      1  0.4201750000000  0.5518740000000  0.5118540000000 1.0
C      1  0.4711680000000  0.4491530000000  0.4207970000000 1.0
C      1  0.4487760000000  0.4479410000000  0.5640320000000 1.0
C      1  0.5808860000000  0.4438110000000  0.5138430000000 1.0
C      1  0.4722490000000  0.4443490000000  0.5801210000000 1.0
C      1  0.4457870000000  0.4542840000000  0.4307160000000 1.0
C      1  0.5776670000000  0.4457290000000  0.4855240000000 1.0
C      1  0.5290540000000  0.5511900000000  0.5766760000000 1.0
C      1  0.5538240000000  0.5571710000000  0.4358360000000 1.0
C      1  0.4215800000000  0.5505580000000  0.4831940000000 1.0
C      1  0.4098000000000  0.4775460000000  0.5285820000000 1.0
C      1  0.5252430000000  0.4798130000000  0.4198350000000 1.0
C      1  0.5627770000000  0.4747910000000  0.5505930000000 1.0
C      1  0.5799110000000  0.5247420000000  0.5234350000000 1.0
C      1  0.4824850000000  0.5207320000000  0.4168590000000 1.0
C      1  0.4436420000000  0.5229540000000  0.5599880000000 1.0
C      1  0.5845800000000  0.5253260000000  0.4769080000000 1.0
C      1  0.4860080000000  0.5262320000000  0.5838410000000 1.0
C      1  0.4319350000000  0.5096740000000  0.4246260000000 1.0
C      1  0.4135970000000  0.4758530000000  0.4743500000000 1.0
C      1  0.5206010000000  0.4788320000000  0.5822300000000 1.0
C      1  0.5672270000000  0.4754080000000  0.4455440000000 1.0
C      1  0.5235370000000  0.4772890000000  0.5183670000000 1.0
C      1  0.4766200000000  0.4799490000000  0.5137130000000 1.0
C      1  0.5007780000000  0.4709860000000  0.4736110000000 1.0
C      1  0.4742600000000  0.5080750000000  0.5102480000000 1.0
C      1  0.5185120000000  0.5289450000000  0.5139170000000 1.0
C      1  0.4997200000000  0.5186790000000  0.4717240000000 1.0
C      1  0.4729120000000  0.5138750000000  0.4816710000000 1.0
C      1  0.5198750000000  0.5123400000000  0.4903170000000 1.0
C      1  0.4918350000000  0.5258870000000  0.5286840000000 1.0
C      1  0.5197020000000  0.4847460000000  0.4909320000000 1.0
C      1  0.4761650000000  0.4669830000000  0.4874940000000 1.0
C      1  0.4986160000000  0.4708580000000  0.5321890000000 1.0
C      1  0.5849590000000  0.5779810000000  0.5289960000000 1.0
C      1  0.4383100000000  0.5745960000000  0.5507160000000 1.0
C      1  0.4797350000000  0.5706900000000  0.4175080000000 1.0
C      1  0.4147690000000  0.4265720000000  0.5314850000000 1.0
C      1  0.5683090000000  0.4240650000000  0.5578330000000 1.0
C      1  0.5152740000000  0.4260730000000  0.4152040000000 1.0
C      1  0.4166340000000  0.4278410000000  0.4662960000000 1.0
C      1  0.5658300000000  0.4257020000000  0.4434900000000 1.0
C      1  0.5166990000000  0.4222900000000  0.5869550000000 1.0
C      1  0.5768210000000  0.5782710000000  0.4714480000000 1.0
C      1  0.4333890000000  0.5597950000000  0.4433930000000 1.0
C      1  0.4862970000000  0.5765610000000  0.5905080000000 1.0
C      1  0.4998230000000  0.4297970000000  0.5019650000000 1.0
C      1  0.5067840000000  0.5723550000000  0.5211050000000 1.0
END
