TITL C-2441168-9922-555 0.0107765650958847 125000 -16686.768184497 0 0 111 (C1) n - 1
REM
REM in /home/bkarasulu/work/CARBON/AIRSS/Generating-Clusters/ReaxFF-fromJPCA2015/Units_Real/with-SteepDescent/Higher-Symm
REM
REM
REM
REM
REM
REM ./C.cell (1df0a924f5614ab8850e4351716899ee)
REM
REM compiler GCC version 9.2.1 20190827 (Red Hat 9.2.1-1)
REM options -cpp -mtune=generic -march=x86-64 -g -O0 -fpre-include=/usr/include/finclude/math-vector-fortran.h
REM seed -232715343 -841978372 989712602 -196890974 -1785221428 108509111 305060003 267250136 -1613902282 -630497 -1152743940 -918334205 -776271620 -1541234725 804292238 972922691 645459651 1254541038 1018619471 1706593621 1502495294 -1512054164 -1762626967 -1208278272 841617082 1008612698 117460155 812872561 -112452072 -1751711756 -1557233653 -2112742308 1382911642
REM
CELL 1.54180   50.00000   50.00000   50.00000   90.00000   90.00000   90.00000
LATT -1
SFAC C  
C      1  0.4587910000000  0.5322530000000  0.4193020000000 1.0
C      1  0.5267290000000  0.5680310000000  0.5703700000000 1.0
C      1  0.4758620000000  0.4231740000000  0.4452280000000 1.0
C      1  0.5445990000000  0.4524560000000  0.5702900000000 1.0
C      1  0.4652410000000  0.4731620000000  0.4791640000000 1.0
C      1  0.5277610000000  0.4703200000000  0.5082710000000 1.0
C      1  0.4620370000000  0.5234340000000  0.4847200000000 1.0
C      1  0.5550950000000  0.5151590000000  0.5177580000000 1.0
C      1  0.5092360000000  0.4070850000000  0.4880370000000 1.0
C      1  0.4796850000000  0.4114840000000  0.5168230000000 1.0
C      1  0.5085020000000  0.5815280000000  0.4613990000000 1.0
C      1  0.4847680000000  0.5960720000000  0.5381280000000 1.0
C      1  0.5485820000000  0.5135300000000  0.4883950000000 1.0
C      1  0.4593540000000  0.5202850000000  0.5191680000000 1.0
C      1  0.5395770000000  0.4832680000000  0.4789090000000 1.0
C      1  0.4566150000000  0.4908240000000  0.5259520000000 1.0
C      1  0.4845510000000  0.5267630000000  0.5349550000000 1.0
C      1  0.5112610000000  0.5282380000000  0.4684490000000 1.0
C      1  0.4805950000000  0.4808880000000  0.5392070000000 1.0
C      1  0.5176460000000  0.4818410000000  0.4586400000000 1.0
C      1  0.5781580000000  0.5508280000000  0.5172610000000 1.0
C      1  0.4252680000000  0.5450270000000  0.4899190000000 1.0
C      1  0.5721660000000  0.4511560000000  0.5124230000000 1.0
C      1  0.4213420000000  0.4566020000000  0.4865750000000 1.0
C      1  0.5230980000000  0.4810180000000  0.4302640000000 1.0
C      1  0.4753810000000  0.4795880000000  0.5676060000000 1.0
C      1  0.5240640000000  0.5247010000000  0.4412110000000 1.0
C      1  0.4806720000000  0.5217110000000  0.5635390000000 1.0
C      1  0.5439330000000  0.4485280000000  0.5209450000000 1.0
C      1  0.4452690000000  0.4497710000000  0.4689110000000 1.0
C      1  0.5514000000000  0.5438180000000  0.5262870000000 1.0
C      1  0.4406180000000  0.5452270000000  0.4686480000000 1.0
C      1  0.4379370000000  0.5146070000000  0.4305270000000 1.0
C      1  0.5564310000000  0.5058190000000  0.5751720000000 1.0
C      1  0.4457970000000  0.4867390000000  0.4303230000000 1.0
C      1  0.5624740000000  0.4744800000000  0.5737840000000 1.0
C      1  0.4982600000000  0.4384400000000  0.5754490000000 1.0
C      1  0.5048600000000  0.4431860000000  0.4091290000000 1.0
C      1  0.5006690000000  0.5571910000000  0.5799660000000 1.0
C      1  0.4989310000000  0.5588880000000  0.4228280000000 1.0
C      1  0.5042690000000  0.5275350000000  0.5798260000000 1.0
C      1  0.5056490000000  0.5308250000000  0.4187810000000 1.0
C      1  0.4995850000000  0.4679510000000  0.5796230000000 1.0
C      1  0.5003070000000  0.4722470000000  0.4143220000000 1.0
C      1  0.5711290000000  0.4469040000000  0.4832710000000 1.0
C      1  0.4227870000000  0.4582420000000  0.5158190000000 1.0
C      1  0.5756740000000  0.5538870000000  0.4880100000000 1.0
C      1  0.4242090000000  0.5487360000000  0.5170310000000 1.0
C      1  0.4807980000000  0.4573280000000  0.4992400000000 1.0
C      1  0.5091940000000  0.4533940000000  0.4928530000000 1.0
C      1  0.4838530000000  0.5705080000000  0.4991490000000 1.0
C      1  0.5117010000000  0.5747420000000  0.5057830000000 1.0
C      1  0.4313530000000  0.5242050000000  0.5322200000000 1.0
C      1  0.5698750000000  0.5308670000000  0.4719730000000 1.0
C      1  0.4292470000000  0.4817600000000  0.5333880000000 1.0
C      1  0.5655190000000  0.4711880000000  0.4679220000000 1.0
C      1  0.5283690000000  0.4265590000000  0.5331740000000 1.0
C      1  0.4622560000000  0.4218250000000  0.4676070000000 1.0
C      1  0.5335390000000  0.5843290000000  0.5499990000000 1.0
C      1  0.4598080000000  0.5642590000000  0.4553060000000 1.0
C      1  0.4135840000000  0.4780430000000  0.4678110000000 1.0
C      1  0.5863320000000  0.4747400000000  0.5253660000000 1.0
C      1  0.4204730000000  0.5060490000000  0.4752500000000 1.0
C      1  0.5902190000000  0.5293320000000  0.5353310000000 1.0
C      1  0.5509670000000  0.4385950000000  0.4392520000000 1.0
C      1  0.4450400000000  0.4432900000000  0.5582490000000 1.0
C      1  0.5488300000000  0.5634550000000  0.4458220000000 1.0
C      1  0.4474840000000  0.5618790000000  0.5614620000000 1.0
C      1  0.4676830000000  0.4384850000000  0.5172080000000 1.0
C      1  0.5229370000000  0.4314020000000  0.4787190000000 1.0
C      1  0.4660300000000  0.5791520000000  0.5216120000000 1.0
C      1  0.5284930000000  0.5793790000000  0.4822860000000 1.0
C      1  0.5644840000000  0.4659870000000  0.4393720000000 1.0
C      1  0.4327300000000  0.4706360000000  0.5604910000000 1.0
C      1  0.5643120000000  0.5379050000000  0.4440900000000 1.0
C      1  0.4353980000000  0.5339220000000  0.5596660000000 1.0
C      1  0.4408210000000  0.4394740000000  0.5289670000000 1.0
C      1  0.5507080000000  0.4313080000000  0.4688670000000 1.0
C      1  0.4414740000000  0.5677120000000  0.5328750000000 1.0
C      1  0.5553140000000  0.5709920000000  0.4730110000000 1.0
C      1  0.4532390000000  0.5163810000000  0.5745220000000 1.0
C      1  0.5500850000000  0.5157140000000  0.4307860000000 1.0
C      1  0.4487430000000  0.4876160000000  0.5777580000000 1.0
C      1  0.5519470000000  0.4872080000000  0.4243320000000 1.0
C      1  0.4700450000000  0.5577350000000  0.4293420000000 1.0
C      1  0.5450370000000  0.5587260000000  0.5509630000000 1.0
C      1  0.4889740000000  0.4250790000000  0.4246920000000 1.0
C      1  0.5260230000000  0.4332290000000  0.5621210000000 1.0
C      1  0.5750940000000  0.5221120000000  0.5605780000000 1.0
C      1  0.4241150000000  0.5267190000000  0.4538000000000 1.0
C      1  0.5767320000000  0.4680430000000  0.5505370000000 1.0
C      1  0.4321690000000  0.4675200000000  0.4470590000000 1.0
C      1  0.4794360000000  0.4080050000000  0.4875140000000 1.0
C      1  0.5093850000000  0.4099210000000  0.5176480000000 1.0
C      1  0.4808560000000  0.5758640000000  0.4707860000000 1.0
C      1  0.5130980000000  0.5916950000000  0.5300350000000 1.0
C      1  0.5211510000000  0.5714280000000  0.4375310000000 1.0
C      1  0.4739240000000  0.5632540000000  0.5719180000000 1.0
C      1  0.5274380000000  0.4353520000000  0.4246210000000 1.0
C      1  0.4717420000000  0.4382770000000  0.5673850000000 1.0
C      1  0.5266920000000  0.5090900000000  0.5752270000000 1.0
C      1  0.4813910000000  0.5151420000000  0.4157340000000 1.0
C      1  0.5160800000000  0.4852410000000  0.5619800000000 1.0
C      1  0.4772080000000  0.4868010000000  0.4265790000000 1.0
C      1  0.4855080000000  0.5151600000000  0.4687540000000 1.0
C      1  0.5077810000000  0.5166890000000  0.5209010000000 1.0
C      1  0.4882680000000  0.4870210000000  0.4594250000000 1.0
C      1  0.5097900000000  0.4880170000000  0.5317860000000 1.0
C      1  0.5818260000000  0.5045340000000  0.5212960000000 1.0
C      1  0.4472050000000  0.4982180000000  0.4835130000000 1.0
C      1  0.5208960000000  0.5246980000000  0.4956900000000 1.0
END
