TITL C-2441159-1093-829 0.0178723625260329 125000 -15206.5427991781 0 0 107 (C1) n - 1
REM
REM in /home/bkarasulu/work/CARBON/AIRSS/Generating-Clusters/ReaxFF-fromJPCA2015/Units_Real/with-SteepDescent/Higher-Symm
REM
REM
REM
REM
REM
REM ./C.cell (1df0a924f5614ab8850e4351716899ee)
REM
REM compiler GCC version 9.2.1 20190827 (Red Hat 9.2.1-1)
REM options -cpp -mtune=generic -march=x86-64 -g -O0 -fpre-include=/usr/include/finclude/math-vector-fortran.h
REM seed 1807810109 94513393 -715658823 749097526 695616445 139293300 -1206660999 -752451493 -1537292073 -1103077703 -476616909 1808906983 1680495792 -787967646 2112769782 213331724 385797385 2127278710 762040546 358027243 187458235 1826957842 1941506462 30183650 1371114818 1912432912 -1488058304 -949859997 1431007869 -1620098717 1941826711 523675903 -637474181
REM
CELL 1.54180   50.00000   50.00000   50.00000   90.00000   90.00000   90.00000
LATT -1
SFAC C  
C      1  0.5514220000000  0.4900820000000  0.4646870000000 1.0
C      1  0.5483200000000  0.5210400000000  0.4668860000000 1.0
C      1  0.5477600000000  0.5343590000000  0.4965040000000 1.0
C      1  0.5536880000000  0.5203440000000  0.5229230000000 1.0
C      1  0.5462030000000  0.4948430000000  0.5354860000000 1.0
C      1  0.5474430000000  0.4700590000000  0.5172970000000 1.0
C      1  0.5592150000000  0.4730450000000  0.4893850000000 1.0
C      1  0.5658390000000  0.5547940000000  0.4981560000000 1.0
C      1  0.5659760000000  0.5319870000000  0.5443620000000 1.0
C      1  0.5679740000000  0.4902360000000  0.5546290000000 1.0
C      1  0.5663060000000  0.4493100000000  0.5272940000000 1.0
C      1  0.5688960000000  0.4530980000000  0.4722230000000 1.0
C      1  0.5729650000000  0.4854280000000  0.4449400000000 1.0
C      1  0.5712490000000  0.5330520000000  0.4529550000000 1.0
C      1  0.4744230000000  0.5355600000000  0.4945520000000 1.0
C      1  0.4705890000000  0.5192330000000  0.5235720000000 1.0
C      1  0.4735710000000  0.4909140000000  0.5333580000000 1.0
C      1  0.4661390000000  0.4698590000000  0.5163040000000 1.0
C      1  0.4709210000000  0.4740970000000  0.4879960000000 1.0
C      1  0.4651910000000  0.4936940000000  0.4676780000000 1.0
C      1  0.4751590000000  0.5208420000000  0.4681510000000 1.0
C      1  0.4618470000000  0.4904160000000  0.5688090000000 1.0
C      1  0.4657790000000  0.4423170000000  0.5281510000000 1.0
C      1  0.4580470000000  0.4277070000000  0.4760420000000 1.0
C      1  0.4692200000000  0.4798950000000  0.4403240000000 1.0
C      1  0.4672440000000  0.5406140000000  0.4403720000000 1.0
C      1  0.4688090000000  0.5675120000000  0.5020540000000 1.0
C      1  0.4657920000000  0.5406590000000  0.5489620000000 1.0
C      1  0.5433870000000  0.4517350000000  0.5734880000000 1.0
C      1  0.5417750000000  0.4146940000000  0.5244610000000 1.0
C      1  0.5441110000000  0.4416130000000  0.4349500000000 1.0
C      1  0.5433660000000  0.5123430000000  0.4148300000000 1.0
C      1  0.5448220000000  0.5730630000000  0.4590550000000 1.0
C      1  0.5433740000000  0.5915670000000  0.5169400000000 1.0
C      1  0.5497430000000  0.5315880000000  0.5858070000000 1.0
C      1  0.4958340000000  0.4177830000000  0.5011180000000 1.0
C      1  0.4878500000000  0.4497270000000  0.4379210000000 1.0
C      1  0.4859390000000  0.5251060000000  0.4157530000000 1.0
C      1  0.4807250000000  0.5805510000000  0.4725010000000 1.0
C      1  0.5059340000000  0.5726660000000  0.5376880000000 1.0
C      1  0.5026040000000  0.5153160000000  0.5738060000000 1.0
C      1  0.4892740000000  0.4425400000000  0.5596540000000 1.0
C      1  0.4744080000000  0.5016060000000  0.4217840000000 1.0
C      1  0.4683480000000  0.5671970000000  0.4512580000000 1.0
C      1  0.4796600000000  0.5644790000000  0.5304660000000 1.0
C      1  0.4748280000000  0.5189450000000  0.5685920000000 1.0
C      1  0.4766880000000  0.4647760000000  0.5658780000000 1.0
C      1  0.4682260000000  0.4234720000000  0.5049620000000 1.0
C      1  0.4714570000000  0.4396240000000  0.4553980000000 1.0
C      1  0.5052670000000  0.5804210000000  0.4581230000000 1.0
C      1  0.5139410000000  0.5925780000000  0.5179520000000 1.0
C      1  0.5206790000000  0.5346370000000  0.5868470000000 1.0
C      1  0.5130330000000  0.4455580000000  0.5766580000000 1.0
C      1  0.5133840000000  0.4064840000000  0.5207110000000 1.0
C      1  0.5150580000000  0.4394010000000  0.4371150000000 1.0
C      1  0.5129370000000  0.5146020000000  0.4103490000000 1.0
C      1  0.4386510000000  0.5382080000000  0.4491770000000 1.0
C      1  0.4397780000000  0.5613610000000  0.4994280000000 1.0
C      1  0.4361530000000  0.5387730000000  0.5476010000000 1.0
C      1  0.4334850000000  0.4868390000000  0.5599110000000 1.0
C      1  0.4357120000000  0.4425930000000  0.5268660000000 1.0
C      1  0.4332320000000  0.4423410000000  0.4723640000000 1.0
C      1  0.4390420000000  0.4848580000000  0.4370690000000 1.0
C      1  0.5257730000000  0.4904540000000  0.4217180000000 1.0
C      1  0.5225100000000  0.5604860000000  0.4465120000000 1.0
C      1  0.5278030000000  0.5823800000000  0.4934990000000 1.0
C      1  0.5368000000000  0.5537320000000  0.5714460000000 1.0
C      1  0.5243340000000  0.4722730000000  0.5801390000000 1.0
C      1  0.5198940000000  0.4298060000000  0.5378110000000 1.0
C      1  0.5323840000000  0.4292080000000  0.4567490000000 1.0
C      1  0.5018100000000  0.5406500000000  0.5020200000000 1.0
C      1  0.4994340000000  0.5242150000000  0.5239100000000 1.0
C      1  0.5028940000000  0.4801680000000  0.5367060000000 1.0
C      1  0.5107650000000  0.4455390000000  0.4954120000000 1.0
C      1  0.4965490000000  0.4656160000000  0.4812380000000 1.0
C      1  0.5102710000000  0.4875270000000  0.4686390000000 1.0
C      1  0.5016030000000  0.5150230000000  0.4619730000000 1.0
C      1  0.4230270000000  0.5130720000000  0.5531510000000 1.0
C      1  0.4239960000000  0.4651700000000  0.5426720000000 1.0
C      1  0.4228470000000  0.4441860000000  0.5001380000000 1.0
C      1  0.4261710000000  0.4657790000000  0.4555230000000 1.0
C      1  0.4282230000000  0.5113740000000  0.4452390000000 1.0
C      1  0.4292120000000  0.5488080000000  0.4753540000000 1.0
C      1  0.4261990000000  0.5496540000000  0.5226240000000 1.0
C      1  0.5183090000000  0.4929990000000  0.5597440000000 1.0
C      1  0.5175420000000  0.4562030000000  0.5237840000000 1.0
C      1  0.5379720000000  0.4378310000000  0.4832400000000 1.0
C      1  0.5288160000000  0.4814310000000  0.4490230000000 1.0
C      1  0.5223880000000  0.5314850000000  0.4551410000000 1.0
C      1  0.5251090000000  0.5530250000000  0.4932720000000 1.0
C      1  0.5341300000000  0.5586180000000  0.5426320000000 1.0
C      1  0.5691830000000  0.5168630000000  0.5682970000000 1.0
C      1  0.5643040000000  0.4603940000000  0.5550010000000 1.0
C      1  0.5571740000000  0.4309820000000  0.5056050000000 1.0
C      1  0.5682930000000  0.4566380000000  0.4435460000000 1.0
C      1  0.5670970000000  0.5120850000000  0.4324110000000 1.0
C      1  0.5677130000000  0.5590050000000  0.4681980000000 1.0
C      1  0.5568120000000  0.5662100000000  0.5243730000000 1.0
C      1  0.4071220000000  0.4797670000000  0.5243680000000 1.0
C      1  0.4067990000000  0.4677420000000  0.4986520000000 1.0
C      1  0.4089640000000  0.4800660000000  0.4729310000000 1.0
C      1  0.4101190000000  0.5073100000000  0.4666550000000 1.0
C      1  0.4103670000000  0.5291880000000  0.4843310000000 1.0
C      1  0.4084410000000  0.5292680000000  0.5124090000000 1.0
C      1  0.4066090000000  0.5074730000000  0.5301360000000 1.0
C      1  0.5105900000000  0.5000630000000  0.5174110000000 1.0
C      1  0.5288150000000  0.4987450000000  0.4954940000000 1.0
END
