TITL C-2441160-1326-1232 0.113386491705722 125000 -21755.5515995457 0 0 167 (C1) n - 1
REM
REM in /home/bkarasulu/work/CARBON/AIRSS/Generating-Clusters/ReaxFF-fromJPCA2015/Units_Real/with-SteepDescent/Higher-Symm
REM
REM
REM
REM
REM
REM ./C.cell (1df0a924f5614ab8850e4351716899ee)
REM
REM compiler GCC version 9.2.1 20190827 (Red Hat 9.2.1-1)
REM options -cpp -mtune=generic -march=x86-64 -g -O0 -fpre-include=/usr/include/finclude/math-vector-fortran.h
REM seed -1180542550 -1707783224 -850526064 -1173836179 361417756 -1549270412 1154580711 -1703491319 -894898189 1713462574 -36850439 1318207031 -1100166174 -391267549 776365972 1051942624 -1566668516 1083641524 1101458625 -1618642816 -93982334 -1122986270 -2035712928 -1002833927 -889095084 -2031698517 1052969884 -1635537935 -1501816756 668715550 -1834925591 1670651751 -224101868
REM
CELL 1.54180   50.00000   50.00000   50.00000   90.00000   90.00000   90.00000
LATT -1
SFAC C  
C      1  0.5768300000000  0.5794450000000  0.4916450000000 1.0
C      1  0.5838830000000  0.4215530000000  0.5045870000000 1.0
C      1  0.4146910000000  0.5779440000000  0.5023340000000 1.0
C      1  0.4235280000000  0.4208990000000  0.4938280000000 1.0
C      1  0.5838690000000  0.4971550000000  0.5784050000000 1.0
C      1  0.5847940000000  0.5037130000000  0.4208140000000 1.0
C      1  0.4211820000000  0.5031400000000  0.5774300000000 1.0
C      1  0.4235740000000  0.4955400000000  0.4204140000000 1.0
C      1  0.5596020000000  0.5490570000000  0.4268440000000 1.0
C      1  0.5598590000000  0.4512380000000  0.5714070000000 1.0
C      1  0.4397370000000  0.5505490000000  0.5703490000000 1.0
C      1  0.4366710000000  0.4488410000000  0.4271650000000 1.0
C      1  0.5598340000000  0.4303100000000  0.5509870000000 1.0
C      1  0.5618240000000  0.5706870000000  0.4460440000000 1.0
C      1  0.4397170000000  0.5710920000000  0.5494430000000 1.0
C      1  0.4359590000000  0.4282670000000  0.4475790000000 1.0
C      1  0.5049470000000  0.5225820000000  0.4439810000000 1.0
C      1  0.5037430000000  0.4805150000000  0.5579040000000 1.0
C      1  0.4954110000000  0.5229450000000  0.5515620000000 1.0
C      1  0.4961660000000  0.4784580000000  0.4451990000000 1.0
C      1  0.5052690000000  0.4432350000000  0.5225850000000 1.0
C      1  0.5060090000000  0.5583380000000  0.4794780000000 1.0
C      1  0.4955500000000  0.5574190000000  0.5224340000000 1.0
C      1  0.4919550000000  0.4446700000000  0.4766860000000 1.0
C      1  0.5429440000000  0.4921680000000  0.4242810000000 1.0
C      1  0.5425300000000  0.5076260000000  0.5775600000000 1.0
C      1  0.4626970000000  0.5040070000000  0.5721790000000 1.0
C      1  0.4645880000000  0.5015710000000  0.4232870000000 1.0
C      1  0.5421630000000  0.4241320000000  0.4924290000000 1.0
C      1  0.5402530000000  0.5801630000000  0.5078760000000 1.0
C      1  0.4605150000000  0.5753620000000  0.5061080000000 1.0
C      1  0.4625380000000  0.4220030000000  0.5078860000000 1.0
C      1  0.4185030000000  0.4395270000000  0.5172020000000 1.0
C      1  0.4141470000000  0.5581970000000  0.4791340000000 1.0
C      1  0.5858060000000  0.4419460000000  0.4822070000000 1.0
C      1  0.5812190000000  0.5619790000000  0.5163280000000 1.0
C      1  0.4184810000000  0.5184900000000  0.4397090000000 1.0
C      1  0.4150650000000  0.4809130000000  0.5569800000000 1.0
C      1  0.5869280000000  0.4817720000000  0.4417160000000 1.0
C      1  0.5839030000000  0.5200830000000  0.5586520000000 1.0
C      1  0.4212990000000  0.4863200000000  0.4649530000000 1.0
C      1  0.4211260000000  0.5145270000000  0.5343840000000 1.0
C      1  0.5785910000000  0.4869690000000  0.5350470000000 1.0
C      1  0.5778460000000  0.5139980000000  0.4652810000000 1.0
C      1  0.4202000000000  0.4650430000000  0.4853710000000 1.0
C      1  0.4207060000000  0.5352230000000  0.5138620000000 1.0
C      1  0.5786990000000  0.5353260000000  0.4851690000000 1.0
C      1  0.5776700000000  0.4662290000000  0.5143980000000 1.0
C      1  0.4759180000000  0.5074380000000  0.5960660000000 1.0
C      1  0.4808920000000  0.5118340000000  0.4018840000000 1.0
C      1  0.5226070000000  0.4901180000000  0.4041980000000 1.0
C      1  0.5224100000000  0.5091360000000  0.5955560000000 1.0
C      1  0.4790020000000  0.5958390000000  0.5029530000000 1.0
C      1  0.4820020000000  0.4023110000000  0.5143360000000 1.0
C      1  0.5219630000000  0.4039500000000  0.4905720000000 1.0
C      1  0.5191800000000  0.5949820000000  0.5123410000000 1.0
C      1  0.5526420000000  0.5568600000000  0.5212220000000 1.0
C      1  0.5569840000000  0.4447750000000  0.4753540000000 1.0
C      1  0.4421770000000  0.5472120000000  0.4743350000000 1.0
C      1  0.4448480000000  0.4496410000000  0.5207010000000 1.0
C      1  0.5542610000000  0.5214550000000  0.5540480000000 1.0
C      1  0.5581560000000  0.4746000000000  0.4436630000000 1.0
C      1  0.4419140000000  0.4729050000000  0.5461810000000 1.0
C      1  0.4426890000000  0.5259060000000  0.4532630000000 1.0
C      1  0.4894810000000  0.5630340000000  0.4563200000000 1.0
C      1  0.4874890000000  0.4381770000000  0.5453140000000 1.0
C      1  0.5108260000000  0.5639260000000  0.5465690000000 1.0
C      1  0.5084760000000  0.4374350000000  0.4549660000000 1.0
C      1  0.4874200000000  0.4558720000000  0.5639920000000 1.0
C      1  0.4881130000000  0.5455270000000  0.4382980000000 1.0
C      1  0.5098550000000  0.5451620000000  0.5623590000000 1.0
C      1  0.5107470000000  0.4555790000000  0.4377160000000 1.0
C      1  0.5313680000000  0.4459320000000  0.5782770000000 1.0
C      1  0.5309440000000  0.5566680000000  0.4209420000000 1.0
C      1  0.4652470000000  0.4426790000000  0.4204100000000 1.0
C      1  0.4676130000000  0.5556950000000  0.5780720000000 1.0
C      1  0.5333630000000  0.5788290000000  0.4428080000000 1.0
C      1  0.5309710000000  0.4228110000000  0.5583490000000 1.0
C      1  0.4646170000000  0.4212680000000  0.4433060000000 1.0
C      1  0.4672900000000  0.5798530000000  0.5535100000000 1.0
C      1  0.5124800000000  0.5361000000000  0.6011650000000 1.0
C      1  0.5052050000000  0.4670670000000  0.4001150000000 1.0
C      1  0.4847590000000  0.5404060000000  0.3973440000000 1.0
C      1  0.4866640000000  0.4551730000000  0.6039610000000 1.0
C      1  0.5118580000000  0.6032410000000  0.5386760000000 1.0
C      1  0.5044980000000  0.4001970000000  0.4676660000000 1.0
C      1  0.4866570000000  0.3965720000000  0.5414670000000 1.0
C      1  0.4938290000000  0.5997490000000  0.4715630000000 1.0
C      1  0.4454830000000  0.4995560000000  0.5922150000000 1.0
C      1  0.4488370000000  0.4864150000000  0.4055740000000 1.0
C      1  0.5599710000000  0.5045720000000  0.4069830000000 1.0
C      1  0.5593150000000  0.4945200000000  0.5923190000000 1.0
C      1  0.4395270000000  0.5909070000000  0.5025000000000 1.0
C      1  0.4514530000000  0.4093780000000  0.4855960000000 1.0
C      1  0.5591070000000  0.4077810000000  0.5056560000000 1.0
C      1  0.5499230000000  0.5904540000000  0.4837730000000 1.0
C      1  0.4496980000000  0.4998380000000  0.4694220000000 1.0
C      1  0.4492640000000  0.5019640000000  0.5300180000000 1.0
C      1  0.5504710000000  0.4984580000000  0.5325610000000 1.0
C      1  0.5495440000000  0.5019940000000  0.4685710000000 1.0
C      1  0.4488830000000  0.4680960000000  0.4958900000000 1.0
C      1  0.4497190000000  0.5322370000000  0.5021740000000 1.0
C      1  0.5505590000000  0.5320930000000  0.4977390000000 1.0
C      1  0.5493400000000  0.4701680000000  0.5016290000000 1.0
C      1  0.4672420000000  0.4498770000000  0.5859040000000 1.0
C      1  0.4682950000000  0.5525630000000  0.4180330000000 1.0
C      1  0.5251750000000  0.4501890000000  0.4131670000000 1.0
C      1  0.5301860000000  0.5502080000000  0.5833250000000 1.0
C      1  0.4721430000000  0.5868660000000  0.4560560000000 1.0
C      1  0.4678130000000  0.4170390000000  0.5521330000000 1.0
C      1  0.5240020000000  0.4137090000000  0.4507000000000 1.0
C      1  0.5303780000000  0.5842450000000  0.5520970000000 1.0
C      1  0.5785330000000  0.5629650000000  0.4690790000000 1.0
C      1  0.5763610000000  0.4374970000000  0.5278630000000 1.0
C      1  0.4215120000000  0.5629850000000  0.5263780000000 1.0
C      1  0.4202360000000  0.4370760000000  0.4709660000000 1.0
C      1  0.5782660000000  0.4732570000000  0.5632510000000 1.0
C      1  0.5768840000000  0.5270110000000  0.4363050000000 1.0
C      1  0.4229660000000  0.5268610000000  0.5622310000000 1.0
C      1  0.4219710000000  0.4724430000000  0.4369350000000 1.0
C      1  0.4658280000000  0.4580150000000  0.4739530000000 1.0
C      1  0.4656090000000  0.5494890000000  0.5197270000000 1.0
C      1  0.5322520000000  0.4591070000000  0.5232690000000 1.0
C      1  0.5337340000000  0.5436150000000  0.4767570000000 1.0
C      1  0.4676260000000  0.4788540000000  0.4535440000000 1.0
C      1  0.4668130000000  0.5189170000000  0.5476330000000 1.0
C      1  0.5333140000000  0.5239270000000  0.4574920000000 1.0
C      1  0.5320770000000  0.4782060000000  0.5429320000000 1.0
C      1  0.5552620000000  0.5687160000000  0.5474430000000 1.0
C      1  0.5486630000000  0.4301240000000  0.4504560000000 1.0
C      1  0.4470500000000  0.5702000000000  0.4551320000000 1.0
C      1  0.4421950000000  0.4301700000000  0.5486700000000 1.0
C      1  0.5548400000000  0.5477760000000  0.5675920000000 1.0
C      1  0.5493270000000  0.4497570000000  0.4297900000000 1.0
C      1  0.4426610000000  0.4519530000000  0.5676450000000 1.0
C      1  0.4438140000000  0.5500340000000  0.4339680000000 1.0
C      1  0.5947020000000  0.5150220000000  0.5325410000000 1.0
C      1  0.5961390000000  0.4883730000000  0.4680560000000 1.0
C      1  0.4048850000000  0.5126090000000  0.4648000000000 1.0
C      1  0.4035910000000  0.4870270000000  0.5311210000000 1.0
C      1  0.5938490000000  0.5359380000000  0.5128680000000 1.0
C      1  0.5958100000000  0.4680430000000  0.4886110000000 1.0
C      1  0.4049280000000  0.4651590000000  0.5127340000000 1.0
C      1  0.4040210000000  0.5320890000000  0.4860530000000 1.0
C      1  0.4876990000000  0.4822250000000  0.5326670000000 1.0
C      1  0.4936630000000  0.5117850000000  0.4692790000000 1.0
C      1  0.5078490000000  0.4872230000000  0.4696350000000 1.0
C      1  0.5110140000000  0.5166250000000  0.5286580000000 1.0
C      1  0.4935930000000  0.5321810000000  0.4878230000000 1.0
C      1  0.4898210000000  0.4648440000000  0.5102130000000 1.0
C      1  0.5056870000000  0.4657480000000  0.4876180000000 1.0
C      1  0.5069280000000  0.5357470000000  0.5116030000000 1.0
C      1  0.4762180000000  0.4653330000000  0.4069550000000 1.0
C      1  0.4837610000000  0.5381720000000  0.5941660000000 1.0
C      1  0.5128270000000  0.4624300000000  0.5959050000000 1.0
C      1  0.5130810000000  0.5416890000000  0.4040680000000 1.0
C      1  0.4750310000000  0.4064260000000  0.4652300000000 1.0
C      1  0.4833320000000  0.5962970000000  0.5365150000000 1.0
C      1  0.5224700000000  0.5932920000000  0.4653460000000 1.0
C      1  0.5144830000000  0.4049270000000  0.5427070000000 1.0
C      1  0.5031440000000  0.4906190000000  0.5877010000000 1.0
C      1  0.5075430000000  0.4143680000000  0.5131190000000 1.0
C      1  0.5076680000000  0.5122150000000  0.4136010000000 1.0
C      1  0.5005060000000  0.5772820000000  0.5021080000000 1.0
C      1  0.4558380000000  0.5015250000000  0.4996650000000 1.0
C      1  0.5438480000000  0.4996560000000  0.4978450000000 1.0
C      1  0.4985890000000  0.4970330000000  0.5147940000000 1.0
END
