TITL C-2441163-1170-468 0.00885043599694599 125000 -16504.6984964215 0 0 112 (C1) n - 1
REM
REM in /home/bkarasulu/work/CARBON/AIRSS/Generating-Clusters/ReaxFF-fromJPCA2015/Units_Real/with-SteepDescent/Higher-Symm
REM
REM
REM
REM
REM
REM ./C.cell (1df0a924f5614ab8850e4351716899ee)
REM
REM compiler GCC version 9.2.1 20190827 (Red Hat 9.2.1-1)
REM options -cpp -mtune=generic -march=x86-64 -g -O0 -fpre-include=/usr/include/finclude/math-vector-fortran.h
REM seed 1121310074 92961559 344269453 -714728010 -1353764123 435786812 1979375076 -1935947099 2085184126 -960744042 -1163330021 1876458819 256001581 1060206584 649145585 823584282 -298970925 1468475400 -1269054215 -1290097259 -481371225 2004753601 1264256701 422189473 1274962345 201395505 -1232960282 412937623 1996432304 1381397100 1362193786 348266438 1720537026
REM
CELL 1.54180   50.00000   50.00000   50.00000   90.00000   90.00000   90.00000
LATT -1
SFAC C  
C      1  0.4456170000000  0.5222510000000  0.5718470000000 1.0
C      1  0.4133750000000  0.5286270000000  0.4948270000000 1.0
C      1  0.4392040000000  0.5211360000000  0.4326570000000 1.0
C      1  0.5177670000000  0.5215590000000  0.4102480000000 1.0
C      1  0.5778920000000  0.5238410000000  0.4575690000000 1.0
C      1  0.5831140000000  0.5218220000000  0.5365180000000 1.0
C      1  0.5235440000000  0.5221770000000  0.5858090000000 1.0
C      1  0.5324750000000  0.4298230000000  0.5541940000000 1.0
C      1  0.4779650000000  0.4302960000000  0.5591110000000 1.0
C      1  0.4399090000000  0.4298710000000  0.5198040000000 1.0
C      1  0.4471900000000  0.4293470000000  0.4654820000000 1.0
C      1  0.4940630000000  0.4299380000000  0.4374820000000 1.0
C      1  0.5454540000000  0.4300220000000  0.4563640000000 1.0
C      1  0.5624650000000  0.4299520000000  0.5082290000000 1.0
C      1  0.4172980000000  0.5025600000000  0.5357290000000 1.0
C      1  0.4167700000000  0.4989870000000  0.4593920000000 1.0
C      1  0.4809030000000  0.5032720000000  0.4114170000000 1.0
C      1  0.5580460000000  0.5010770000000  0.4296980000000 1.0
C      1  0.5903230000000  0.5036770000000  0.5002820000000 1.0
C      1  0.5561380000000  0.5013450000000  0.5718740000000 1.0
C      1  0.4785180000000  0.5029080000000  0.5872340000000 1.0
C      1  0.4977360000000  0.4437680000000  0.5728250000000 1.0
C      1  0.4416600000000  0.4438760000000  0.5434760000000 1.0
C      1  0.4292040000000  0.4427390000000  0.4815700000000 1.0
C      1  0.4703110000000  0.4432800000000  0.4335010000000 1.0
C      1  0.5335100000000  0.4435220000000  0.4355070000000 1.0
C      1  0.5714900000000  0.4435710000000  0.4859820000000 1.0
C      1  0.5555170000000  0.4433120000000  0.5472260000000 1.0
C      1  0.4123510000000  0.5011830000000  0.4876510000000 1.0
C      1  0.4549750000000  0.5016260000000  0.4245600000000 1.0
C      1  0.5325360000000  0.4996120000000  0.4158260000000 1.0
C      1  0.5843080000000  0.5015630000000  0.4719750000000 1.0
C      1  0.5752490000000  0.4997400000000  0.5500410000000 1.0
C      1  0.5073820000000  0.5009190000000  0.5881440000000 1.0
C      1  0.4344830000000  0.5014260000000  0.5589450000000 1.0
C      1  0.4936200000000  0.5889210000000  0.4612640000000 1.0
C      1  0.5215050000000  0.5827680000000  0.4738450000000 1.0
C      1  0.5336700000000  0.5904550000000  0.5012830000000 1.0
C      1  0.5209870000000  0.5838720000000  0.5283270000000 1.0
C      1  0.4934050000000  0.5921380000000  0.5393630000000 1.0
C      1  0.4699630000000  0.5820990000000  0.5236620000000 1.0
C      1  0.4681510000000  0.5798330000000  0.4753370000000 1.0
C      1  0.4899250000000  0.4654200000000  0.5311990000000 1.0
C      1  0.4692360000000  0.4640260000000  0.5118730000000 1.0
C      1  0.4718140000000  0.4633670000000  0.4837320000000 1.0
C      1  0.4951930000000  0.4652470000000  0.4674370000000 1.0
C      1  0.5221820000000  0.4626920000000  0.4764110000000 1.0
C      1  0.5331970000000  0.4642850000000  0.5027770000000 1.0
C      1  0.5179910000000  0.4625660000000  0.5269150000000 1.0
C      1  0.5632740000000  0.5295890000000  0.4354880000000 1.0
C      1  0.5875130000000  0.5311440000000  0.5106040000000 1.0
C      1  0.5480850000000  0.5292150000000  0.5752420000000 1.0
C      1  0.4700520000000  0.5306150000000  0.5829730000000 1.0
C      1  0.4136360000000  0.5298650000000  0.5243370000000 1.0
C      1  0.4189840000000  0.5271550000000  0.4508020000000 1.0
C      1  0.4914480000000  0.5308830000000  0.4121890000000 1.0
C      1  0.4218380000000  0.5479300000000  0.4730330000000 1.0
C      1  0.4894990000000  0.5501360000000  0.4359440000000 1.0
C      1  0.5463820000000  0.5515710000000  0.4502350000000 1.0
C      1  0.5651270000000  0.5508180000000  0.5018380000000 1.0
C      1  0.5414330000000  0.5516520000000  0.5539380000000 1.0
C      1  0.4842930000000  0.5497470000000  0.5637570000000 1.0
C      1  0.4281020000000  0.5530910000000  0.5308160000000 1.0
C      1  0.5162450000000  0.4197910000000  0.5288700000000 1.0
C      1  0.4876630000000  0.4199250000000  0.5307070000000 1.0
C      1  0.4683210000000  0.4198420000000  0.5096610000000 1.0
C      1  0.4728310000000  0.4198280000000  0.4813990000000 1.0
C      1  0.4977930000000  0.4199900000000  0.4673850000000 1.0
C      1  0.5243940000000  0.4198970000000  0.4778720000000 1.0
C      1  0.5325250000000  0.4198740000000  0.5053130000000 1.0
C      1  0.5242750000000  0.5517570000000  0.4746040000000 1.0
C      1  0.5362040000000  0.5416790000000  0.5014410000000 1.0
C      1  0.5225730000000  0.5523820000000  0.5288540000000 1.0
C      1  0.4925700000000  0.5420710000000  0.5347480000000 1.0
C      1  0.4780010000000  0.5562600000000  0.5142250000000 1.0
C      1  0.4792520000000  0.5547650000000  0.4862620000000 1.0
C      1  0.4966220000000  0.5417930000000  0.4659180000000 1.0
C      1  0.4217800000000  0.4496430000000  0.5071240000000 1.0
C      1  0.4454210000000  0.4493730000000  0.4435400000000 1.0
C      1  0.5100160000000  0.4502750000000  0.4227800000000 1.0
C      1  0.5670040000000  0.4504090000000  0.4596060000000 1.0
C      1  0.5733230000000  0.4500280000000  0.5272720000000 1.0
C      1  0.5245150000000  0.4501650000000  0.5744220000000 1.0
C      1  0.4573400000000  0.4508450000000  0.5650130000000 1.0
C      1  0.4205260000000  0.4830150000000  0.5121470000000 1.0
C      1  0.4405670000000  0.4819730000000  0.4476960000000 1.0
C      1  0.5043580000000  0.4833010000000  0.4212070000000 1.0
C      1  0.5640350000000  0.4829750000000  0.4542550000000 1.0
C      1  0.5764380000000  0.4829100000000  0.5219160000000 1.0
C      1  0.5304800000000  0.4828870000000  0.5727130000000 1.0
C      1  0.4620630000000  0.4839890000000  0.5678990000000 1.0
C      1  0.4701620000000  0.5066390000000  0.4836570000000 1.0
C      1  0.4955100000000  0.5112970000000  0.4681890000000 1.0
C      1  0.5220360000000  0.5052150000000  0.4771070000000 1.0
C      1  0.5329990000000  0.5108190000000  0.5027240000000 1.0
C      1  0.5175780000000  0.5050710000000  0.5262730000000 1.0
C      1  0.4899620000000  0.5110780000000  0.5306410000000 1.0
C      1  0.4677490000000  0.5069660000000  0.5107670000000 1.0
C      1  0.5526170000000  0.4857550000000  0.5055400000000 1.0
C      1  0.5273920000000  0.4845250000000  0.5429960000000 1.0
C      1  0.4827080000000  0.4875820000000  0.5478530000000 1.0
C      1  0.4502130000000  0.4851700000000  0.5175730000000 1.0
C      1  0.4553830000000  0.4845430000000  0.4732480000000 1.0
C      1  0.4935180000000  0.4868960000000  0.4481270000000 1.0
C      1  0.5359170000000  0.4846060000000  0.4636830000000 1.0
C      1  0.5582570000000  0.5769190000000  0.5027250000000 1.0
C      1  0.5422040000000  0.5794670000000  0.5547870000000 1.0
C      1  0.4853000000000  0.5766490000000  0.5608870000000 1.0
C      1  0.4449680000000  0.5712540000000  0.5321530000000 1.0
C      1  0.4430650000000  0.5667550000000  0.4720710000000 1.0
C      1  0.4910650000000  0.5762130000000  0.4365660000000 1.0
C      1  0.5450150000000  0.5792180000000  0.4499660000000 1.0
END
