TITL C-2441163-1170-742 0.121813688320972 125000 -19995.4141775417 0 0 158 (C1) n - 1
REM
REM in /home/bkarasulu/work/CARBON/AIRSS/Generating-Clusters/ReaxFF-fromJPCA2015/Units_Real/with-SteepDescent/Higher-Symm
REM
REM
REM
REM
REM
REM ./C.cell (1df0a924f5614ab8850e4351716899ee)
REM
REM compiler GCC version 9.2.1 20190827 (Red Hat 9.2.1-1)
REM options -cpp -mtune=generic -march=x86-64 -g -O0 -fpre-include=/usr/include/finclude/math-vector-fortran.h
REM seed 198654261 99858108 835455840 -1100969792 -595271817 1993133277 1180109368 143147807 -1595255308 1526021016 -793309059 1098138031 260308043 -307279280 1582960480 -1606225824 411765228 -168729606 -1293026925 1273199396 -712738392 481360716 778961643 -886281733 -968364579 -1077861357 1849826008 771268127 941499821 1371078434 2114285254 -359093155 315044077
REM
CELL 1.54180   50.00000   50.00000   50.00000   90.00000   90.00000   90.00000
LATT -1
SFAC C  
C      1  0.4114880000000  0.5610000000000  0.4908440000000 1.0
C      1  0.4941930000000  0.6007660000000  0.4925810000000 1.0
C      1  0.5699230000000  0.5631130000000  0.5011000000000 1.0
C      1  0.6078190000000  0.4815010000000  0.4851050000000 1.0
C      1  0.5499990000000  0.4052120000000  0.4883340000000 1.0
C      1  0.4599100000000  0.4010740000000  0.4913980000000 1.0
C      1  0.3972040000000  0.4690000000000  0.4890320000000 1.0
C      1  0.5355610000000  0.4712980000000  0.4838440000000 1.0
C      1  0.4847340000000  0.4552780000000  0.4791920000000 1.0
C      1  0.4778100000000  0.4815160000000  0.4761900000000 1.0
C      1  0.4573500000000  0.5158030000000  0.4864500000000 1.0
C      1  0.4799000000000  0.5411870000000  0.4840260000000 1.0
C      1  0.5299930000000  0.5435990000000  0.4890940000000 1.0
C      1  0.5434890000000  0.4998940000000  0.4884310000000 1.0
C      1  0.5549790000000  0.5421400000000  0.4227510000000 1.0
C      1  0.5873740000000  0.4961250000000  0.4349740000000 1.0
C      1  0.5471630000000  0.4274510000000  0.4354080000000 1.0
C      1  0.4618310000000  0.4411250000000  0.4265440000000 1.0
C      1  0.4460890000000  0.4890820000000  0.4173660000000 1.0
C      1  0.4457180000000  0.5405250000000  0.4235000000000 1.0
C      1  0.5001220000000  0.5755490000000  0.4277520000000 1.0
C      1  0.5346060000000  0.4937240000000  0.5889830000000 1.0
C      1  0.5184460000000  0.4689240000000  0.5881360000000 1.0
C      1  0.4895980000000  0.4671790000000  0.5820100000000 1.0
C      1  0.4687730000000  0.4873020000000  0.5900270000000 1.0
C      1  0.4769940000000  0.5182070000000  0.5857430000000 1.0
C      1  0.4998670000000  0.5275650000000  0.5688030000000 1.0
C      1  0.5265310000000  0.5205930000000  0.5808940000000 1.0
C      1  0.4780940000000  0.5167990000000  0.4106280000000 1.0
C      1  0.4986610000000  0.5370070000000  0.4194280000000 1.0
C      1  0.5299410000000  0.5280110000000  0.4147990000000 1.0
C      1  0.5343390000000  0.4973690000000  0.4139020000000 1.0
C      1  0.5243140000000  0.4709430000000  0.4066060000000 1.0
C      1  0.4948300000000  0.4644220000000  0.4125450000000 1.0
C      1  0.4723640000000  0.4886110000000  0.4075630000000 1.0
C      1  0.5701340000000  0.4185750000000  0.5049860000000 1.0
C      1  0.4832850000000  0.3942000000000  0.5069360000000 1.0
C      1  0.4056170000000  0.4465120000000  0.5056050000000 1.0
C      1  0.4001180000000  0.5395750000000  0.5066310000000 1.0
C      1  0.4681190000000  0.6061070000000  0.5046290000000 1.0
C      1  0.5619850000000  0.5910300000000  0.5037880000000 1.0
C      1  0.6077610000000  0.5073170000000  0.4983000000000 1.0
C      1  0.5618350000000  0.4680690000000  0.5529130000000 1.0
C      1  0.5236280000000  0.4222290000000  0.5636500000000 1.0
C      1  0.4481400000000  0.4307200000000  0.5620690000000 1.0
C      1  0.4160470000000  0.4970370000000  0.5654400000000 1.0
C      1  0.4481850000000  0.5646090000000  0.5645410000000 1.0
C      1  0.5143560000000  0.5800130000000  0.5603860000000 1.0
C      1  0.5722710000000  0.5343220000000  0.5626880000000 1.0
C      1  0.5628570000000  0.4512210000000  0.4395090000000 1.0
C      1  0.4902310000000  0.4197530000000  0.4487840000000 1.0
C      1  0.4319940000000  0.4526150000000  0.4525100000000 1.0
C      1  0.4184130000000  0.5231140000000  0.4507100000000 1.0
C      1  0.4638180000000  0.5763540000000  0.4481150000000 1.0
C      1  0.5424860000000  0.5832100000000  0.4533040000000 1.0
C      1  0.5773560000000  0.5255410000000  0.4641000000000 1.0
C      1  0.5847160000000  0.5345130000000  0.5329200000000 1.0
C      1  0.5784760000000  0.4581010000000  0.5329840000000 1.0
C      1  0.5171910000000  0.4120610000000  0.5358690000000 1.0
C      1  0.4353640000000  0.4275520000000  0.5341540000000 1.0
C      1  0.4116170000000  0.5008150000000  0.5337460000000 1.0
C      1  0.4454690000000  0.5730480000000  0.5324700000000 1.0
C      1  0.5222020000000  0.5943590000000  0.5329170000000 1.0
C      1  0.4834490000000  0.4719850000000  0.5532340000000 1.0
C      1  0.4597620000000  0.4888550000000  0.5398670000000 1.0
C      1  0.4638520000000  0.5238550000000  0.5385700000000 1.0
C      1  0.4898020000000  0.5371340000000  0.5433160000000 1.0
C      1  0.5277550000000  0.5342310000000  0.5367110000000 1.0
C      1  0.5377490000000  0.5075680000000  0.5372580000000 1.0
C      1  0.5368010000000  0.4822240000000  0.5482840000000 1.0
C      1  0.5176960000000  0.5255510000000  0.5086890000000 1.0
C      1  0.5272560000000  0.4976930000000  0.5126230000000 1.0
C      1  0.5189720000000  0.4693310000000  0.5094600000000 1.0
C      1  0.4893590000000  0.4625310000000  0.5085290000000 1.0
C      1  0.4750170000000  0.4844600000000  0.5169510000000 1.0
C      1  0.4742200000000  0.5095380000000  0.5092960000000 1.0
C      1  0.4920680000000  0.5305110000000  0.5099940000000 1.0
C      1  0.5347010000000  0.4965080000000  0.4426280000000 1.0
C      1  0.5257210000000  0.4714690000000  0.4548790000000 1.0
C      1  0.5000910000000  0.4710750000000  0.4408410000000 1.0
C      1  0.4596620000000  0.4986830000000  0.4632430000000 1.0
C      1  0.4741390000000  0.5157720000000  0.4427050000000 1.0
C      1  0.4969450000000  0.5359710000000  0.4500480000000 1.0
C      1  0.5256650000000  0.5241720000000  0.4491520000000 1.0
C      1  0.4197750000000  0.5493570000000  0.4641970000000 1.0
C      1  0.4913510000000  0.5876160000000  0.4539010000000 1.0
C      1  0.5609870000000  0.5595880000000  0.4454350000000 1.0
C      1  0.5962530000000  0.4791750000000  0.4562140000000 1.0
C      1  0.5399770000000  0.4152680000000  0.4609590000000 1.0
C      1  0.4668710000000  0.4138680000000  0.4659380000000 1.0
C      1  0.4133400000000  0.4707250000000  0.4639330000000 1.0
C      1  0.4374450000000  0.4080540000000  0.5113750000000 1.0
C      1  0.3931390000000  0.4913270000000  0.5072780000000 1.0
C      1  0.4257640000000  0.5794780000000  0.5087100000000 1.0
C      1  0.5211050000000  0.6083870000000  0.4991340000000 1.0
C      1  0.5940990000000  0.5491890000000  0.5064970000000 1.0
C      1  0.6026780000000  0.4595010000000  0.5026560000000 1.0
C      1  0.5333720000000  0.3988700000000  0.5119190000000 1.0
C      1  0.5646360000000  0.4651880000000  0.4901410000000 1.0
C      1  0.5118220000000  0.4295780000000  0.4934030000000 1.0
C      1  0.4515950000000  0.4436400000000  0.4999820000000 1.0
C      1  0.4310120000000  0.5030730000000  0.4951030000000 1.0
C      1  0.4573230000000  0.5579140000000  0.4924650000000 1.0
C      1  0.5145650000000  0.5650640000000  0.4926780000000 1.0
C      1  0.5605240000000  0.5173360000000  0.5022310000000 1.0
C      1  0.5607030000000  0.4578880000000  0.5774540000000 1.0
C      1  0.4989050000000  0.4246240000000  0.5744790000000 1.0
C      1  0.4427970000000  0.4538360000000  0.5761780000000 1.0
C      1  0.4287340000000  0.5181950000000  0.5765520000000 1.0
C      1  0.4714180000000  0.5673960000000  0.5774660000000 1.0
C      1  0.5312930000000  0.5669890000000  0.5781770000000 1.0
C      1  0.5715070000000  0.5095580000000  0.5741390000000 1.0
C      1  0.4475690000000  0.5577100000000  0.4649140000000 1.0
C      1  0.5147930000000  0.5765360000000  0.4672150000000 1.0
C      1  0.5478380000000  0.5381750000000  0.4659390000000 1.0
C      1  0.5703520000000  0.4684940000000  0.4623350000000 1.0
C      1  0.5145810000000  0.4281380000000  0.4648040000000 1.0
C      1  0.4584330000000  0.4427700000000  0.4713570000000 1.0
C      1  0.4293600000000  0.4966760000000  0.4643010000000 1.0
C      1  0.4445790000000  0.5420880000000  0.5242190000000 1.0
C      1  0.4980970000000  0.5785970000000  0.5168780000000 1.0
C      1  0.5566210000000  0.5404570000000  0.5201430000000 1.0
C      1  0.5746000000000  0.4834630000000  0.5180290000000 1.0
C      1  0.5307060000000  0.4425960000000  0.5148900000000 1.0
C      1  0.4735960000000  0.4381290000000  0.5185990000000 1.0
C      1  0.4336240000000  0.4816250000000  0.5252950000000 1.0
C      1  0.4314520000000  0.4777790000000  0.5799560000000 1.0
C      1  0.4402280000000  0.5416900000000  0.5776190000000 1.0
C      1  0.4963910000000  0.5754610000000  0.5821240000000 1.0
C      1  0.5462210000000  0.5429970000000  0.5773050000000 1.0
C      1  0.5641510000000  0.4853490000000  0.5883580000000 1.0
C      1  0.5344770000000  0.4458450000000  0.5798900000000 1.0
C      1  0.4730330000000  0.4274800000000  0.5747230000000 1.0
C      1  0.5582090000000  0.4371060000000  0.5240920000000 1.0
C      1  0.4883480000000  0.4144080000000  0.5276770000000 1.0
C      1  0.4229320000000  0.4531960000000  0.5279410000000 1.0
C      1  0.4178390000000  0.5301560000000  0.5276330000000 1.0
C      1  0.4711900000000  0.5879780000000  0.5271950000000 1.0
C      1  0.5504450000000  0.5857160000000  0.5321000000000 1.0
C      1  0.5927860000000  0.5060790000000  0.5237120000000 1.0
C      1  0.5436060000000  0.4520020000000  0.4171060000000 1.0
C      1  0.4876190000000  0.4343760000000  0.4229210000000 1.0
C      1  0.4408450000000  0.4602290000000  0.4259120000000 1.0
C      1  0.4320350000000  0.5161890000000  0.4262550000000 1.0
C      1  0.4650130000000  0.5601270000000  0.4246860000000 1.0
C      1  0.5279800000000  0.5734540000000  0.4293330000000 1.0
C      1  0.5768780000000  0.5211020000000  0.4347710000000 1.0
C      1  0.5842690000000  0.4409960000000  0.4911940000000 1.0
C      1  0.5098180000000  0.3995890000000  0.4948550000000 1.0
C      1  0.4266930000000  0.4290370000000  0.4943360000000 1.0
C      1  0.4023850000000  0.5138130000000  0.4923280000000 1.0
C      1  0.4477830000000  0.5885000000000  0.4929000000000 1.0
C      1  0.5434960000000  0.6002550000000  0.4837660000000 1.0
C      1  0.5988390000000  0.5313190000000  0.4836210000000 1.0
C      1  0.5013440000000  0.5005740000000  0.4753520000000 1.0
C      1  0.4837450000000  0.5033640000000  0.6079200000000 1.0
C      1  0.5087250000000  0.4785590000000  0.5472770000000 1.0
C      1  0.4952350000000  0.4978030000000  0.4458060000000 1.0
END
