TITL C-2441163-1170-1213 0.0324730339116362 125000 -25513.9339642854 0 0 174 (C1) n - 1
REM
REM in /home/bkarasulu/work/CARBON/AIRSS/Generating-Clusters/ReaxFF-fromJPCA2015/Units_Real/with-SteepDescent/Higher-Symm
REM
REM
REM
REM
REM
REM ./C.cell (1df0a924f5614ab8850e4351716899ee)
REM
REM compiler GCC version 9.2.1 20190827 (Red Hat 9.2.1-1)
REM options -cpp -mtune=generic -march=x86-64 -g -O0 -fpre-include=/usr/include/finclude/math-vector-fortran.h
REM seed 628784385 -1251023683 530009622 1600372290 91677970 38293272 -1720221326 -762909148 -1643722427 -2070995128 1805444365 -1385223864 1014292087 438341908 -116525039 1023653502 1404951946 1495344151 1629427426 -408474998 1708923284 -369900683 -237221882 1313998605 -307464033 -1468043196 -450624260 1861911259 1955130273 -1913458445 1803600783 424970700 -1686408854
REM
CELL 1.54180   50.00000   50.00000   50.00000   90.00000   90.00000   90.00000
LATT -1
SFAC C  
C      1  0.5893810000000  0.4553620000000  0.5492210000000 1.0
C      1  0.5825000000000  0.5485040000000  0.4357740000000 1.0
C      1  0.5884330000000  0.5472020000000  0.5576230000000 1.0
C      1  0.5864140000000  0.4532250000000  0.4442280000000 1.0
C      1  0.4530200000000  0.4740550000000  0.4781030000000 1.0
C      1  0.4439170000000  0.5155730000000  0.5362310000000 1.0
C      1  0.4481600000000  0.5176180000000  0.4759620000000 1.0
C      1  0.4543110000000  0.4906170000000  0.5237950000000 1.0
C      1  0.3806600000000  0.5089610000000  0.4661820000000 1.0
C      1  0.3853610000000  0.4881730000000  0.5385240000000 1.0
C      1  0.3853400000000  0.4806570000000  0.4633860000000 1.0
C      1  0.3843000000000  0.5150220000000  0.5323020000000 1.0
C      1  0.5879780000000  0.4539710000000  0.5219650000000 1.0
C      1  0.5924250000000  0.5471320000000  0.4634760000000 1.0
C      1  0.5945940000000  0.5423100000000  0.5318990000000 1.0
C      1  0.5867210000000  0.4518610000000  0.4725680000000 1.0
C      1  0.5111830000000  0.5565880000000  0.4152650000000 1.0
C      1  0.4931210000000  0.4391150000000  0.5826440000000 1.0
C      1  0.5165660000000  0.4471810000000  0.4185540000000 1.0
C      1  0.5019100000000  0.5638770000000  0.5907040000000 1.0
C      1  0.4405330000000  0.4113400000000  0.4612220000000 1.0
C      1  0.4341780000000  0.5861450000000  0.5334250000000 1.0
C      1  0.4359280000000  0.5877350000000  0.4668530000000 1.0
C      1  0.4340840000000  0.4158480000000  0.5298140000000 1.0
C      1  0.4734890000000  0.5428390000000  0.4248190000000 1.0
C      1  0.4659410000000  0.4483170000000  0.5916080000000 1.0
C      1  0.4726820000000  0.4641200000000  0.4230290000000 1.0
C      1  0.4757030000000  0.5531100000000  0.5854470000000 1.0
C      1  0.4534200000000  0.5262900000000  0.4113710000000 1.0
C      1  0.4568930000000  0.4768610000000  0.5899330000000 1.0
C      1  0.4517400000000  0.4786210000000  0.4095790000000 1.0
C      1  0.4616920000000  0.5279090000000  0.5945260000000 1.0
C      1  0.5503080000000  0.4303890000000  0.4328260000000 1.0
C      1  0.5461910000000  0.5583790000000  0.5793160000000 1.0
C      1  0.5421250000000  0.5651680000000  0.4396720000000 1.0
C      1  0.5400520000000  0.4287320000000  0.5762750000000 1.0
C      1  0.4388210000000  0.5717330000000  0.4423420000000 1.0
C      1  0.4339570000000  0.4310050000000  0.5551390000000 1.0
C      1  0.4429550000000  0.4333910000000  0.4426420000000 1.0
C      1  0.4396480000000  0.5760130000000  0.5620140000000 1.0
C      1  0.4649240000000  0.3975900000000  0.4690760000000 1.0
C      1  0.4579180000000  0.6011480000000  0.5287260000000 1.0
C      1  0.4620490000000  0.5987610000000  0.4722130000000 1.0
C      1  0.4599350000000  0.4033740000000  0.5252800000000 1.0
C      1  0.4069260000000  0.5510240000000  0.4682670000000 1.0
C      1  0.4021050000000  0.4731570000000  0.5203560000000 1.0
C      1  0.4047140000000  0.4601220000000  0.4700360000000 1.0
C      1  0.4008550000000  0.5213580000000  0.5078330000000 1.0
C      1  0.5118780000000  0.5406510000000  0.5373980000000 1.0
C      1  0.5143340000000  0.4523360000000  0.4628350000000 1.0
C      1  0.5104920000000  0.4481550000000  0.5419170000000 1.0
C      1  0.5269470000000  0.5453480000000  0.4542650000000 1.0
C      1  0.4703430000000  0.4358340000000  0.4306610000000 1.0
C      1  0.4689050000000  0.5718400000000  0.5635230000000 1.0
C      1  0.4673650000000  0.5683540000000  0.4383790000000 1.0
C      1  0.4554240000000  0.4295440000000  0.5735220000000 1.0
C      1  0.5407780000000  0.5564440000000  0.4119280000000 1.0
C      1  0.5555380000000  0.4502300000000  0.5833630000000 1.0
C      1  0.5453240000000  0.4485720000000  0.4131900000000 1.0
C      1  0.5251250000000  0.5469690000000  0.5949600000000 1.0
C      1  0.4341510000000  0.4270160000000  0.4853350000000 1.0
C      1  0.4223350000000  0.5678880000000  0.5135650000000 1.0
C      1  0.4178570000000  0.5726840000000  0.4850110000000 1.0
C      1  0.4160780000000  0.4258960000000  0.5077980000000 1.0
C      1  0.5620970000000  0.5189170000000  0.4672030000000 1.0
C      1  0.5438110000000  0.4798740000000  0.5342330000000 1.0
C      1  0.5492490000000  0.4802310000000  0.4632820000000 1.0
C      1  0.5523610000000  0.5241730000000  0.5281970000000 1.0
C      1  0.4884040000000  0.5366770000000  0.5218490000000 1.0
C      1  0.4928260000000  0.4407700000000  0.4777580000000 1.0
C      1  0.4875330000000  0.4494730000000  0.5247250000000 1.0
C      1  0.4705670000000  0.5541620000000  0.4895380000000 1.0
C      1  0.5807990000000  0.4251940000000  0.4699780000000 1.0
C      1  0.5853470000000  0.5685010000000  0.5385580000000 1.0
C      1  0.5816610000000  0.5728910000000  0.4532380000000 1.0
C      1  0.5808220000000  0.4308200000000  0.5363910000000 1.0
C      1  0.4950290000000  0.4200820000000  0.4327570000000 1.0
C      1  0.5081170000000  0.5865660000000  0.5721190000000 1.0
C      1  0.5047570000000  0.5816990000000  0.4280670000000 1.0
C      1  0.4933010000000  0.4128360000000  0.5685340000000 1.0
C      1  0.5105610000000  0.5922620000000  0.4739950000000 1.0
C      1  0.5103330000000  0.3957300000000  0.5285310000000 1.0
C      1  0.5126100000000  0.3919870000000  0.4723410000000 1.0
C      1  0.5118410000000  0.5933790000000  0.5299340000000 1.0
C      1  0.4273750000000  0.5264910000000  0.4249580000000 1.0
C      1  0.4364030000000  0.4790120000000  0.5701650000000 1.0
C      1  0.4280840000000  0.4765540000000  0.4270170000000 1.0
C      1  0.4337740000000  0.5270750000000  0.5860800000000 1.0
C      1  0.4904630000000  0.4010200000000  0.4544360000000 1.0
C      1  0.4889110000000  0.5913750000000  0.5496990000000 1.0
C      1  0.4850330000000  0.5878150000000  0.4555130000000 1.0
C      1  0.4852950000000  0.4030620000000  0.5420340000000 1.0
C      1  0.4716730000000  0.5239490000000  0.5416300000000 1.0
C      1  0.4791020000000  0.4870540000000  0.4716000000000 1.0
C      1  0.4798540000000  0.4786110000000  0.5305300000000 1.0
C      1  0.4757020000000  0.5159990000000  0.4686700000000 1.0
C      1  0.5178110000000  0.5461210000000  0.4810660000000 1.0
C      1  0.5331010000000  0.4539940000000  0.5290740000000 1.0
C      1  0.5382720000000  0.4560580000000  0.4760940000000 1.0
C      1  0.5348260000000  0.5455170000000  0.5242120000000 1.0
C      1  0.5372750000000  0.5990920000000  0.4646290000000 1.0
C      1  0.5353010000000  0.4022650000000  0.5432790000000 1.0
C      1  0.5388150000000  0.3980080000000  0.4618420000000 1.0
C      1  0.5403780000000  0.5907680000000  0.5383490000000 1.0
C      1  0.4296110000000  0.4601750000000  0.5479250000000 1.0
C      1  0.4204240000000  0.5491420000000  0.4420320000000 1.0
C      1  0.4325810000000  0.5526040000000  0.5754850000000 1.0
C      1  0.4240060000000  0.4555710000000  0.4472110000000 1.0
C      1  0.5636900000000  0.5812100000000  0.5243060000000 1.0
C      1  0.5621140000000  0.4063810000000  0.4789750000000 1.0
C      1  0.5594450000000  0.4123290000000  0.5298330000000 1.0
C      1  0.5627060000000  0.5861550000000  0.4710370000000 1.0
C      1  0.5766230000000  0.4704550000000  0.5710390000000 1.0
C      1  0.5619880000000  0.5367320000000  0.4173630000000 1.0
C      1  0.5671240000000  0.5378200000000  0.5748600000000 1.0
C      1  0.5728170000000  0.4626940000000  0.4208650000000 1.0
C      1  0.5306670000000  0.5924510000000  0.4365300000000 1.0
C      1  0.5233940000000  0.4081980000000  0.5693910000000 1.0
C      1  0.5296240000000  0.4150420000000  0.4404660000000 1.0
C      1  0.5366860000000  0.5827220000000  0.5662100000000 1.0
C      1  0.4462990000000  0.4518310000000  0.4954650000000 1.0
C      1  0.4281760000000  0.5386420000000  0.5159290000000 1.0
C      1  0.4459070000000  0.5396890000000  0.4919640000000 1.0
C      1  0.4427450000000  0.4646550000000  0.5218170000000 1.0
C      1  0.4850540000000  0.5208630000000  0.4414100000000 1.0
C      1  0.4880250000000  0.4829170000000  0.5577080000000 1.0
C      1  0.4872340000000  0.4836370000000  0.4402360000000 1.0
C      1  0.4893420000000  0.5098090000000  0.5578260000000 1.0
C      1  0.5153290000000  0.5198970000000  0.5576250000000 1.0
C      1  0.5128520000000  0.4692730000000  0.4373370000000 1.0
C      1  0.5048280000000  0.4606110000000  0.5661690000000 1.0
C      1  0.5112090000000  0.5299010000000  0.4339570000000 1.0
C      1  0.5086260000000  0.4003290000000  0.4999530000000 1.0
C      1  0.5051050000000  0.5893370000000  0.5019410000000 1.0
C      1  0.3964310000000  0.5058040000000  0.5564220000000 1.0
C      1  0.3884420000000  0.4987970000000  0.4420440000000 1.0
C      1  0.5745980000000  0.5387050000000  0.4857630000000 1.0
C      1  0.5785280000000  0.4717390000000  0.5000160000000 1.0
C      1  0.3920850000000  0.5299350000000  0.4807510000000 1.0
C      1  0.4036900000000  0.4522750000000  0.4990150000000 1.0
C      1  0.4896940000000  0.4207300000000  0.4980360000000 1.0
C      1  0.4782360000000  0.5773320000000  0.5045040000000 1.0
C      1  0.5520260000000  0.5096020000000  0.4132350000000 1.0
C      1  0.5577720000000  0.5145350000000  0.5893220000000 1.0
C      1  0.4917550000000  0.5347280000000  0.4906870000000 1.0
C      1  0.4930910000000  0.4602280000000  0.4977030000000 1.0
C      1  0.4653230000000  0.6044940000000  0.5011100000000 1.0
C      1  0.4676080000000  0.4037750000000  0.4973130000000 1.0
C      1  0.5343070000000  0.5579260000000  0.5003730000000 1.0
C      1  0.5398610000000  0.4422470000000  0.5024010000000 1.0
C      1  0.4675480000000  0.5023960000000  0.4018240000000 1.0
C      1  0.4734950000000  0.5008480000000  0.5997710000000 1.0
C      1  0.5718540000000  0.4966430000000  0.5770950000000 1.0
C      1  0.5718980000000  0.4918410000000  0.4251320000000 1.0
C      1  0.4257290000000  0.5065880000000  0.5634460000000 1.0
C      1  0.4133780000000  0.5013740000000  0.4284360000000 1.0
C      1  0.4978250000000  0.5012280000000  0.4011220000000 1.0
C      1  0.5013520000000  0.5042930000000  0.6002690000000 1.0
C      1  0.5520170000000  0.4174610000000  0.5035530000000 1.0
C      1  0.5602470000000  0.5691630000000  0.4960240000000 1.0
C      1  0.5259010000000  0.5172540000000  0.5972670000000 1.0
C      1  0.5220150000000  0.5053620000000  0.4160440000000 1.0
C      1  0.5798300000000  0.5240770000000  0.5149640000000 1.0
C      1  0.5734530000000  0.4946330000000  0.4548400000000 1.0
C      1  0.5363820000000  0.5050500000000  0.4692920000000 1.0
C      1  0.5388680000000  0.5059370000000  0.5453330000000 1.0
C      1  0.5503290000000  0.4833820000000  0.5066950000000 1.0
C      1  0.4343270000000  0.4941180000000  0.4834750000000 1.0
C      1  0.5939870000000  0.4972880000000  0.5058120000000 1.0
C      1  0.4121240000000  0.4934990000000  0.5021480000000 1.0
C      1  0.6437010000000  0.4980210000000  0.4966700000000 1.0
C      1  0.4984670000000  0.4885280000000  0.4967030000000 1.0
C      1  0.6197560000000  0.4976430000000  0.5011300000000 1.0
C      1  0.5270290000000  0.4953470000000  0.4947880000000 1.0
END
