TITL C-2441159-1093-28 0.0594550749256422 125000 -15569.934504431 0 0 118 (C1) n - 1
REM
REM in /home/bkarasulu/work/CARBON/AIRSS/Generating-Clusters/ReaxFF-fromJPCA2015/Units_Real/with-SteepDescent/Higher-Symm
REM
REM
REM
REM
REM
REM ./C.cell (1df0a924f5614ab8850e4351716899ee)
REM
REM compiler GCC version 9.2.1 20190827 (Red Hat 9.2.1-1)
REM options -cpp -mtune=generic -march=x86-64 -g -O0 -fpre-include=/usr/include/finclude/math-vector-fortran.h
REM seed -364075921 330238758 1103341365 1811309285 1402932750 1968706130 111822003 -17520934 -555739555 -1310014618 -80771290 -116192081 -1310387540 -335156109 1965798518 556845974 1864430274 2075066135 71860874 982307252 -586288831 10629246 -133683294 1414512924 1399595343 -47821376 -1411252095 -791793309 -1798671310 -1399917461 817074788 362971208 -490149196
REM
CELL 1.54180   50.00000   50.00000   50.00000   90.00000   90.00000   90.00000
LATT -1
SFAC C  
C      1  0.5888170000000  0.4874150000000  0.4759360000000 1.0
C      1  0.5889440000000  0.5118530000000  0.5251600000000 1.0
C      1  0.5357240000000  0.4682800000000  0.4705740000000 1.0
C      1  0.5363790000000  0.5297830000000  0.5261440000000 1.0
C      1  0.5332780000000  0.5590380000000  0.5209900000000 1.0
C      1  0.5332980000000  0.4397700000000  0.4809820000000 1.0
C      1  0.5163520000000  0.5835790000000  0.4834210000000 1.0
C      1  0.5190750000000  0.4164460000000  0.5187180000000 1.0
C      1  0.5394020000000  0.4463160000000  0.5546100000000 1.0
C      1  0.5343580000000  0.5552920000000  0.4434340000000 1.0
C      1  0.4629210000000  0.4098170000000  0.4833360000000 1.0
C      1  0.4670420000000  0.5918230000000  0.5122990000000 1.0
C      1  0.5793820000000  0.5255050000000  0.5052830000000 1.0
C      1  0.5786500000000  0.4735360000000  0.4965900000000 1.0
C      1  0.4713980000000  0.4374560000000  0.5294540000000 1.0
C      1  0.4696810000000  0.5619790000000  0.4694240000000 1.0
C      1  0.5193040000000  0.5034780000000  0.4102790000000 1.0
C      1  0.5196990000000  0.4966940000000  0.5877280000000 1.0
C      1  0.4495070000000  0.4796520000000  0.4193750000000 1.0
C      1  0.4495420000000  0.5193570000000  0.5783870000000 1.0
C      1  0.5099030000000  0.4199940000000  0.4598620000000 1.0
C      1  0.5105990000000  0.5738380000000  0.5461300000000 1.0
C      1  0.5764220000000  0.4422130000000  0.4988350000000 1.0
C      1  0.5780640000000  0.5552990000000  0.5042730000000 1.0
C      1  0.4978020000000  0.4863820000000  0.4017200000000 1.0
C      1  0.4980060000000  0.5143720000000  0.5950540000000 1.0
C      1  0.5150520000000  0.4928320000000  0.5281310000000 1.0
C      1  0.5171560000000  0.5060350000000  0.4737310000000 1.0
C      1  0.4383490000000  0.4453130000000  0.4613520000000 1.0
C      1  0.4366510000000  0.5589740000000  0.5374580000000 1.0
C      1  0.5014480000000  0.5274480000000  0.4835430000000 1.0
C      1  0.5018610000000  0.4723540000000  0.5175260000000 1.0
C      1  0.4759350000000  0.5276410000000  0.4141840000000 1.0
C      1  0.4775010000000  0.4704470000000  0.5862000000000 1.0
C      1  0.4967710000000  0.5515570000000  0.4697600000000 1.0
C      1  0.4978680000000  0.4487220000000  0.5302150000000 1.0
C      1  0.5140740000000  0.5713740000000  0.4569780000000 1.0
C      1  0.5164090000000  0.4301910000000  0.5452610000000 1.0
C      1  0.5586900000000  0.5245500000000  0.5689470000000 1.0
C      1  0.5579370000000  0.4755580000000  0.4306530000000 1.0
C      1  0.5013410000000  0.4522430000000  0.4358490000000 1.0
C      1  0.5004000000000  0.5494130000000  0.5593920000000 1.0
C      1  0.5223850000000  0.4665260000000  0.5703470000000 1.0
C      1  0.5197700000000  0.5328620000000  0.4288040000000 1.0
C      1  0.4573920000000  0.5649540000000  0.5554910000000 1.0
C      1  0.4607640000000  0.4367990000000  0.4457830000000 1.0
C      1  0.4986700000000  0.4193740000000  0.4969310000000 1.0
C      1  0.4939340000000  0.5778220000000  0.5034200000000 1.0
C      1  0.5741950000000  0.5518780000000  0.4756880000000 1.0
C      1  0.5714840000000  0.4472860000000  0.5283490000000 1.0
C      1  0.4496050000000  0.5336200000000  0.4442250000000 1.0
C      1  0.4524300000000  0.4629430000000  0.5549650000000 1.0
C      1  0.4226450000000  0.5310710000000  0.5371620000000 1.0
C      1  0.4225480000000  0.4706140000000  0.4566860000000 1.0
C      1  0.4694950000000  0.5579540000000  0.4409290000000 1.0
C      1  0.4710250000000  0.4407580000000  0.5585770000000 1.0
C      1  0.5442320000000  0.4575380000000  0.5277070000000 1.0
C      1  0.5461260000000  0.5482670000000  0.4700430000000 1.0
C      1  0.4193770000000  0.4844580000000  0.5621400000000 1.0
C      1  0.4240020000000  0.5184840000000  0.4364670000000 1.0
C      1  0.5582640000000  0.5526960000000  0.5550250000000 1.0
C      1  0.5529520000000  0.4497980000000  0.4474410000000 1.0
C      1  0.5469860000000  0.4867860000000  0.4928000000000 1.0
C      1  0.5474470000000  0.5125790000000  0.5056110000000 1.0
C      1  0.4764990000000  0.5131790000000  0.4886590000000 1.0
C      1  0.4762440000000  0.4844390000000  0.5097920000000 1.0
C      1  0.5620460000000  0.5619310000000  0.5271840000000 1.0
C      1  0.5623130000000  0.4367050000000  0.4743690000000 1.0
C      1  0.5376730000000  0.5165630000000  0.5857680000000 1.0
C      1  0.5370560000000  0.4838260000000  0.4136060000000 1.0
C      1  0.4898260000000  0.5408960000000  0.5850360000000 1.0
C      1  0.4890570000000  0.4604390000000  0.4115630000000 1.0
C      1  0.4544780000000  0.5766110000000  0.4890150000000 1.0
C      1  0.4551700000000  0.4234360000000  0.5090720000000 1.0
C      1  0.4833760000000  0.5532580000000  0.5102920000000 1.0
C      1  0.4885240000000  0.4432150000000  0.4917680000000 1.0
C      1  0.4780070000000  0.4674640000000  0.4846860000000 1.0
C      1  0.4722540000000  0.5273300000000  0.5175350000000 1.0
C      1  0.5130220000000  0.4725800000000  0.4521260000000 1.0
C      1  0.5152070000000  0.5284910000000  0.5462040000000 1.0
C      1  0.4979430000000  0.4844080000000  0.4697780000000 1.0
C      1  0.4970410000000  0.5142630000000  0.5315020000000 1.0
C      1  0.4273650000000  0.4915430000000  0.4770530000000 1.0
C      1  0.4395050000000  0.5142630000000  0.5216060000000 1.0
C      1  0.5840700000000  0.5043180000000  0.4607990000000 1.0
C      1  0.5840230000000  0.4949400000000  0.5405680000000 1.0
C      1  0.4243650000000  0.5348450000000  0.4597730000000 1.0
C      1  0.4252940000000  0.4648550000000  0.5432680000000 1.0
C      1  0.5598110000000  0.4987090000000  0.5559530000000 1.0
C      1  0.5597120000000  0.5019590000000  0.4429390000000 1.0
C      1  0.5339340000000  0.4376880000000  0.5083100000000 1.0
C      1  0.5334400000000  0.5629800000000  0.4921960000000 1.0
C      1  0.5358160000000  0.5698750000000  0.5633770000000 1.0
C      1  0.5251920000000  0.4357190000000  0.4410780000000 1.0
C      1  0.5878070000000  0.4715970000000  0.5251090000000 1.0
C      1  0.5892260000000  0.5275030000000  0.4761870000000 1.0
C      1  0.4271290000000  0.4893740000000  0.4340130000000 1.0
C      1  0.4263090000000  0.5115050000000  0.5642630000000 1.0
C      1  0.4924110000000  0.5476970000000  0.4262040000000 1.0
C      1  0.4945420000000  0.4511770000000  0.5736680000000 1.0
C      1  0.4238840000000  0.4736620000000  0.4965780000000 1.0
C      1  0.4180340000000  0.5271720000000  0.5074990000000 1.0
C      1  0.4717620000000  0.5007860000000  0.5911950000000 1.0
C      1  0.4713570000000  0.4984060000000  0.4076010000000 1.0
C      1  0.4678950000000  0.4839320000000  0.5404440000000 1.0
C      1  0.4672590000000  0.5120820000000  0.4600840000000 1.0
C      1  0.5339330000000  0.5149760000000  0.4500540000000 1.0
C      1  0.5331610000000  0.4866580000000  0.5500850000000 1.0
C      1  0.4788290000000  0.5825630000000  0.5418030000000 1.0
C      1  0.4801790000000  0.4178730000000  0.4592850000000 1.0
C      1  0.4392170000000  0.4276900000000  0.4849220000000 1.0
C      1  0.4409250000000  0.5748960000000  0.5137630000000 1.0
C      1  0.4804790000000  0.5089490000000  0.4358880000000 1.0
C      1  0.4816700000000  0.4895300000000  0.5643610000000 1.0
C      1  0.4624450000000  0.4541580000000  0.4216400000000 1.0
C      1  0.4619710000000  0.5450330000000  0.5772800000000 1.0
C      1  0.4296850000000  0.4831250000000  0.5193630000000 1.0
C      1  0.4249120000000  0.5200420000000  0.4820650000000 1.0
END
