TITL C-2441158-471-1098 -3.818394811019e-14 125000 -470.440373942376 0 0 4 (D(inf)h) n - 1
REM
REM in /home/bkarasulu/work/CARBON/AIRSS/Generating-Clusters/ReaxFF-fromJPCA2015/Units_Real/with-SteepDescent/Higher-Symm
REM
REM
REM
REM
REM
REM ./C.cell (1df0a924f5614ab8850e4351716899ee)
REM
REM compiler GCC version 9.2.1 20190827 (Red Hat 9.2.1-1)
REM options -cpp -mtune=generic -march=x86-64 -g -O0 -fpre-include=/usr/include/finclude/math-vector-fortran.h
REM seed 2012534825 2007315139 -1577381746 -532694167 -1588658112 96457978 373535390 520279567 -320049497 -772902203 1177197790 404297790 -658497465 1713861040 -896333899 686724351 -839561082 -2000691091 829101888 444886886 -1884804969 958980074 -974850992 -418451762 -1738427407 -1842845987 492979164 2081196376 304742545 -8864221 -614605805 -1388619614 -227382487
REM
CELL 1.54180   50.00000   50.00000   50.00000   90.00000   90.00000   90.00000
LATT -1
SFAC C  
C      1  0.4979620000000  0.4974800000000  0.5373890000000 1.0
C      1  0.4979620000000  0.4974800000000  0.4869840000000 1.0
C      1  0.4979620000000  0.4974800000000  0.4626110000000 1.0
C      1  0.4979620000000  0.4974800000000  0.5130160000000 1.0
END
