TITL C-2441155-8282-121 0.105379056672349 125000 -25919.1444394389 0 0 187 (C1) n - 1
REM
REM in /home/bkarasulu/work/CARBON/AIRSS/Generating-Clusters/ReaxFF-fromJPCA2015/Units_Real/with-SteepDescent/Higher-Symm
REM
REM
REM
REM
REM
REM ./C.cell (1df0a924f5614ab8850e4351716899ee)
REM
REM compiler GCC version 9.2.1 20190827 (Red Hat 9.2.1-1)
REM options -cpp -mtune=generic -march=x86-64 -g -O0 -fpre-include=/usr/include/finclude/math-vector-fortran.h
REM seed 599852794 98710011 685575504 299839993 623445008 915136789 1986849528 -1342922744 -428721844 2057841253 884975943 -227836154 1080182226 -74185758 -227223356 -1806641247 532401070 -1128414684 812571266 -36727370 -151321616 1399553506 -1548341759 1015838307 -1961032137 1915666946 1488009402 -14542439 260485433 -195345017 -2037339972 -967581543 -386798426
REM
CELL 1.54180   50.00000   50.00000   50.00000   90.00000   90.00000   90.00000
LATT -1
SFAC C  
C      1  0.4097410000000  0.4462480000000  0.4675350000000 1.0
C      1  0.5926470000000  0.5583330000000  0.4632040000000 1.0
C      1  0.4084800000000  0.4431490000000  0.5370890000000 1.0
C      1  0.5893310000000  0.5525580000000  0.5331300000000 1.0
C      1  0.4113610000000  0.5585380000000  0.4665520000000 1.0
C      1  0.5896330000000  0.4415640000000  0.4638560000000 1.0
C      1  0.4104520000000  0.5512740000000  0.5332220000000 1.0
C      1  0.5880340000000  0.4422040000000  0.5350980000000 1.0
C      1  0.5408420000000  0.4869930000000  0.4610560000000 1.0
C      1  0.4705040000000  0.5142230000000  0.4610490000000 1.0
C      1  0.5361170000000  0.4890160000000  0.5428470000000 1.0
C      1  0.4697440000000  0.5225530000000  0.5477670000000 1.0
C      1  0.5392010000000  0.5184210000000  0.4582870000000 1.0
C      1  0.4675530000000  0.4848930000000  0.4626460000000 1.0
C      1  0.5302020000000  0.5180710000000  0.5449920000000 1.0
C      1  0.4655220000000  0.4780490000000  0.5429840000000 1.0
C      1  0.5136200000000  0.4361250000000  0.4068290000000 1.0
C      1  0.4859180000000  0.5632240000000  0.4050120000000 1.0
C      1  0.5128570000000  0.4385700000000  0.5956660000000 1.0
C      1  0.4853510000000  0.5614180000000  0.5936970000000 1.0
C      1  0.5144950000000  0.5645640000000  0.4041420000000 1.0
C      1  0.4848860000000  0.4375070000000  0.4064670000000 1.0
C      1  0.5145180000000  0.5618700000000  0.5937460000000 1.0
C      1  0.4840400000000  0.4384000000000  0.5957760000000 1.0
C      1  0.5584570000000  0.4439550000000  0.5822540000000 1.0
C      1  0.4387550000000  0.5552370000000  0.5811460000000 1.0
C      1  0.5592640000000  0.4439200000000  0.4177570000000 1.0
C      1  0.4422090000000  0.5543600000000  0.4227700000000 1.0
C      1  0.5607760000000  0.5546500000000  0.5814940000000 1.0
C      1  0.4397020000000  0.4455210000000  0.5828220000000 1.0
C      1  0.5606180000000  0.5549720000000  0.4182790000000 1.0
C      1  0.4401270000000  0.4457880000000  0.4208220000000 1.0
C      1  0.5344190000000  0.4265700000000  0.5794480000000 1.0
C      1  0.4630020000000  0.5719510000000  0.5779850000000 1.0
C      1  0.5356300000000  0.4255140000000  0.4219650000000 1.0
C      1  0.4625480000000  0.5748020000000  0.4197080000000 1.0
C      1  0.5375650000000  0.5730930000000  0.5802000000000 1.0
C      1  0.4620120000000  0.4256710000000  0.5821070000000 1.0
C      1  0.5380030000000  0.5750910000000  0.4178520000000 1.0
C      1  0.4622970000000  0.4281760000000  0.4228980000000 1.0
C      1  0.4654390000000  0.4151950000000  0.5533000000000 1.0
C      1  0.5404000000000  0.5860950000000  0.5541710000000 1.0
C      1  0.4614760000000  0.4147020000000  0.4489600000000 1.0
C      1  0.5368110000000  0.5840260000000  0.4455580000000 1.0
C      1  0.4622870000000  0.5846500000000  0.5514770000000 1.0
C      1  0.5363950000000  0.4144570000000  0.5529380000000 1.0
C      1  0.4617960000000  0.5909820000000  0.4438130000000 1.0
C      1  0.5354200000000  0.4170520000000  0.4504350000000 1.0
C      1  0.5179660000000  0.4849390000000  0.4727090000000 1.0
C      1  0.4899500000000  0.5286820000000  0.4795330000000 1.0
C      1  0.5167950000000  0.4709390000000  0.5278440000000 1.0
C      1  0.4767240000000  0.5160350000000  0.5183080000000 1.0
C      1  0.5170200000000  0.5257310000000  0.4742760000000 1.0
C      1  0.4935680000000  0.4814710000000  0.4832350000000 1.0
C      1  0.5229300000000  0.5324850000000  0.5203210000000 1.0
C      1  0.4886830000000  0.4751340000000  0.5262680000000 1.0
C      1  0.5984800000000  0.5144510000000  0.4366250000000 1.0
C      1  0.4000150000000  0.4860470000000  0.4311020000000 1.0
C      1  0.5958010000000  0.5134760000000  0.5631570000000 1.0
C      1  0.4013900000000  0.4873990000000  0.5651320000000 1.0
C      1  0.5984260000000  0.4853640000000  0.4365430000000 1.0
C      1  0.4016880000000  0.5152760000000  0.4327210000000 1.0
C      1  0.5967890000000  0.4845150000000  0.5633190000000 1.0
C      1  0.4047250000000  0.5167680000000  0.5640520000000 1.0
C      1  0.4863480000000  0.4034690000000  0.4593800000000 1.0
C      1  0.5076960000000  0.5819020000000  0.4458240000000 1.0
C      1  0.4868820000000  0.3969800000000  0.5397740000000 1.0
C      1  0.5135450000000  0.5943570000000  0.5441890000000 1.0
C      1  0.4867570000000  0.6007960000000  0.4532640000000 1.0
C      1  0.5160160000000  0.3971600000000  0.4601300000000 1.0
C      1  0.4832250000000  0.6036370000000  0.5434270000000 1.0
C      1  0.5161640000000  0.3973380000000  0.5394840000000 1.0
C      1  0.4639560000000  0.5157840000000  0.6063940000000 1.0
C      1  0.5354270000000  0.4846500000000  0.6059490000000 1.0
C      1  0.4656820000000  0.5148760000000  0.3976390000000 1.0
C      1  0.5364100000000  0.4857460000000  0.3955410000000 1.0
C      1  0.4632770000000  0.4863720000000  0.6062150000000 1.0
C      1  0.5361300000000  0.5141650000000  0.6057920000000 1.0
C      1  0.4649200000000  0.4850920000000  0.3973160000000 1.0
C      1  0.5366860000000  0.5141480000000  0.3960270000000 1.0
C      1  0.4135540000000  0.4677100000000  0.4497770000000 1.0
C      1  0.5997650000000  0.5295180000000  0.4614310000000 1.0
C      1  0.4013790000000  0.4717680000000  0.5404290000000 1.0
C      1  0.5881970000000  0.5244690000000  0.5379890000000 1.0
C      1  0.4055320000000  0.5321520000000  0.4561610000000 1.0
C      1  0.5990120000000  0.4697320000000  0.4611210000000 1.0
C      1  0.4137510000000  0.5238720000000  0.5369060000000 1.0
C      1  0.5948630000000  0.4718710000000  0.5367410000000 1.0
C      1  0.4565860000000  0.5699620000000  0.4701820000000 1.0
C      1  0.5431380000000  0.4358520000000  0.4717690000000 1.0
C      1  0.4548160000000  0.5689300000000  0.5273290000000 1.0
C      1  0.5472870000000  0.4302630000000  0.5301030000000 1.0
C      1  0.4523720000000  0.4305680000000  0.4714670000000 1.0
C      1  0.5467330000000  0.5722320000000  0.4706530000000 1.0
C      1  0.4505960000000  0.4299500000000  0.5305250000000 1.0
C      1  0.5495400000000  0.5735900000000  0.5285460000000 1.0
C      1  0.5587670000000  0.5276410000000  0.4061180000000 1.0
C      1  0.4417310000000  0.4712250000000  0.4067920000000 1.0
C      1  0.5583820000000  0.5274340000000  0.5949110000000 1.0
C      1  0.4412030000000  0.4725740000000  0.5959940000000 1.0
C      1  0.5582940000000  0.4715840000000  0.4056550000000 1.0
C      1  0.4434450000000  0.5294930000000  0.4079740000000 1.0
C      1  0.5577580000000  0.4710110000000  0.5952660000000 1.0
C      1  0.4412140000000  0.5295130000000  0.5960470000000 1.0
C      1  0.4296190000000  0.5648000000000  0.5135910000000 1.0
C      1  0.5701970000000  0.4331040000000  0.5126650000000 1.0
C      1  0.4301730000000  0.5639340000000  0.4856630000000 1.0
C      1  0.5687390000000  0.4348610000000  0.4843550000000 1.0
C      1  0.4272240000000  0.4333640000000  0.5151290000000 1.0
C      1  0.5731270000000  0.5676300000000  0.5123890000000 1.0
C      1  0.4280060000000  0.4343700000000  0.4860850000000 1.0
C      1  0.5720270000000  0.5670820000000  0.4836470000000 1.0
C      1  0.4853590000000  0.4647660000000  0.3957470000000 1.0
C      1  0.5144450000000  0.5329520000000  0.4033450000000 1.0
C      1  0.4852720000000  0.4682020000000  0.5991310000000 1.0
C      1  0.5140310000000  0.5327890000000  0.6012380000000 1.0
C      1  0.4859350000000  0.5353790000000  0.3963100000000 1.0
C      1  0.5137580000000  0.4681160000000  0.4023170000000 1.0
C      1  0.4856090000000  0.5348580000000  0.6057390000000 1.0
C      1  0.5135700000000  0.4655160000000  0.6065180000000 1.0
C      1  0.5556430000000  0.4792230000000  0.4861080000000 1.0
C      1  0.4391560000000  0.5142980000000  0.4845700000000 1.0
C      1  0.5481810000000  0.4909660000000  0.5111540000000 1.0
C      1  0.4501590000000  0.5126560000000  0.5108210000000 1.0
C      1  0.5574980000000  0.5255890000000  0.4809010000000 1.0
C      1  0.4417390000000  0.4866580000000  0.4775760000000 1.0
C      1  0.5443050000000  0.5174950000000  0.5052690000000 1.0
C      1  0.4446740000000  0.4915980000000  0.5282220000000 1.0
C      1  0.5134660000000  0.5153810000000  0.5689350000000 1.0
C      1  0.4856540000000  0.4814610000000  0.5668070000000 1.0
C      1  0.5108150000000  0.5291870000000  0.4337220000000 1.0
C      1  0.4844770000000  0.4856410000000  0.4365970000000 1.0
C      1  0.5158640000000  0.4858900000000  0.5660360000000 1.0
C      1  0.4836750000000  0.5102810000000  0.5689720000000 1.0
C      1  0.5121140000000  0.4769520000000  0.4332120000000 1.0
C      1  0.4865180000000  0.5139190000000  0.4378950000000 1.0
C      1  0.4186330000000  0.4871840000000  0.4085440000000 1.0
C      1  0.5814630000000  0.5137230000000  0.4131080000000 1.0
C      1  0.4177160000000  0.4874450000000  0.5895230000000 1.0
C      1  0.5806190000000  0.5126610000000  0.5875520000000 1.0
C      1  0.4198040000000  0.5148430000000  0.4106370000000 1.0
C      1  0.5811000000000  0.4862420000000  0.4128580000000 1.0
C      1  0.4185080000000  0.5149800000000  0.5893950000000 1.0
C      1  0.5808580000000  0.4850350000000  0.5883090000000 1.0
C      1  0.4965470000000  0.4353050000000  0.4503620000000 1.0
C      1  0.5009440000000  0.5533510000000  0.4468120000000 1.0
C      1  0.4882520000000  0.4389590000000  0.5533490000000 1.0
C      1  0.5057040000000  0.5624940000000  0.5496660000000 1.0
C      1  0.4744360000000  0.5537930000000  0.4542090000000 1.0
C      1  0.5160880000000  0.4527560000000  0.4477420000000 1.0
C      1  0.4847940000000  0.5454880000000  0.5489320000000 1.0
C      1  0.5118850000000  0.4462030000000  0.5409760000000 1.0
C      1  0.4852040000000  0.3912430000000  0.4870370000000 1.0
C      1  0.5153450000000  0.5992490000000  0.4900000000000 1.0
C      1  0.4766910000000  0.4010830000000  0.5132520000000 1.0
C      1  0.5155770000000  0.6101830000000  0.5170500000000 1.0
C      1  0.4864640000000  0.6003090000000  0.4841880000000 1.0
C      1  0.5126070000000  0.3892860000000  0.4871830000000 1.0
C      1  0.4875770000000  0.6135000000000  0.5166560000000 1.0
C      1  0.5237410000000  0.3981940000000  0.5113590000000 1.0
C      1  0.4727570000000  0.4298250000000  0.5134160000000 1.0
C      1  0.5281960000000  0.5608000000000  0.5140370000000 1.0
C      1  0.4717980000000  0.4424070000000  0.4881850000000 1.0
C      1  0.5258620000000  0.5731790000000  0.4888310000000 1.0
C      1  0.4789540000000  0.5618850000000  0.5121260000000 1.0
C      1  0.5248180000000  0.4277380000000  0.5139970000000 1.0
C      1  0.4770070000000  0.5745510000000  0.4880540000000 1.0
C      1  0.5227900000000  0.4421330000000  0.4899110000000 1.0
C      1  0.4182620000000  0.5554480000000  0.5609010000000 1.0
C      1  0.5740550000000  0.4411610000000  0.5589690000000 1.0
C      1  0.4199820000000  0.5547960000000  0.4412050000000 1.0
C      1  0.5772080000000  0.4426780000000  0.4390070000000 1.0
C      1  0.4208180000000  0.4430670000000  0.5620340000000 1.0
C      1  0.5762230000000  0.5574690000000  0.5580520000000 1.0
C      1  0.4184950000000  0.4421650000000  0.4401190000000 1.0
C      1  0.5785450000000  0.5572820000000  0.4394200000000 1.0
C      1  0.4149150000000  0.4869890000000  0.5193620000000 1.0
C      1  0.5964260000000  0.5167950000000  0.5129240000000 1.0
C      1  0.4150320000000  0.4812230000000  0.4871570000000 1.0
C      1  0.5852190000000  0.5184810000000  0.4836480000000 1.0
C      1  0.4021540000000  0.5149470000000  0.5145770000000 1.0
C      1  0.5975390000000  0.4882370000000  0.5132240000000 1.0
C      1  0.4096210000000  0.5117600000000  0.4858460000000 1.0
C      1  0.5858100000000  0.4833100000000  0.4849620000000 1.0
C      1  0.4972280000000  0.4537880000000  0.4858240000000 1.0
C      1  0.4915200000000  0.5366890000000  0.5086430000000 1.0
C      1  0.4909940000000  0.4935450000000  0.5082840000000 1.0
END
