TITL C-2441159-1093-314 -4.21091721831527e-13 125000 -765.274693488496 0 0 7 (D3h) n - 1
REM
REM in /home/bkarasulu/work/CARBON/AIRSS/Generating-Clusters/ReaxFF-fromJPCA2015/Units_Real/with-SteepDescent/Higher-Symm
REM
REM
REM
REM
REM
REM ./C.cell (1df0a924f5614ab8850e4351716899ee)
REM
REM compiler GCC version 9.2.1 20190827 (Red Hat 9.2.1-1)
REM options -cpp -mtune=generic -march=x86-64 -g -O0 -fpre-include=/usr/include/finclude/math-vector-fortran.h
REM seed -399195021 -396137469 876091106 -423248507 1605964280 -1463108497 1483756013 -1815236707 -363735480 -517586141 1868074181 -1429583925 3748769 -393951111 -726209129 2126453587 1030046878 -1715358139 -792514523 -2081604450 883787282 -402761071 -552545877 1369889400 1063437442 -88307609 2046444466 -1815113468 908483132 -520822410 336193779 -1926926186 -885427444
REM
CELL 1.54180   50.00000   50.00000   50.00000   90.00000   90.00000   90.00000
LATT -1
SFAC C  
C      1  0.4682940000000  0.5012370000000  0.4865430000000 1.0
C      1  0.5166920000000  0.5313170000000  0.4865430000000 1.0
C      1  0.5185430000000  0.4743630000000  0.4865430000000 1.0
C      1  0.4682940000000  0.5012370000000  0.5133790000000 1.0
C      1  0.5166920000000  0.5313170000000  0.5133790000000 1.0
C      1  0.5185430000000  0.4743630000000  0.5133790000000 1.0
C      1  0.5011760000000  0.5023060000000  0.4999610000000 1.0
END
