TITL C-2441163-1170-1472 0.0627261130155032 125000 -27295.6513426183 0 0 191 (C1) n - 1
REM
REM in /home/bkarasulu/work/CARBON/AIRSS/Generating-Clusters/ReaxFF-fromJPCA2015/Units_Real/with-SteepDescent/Higher-Symm
REM
REM
REM
REM
REM
REM ./C.cell (1df0a924f5614ab8850e4351716899ee)
REM
REM compiler GCC version 9.2.1 20190827 (Red Hat 9.2.1-1)
REM options -cpp -mtune=generic -march=x86-64 -g -O0 -fpre-include=/usr/include/finclude/math-vector-fortran.h
REM seed 1756854884 -1337550626 -1953045305 -42858293 -1073936297 -1433160977 1569547149 -1805913589 1135384749 -1959688662 543441014 -603587090 -14655163 1060091302 -1863546503 1912960079 -1453009443 -20366157 -348460904 -974136493 -158973776 54711719 -1613871650 1080238851 -1885873971 773813877 -526109376 478702406 861054886 63147145 -1710988508 2057795391 1103342331
REM
CELL 1.54180   50.00000   50.00000   50.00000   90.00000   90.00000   90.00000
LATT -1
SFAC C  
C      1  0.4826220000000  0.4691670000000  0.5572790000000 1.0
C      1  0.4557820000000  0.4883340000000  0.4518230000000 1.0
C      1  0.5564520000000  0.4701700000000  0.4949310000000 1.0
C      1  0.4694060000000  0.5228410000000  0.5478350000000 1.0
C      1  0.4541570000000  0.5149710000000  0.4645610000000 1.0
C      1  0.5466130000000  0.5236000000000  0.5025000000000 1.0
C      1  0.5501380000000  0.3969210000000  0.5122230000000 1.0
C      1  0.4650150000000  0.3990310000000  0.5354400000000 1.0
C      1  0.4863520000000  0.4032650000000  0.4505360000000 1.0
C      1  0.5507590000000  0.6014700000000  0.5124750000000 1.0
C      1  0.4662370000000  0.6000320000000  0.5348240000000 1.0
C      1  0.4855820000000  0.5916860000000  0.4482750000000 1.0
C      1  0.4881240000000  0.5641410000000  0.5820450000000 1.0
C      1  0.4335330000000  0.5543140000000  0.4523420000000 1.0
C      1  0.5767100000000  0.5621340000000  0.4684590000000 1.0
C      1  0.4912210000000  0.4319430000000  0.5841740000000 1.0
C      1  0.4228140000000  0.4387360000000  0.4481690000000 1.0
C      1  0.5780350000000  0.4320660000000  0.4655730000000 1.0
C      1  0.5666180000000  0.4807270000000  0.4117110000000 1.0
C      1  0.5476500000000  0.4804870000000  0.6025100000000 1.0
C      1  0.3903780000000  0.4731370000000  0.4918480000000 1.0
C      1  0.5661780000000  0.5169430000000  0.4134600000000 1.0
C      1  0.5491370000000  0.5098140000000  0.6019680000000 1.0
C      1  0.3824200000000  0.5000300000000  0.4842180000000 1.0
C      1  0.3892190000000  0.5162590000000  0.4613410000000 1.0
C      1  0.5890250000000  0.5219380000000  0.4300990000000 1.0
C      1  0.5209700000000  0.5197380000000  0.6068860000000 1.0
C      1  0.4084760000000  0.4632030000000  0.4453960000000 1.0
C      1  0.5902210000000  0.4756190000000  0.4282920000000 1.0
C      1  0.5191420000000  0.4768320000000  0.6094490000000 1.0
C      1  0.4455570000000  0.4244750000000  0.4377060000000 1.0
C      1  0.5830890000000  0.4188350000000  0.4875600000000 1.0
C      1  0.4694410000000  0.4201810000000  0.5778430000000 1.0
C      1  0.4452290000000  0.5757970000000  0.4385130000000 1.0
C      1  0.5832350000000  0.5806330000000  0.4863120000000 1.0
C      1  0.4692230000000  0.5803310000000  0.5772800000000 1.0
C      1  0.5042320000000  0.5712620000000  0.4703150000000 1.0
C      1  0.5228310000000  0.5660290000000  0.5156350000000 1.0
C      1  0.4675420000000  0.5619940000000  0.4990980000000 1.0
C      1  0.5032310000000  0.4384240000000  0.4668450000000 1.0
C      1  0.5276410000000  0.4314500000000  0.5168260000000 1.0
C      1  0.4779930000000  0.4407850000000  0.5138520000000 1.0
C      1  0.5364150000000  0.4021980000000  0.4634230000000 1.0
C      1  0.5128700000000  0.4017090000000  0.5494500000000 1.0
C      1  0.4517980000000  0.4044770000000  0.4867750000000 1.0
C      1  0.5373070000000  0.5982260000000  0.4635550000000 1.0
C      1  0.5137260000000  0.5979100000000  0.5507840000000 1.0
C      1  0.4516500000000  0.6007090000000  0.4854800000000 1.0
C      1  0.5130920000000  0.5550310000000  0.5834180000000 1.0
C      1  0.4412900000000  0.5534990000000  0.4838670000000 1.0
C      1  0.5653090000000  0.5518490000000  0.4476810000000 1.0
C      1  0.5163360000000  0.4417450000000  0.5878580000000 1.0
C      1  0.4315550000000  0.4431840000000  0.4764200000000 1.0
C      1  0.5695370000000  0.4425550000000  0.4425530000000 1.0
C      1  0.5147580000000  0.5155700000000  0.3826990000000 1.0
C      1  0.6002300000000  0.5156060000000  0.5746990000000 1.0
C      1  0.3855570000000  0.5188590000000  0.5440090000000 1.0
C      1  0.5163590000000  0.4868400000000  0.3860780000000 1.0
C      1  0.5957670000000  0.4868330000000  0.5754510000000 1.0
C      1  0.3874500000000  0.4879880000000  0.5440470000000 1.0
C      1  0.4585550000000  0.4080990000000  0.4584300000000 1.0
C      1  0.5572840000000  0.4007660000000  0.4842900000000 1.0
C      1  0.4845280000000  0.4014210000000  0.5564310000000 1.0
C      1  0.4581110000000  0.5949860000000  0.4571670000000 1.0
C      1  0.5579770000000  0.5979340000000  0.4848820000000 1.0
C      1  0.4850160000000  0.5980490000000  0.5566460000000 1.0
C      1  0.4667490000000  0.4582490000000  0.5364780000000 1.0
C      1  0.4825730000000  0.4576370000000  0.4619090000000 1.0
C      1  0.5447430000000  0.4442460000000  0.4975590000000 1.0
C      1  0.4782210000000  0.5418920000000  0.5263780000000 1.0
C      1  0.4738800000000  0.5336950000000  0.4570420000000 1.0
C      1  0.5381430000000  0.5512900000000  0.4958220000000 1.0
C      1  0.5648990000000  0.4733440000000  0.4418730000000 1.0
C      1  0.5160260000000  0.4701380000000  0.5813840000000 1.0
C      1  0.4168410000000  0.4691050000000  0.4744740000000 1.0
C      1  0.5620020000000  0.5208050000000  0.4419900000000 1.0
C      1  0.5175850000000  0.5281880000000  0.5797020000000 1.0
C      1  0.4021770000000  0.5250030000000  0.4887020000000 1.0
C      1  0.5396910000000  0.5655470000000  0.5797090000000 1.0
C      1  0.4168070000000  0.5694500000000  0.4935690000000 1.0
C      1  0.5517130000000  0.5681900000000  0.4269120000000 1.0
C      1  0.5428860000000  0.4308680000000  0.5806280000000 1.0
C      1  0.4126390000000  0.4325490000000  0.4975950000000 1.0
C      1  0.5514860000000  0.4301870000000  0.4227170000000 1.0
C      1  0.5249120000000  0.5100300000000  0.5153370000000 1.0
C      1  0.4789170000000  0.5201170000000  0.5014620000000 1.0
C      1  0.5016640000000  0.5120760000000  0.4795580000000 1.0
C      1  0.5079330000000  0.4867930000000  0.5122470000000 1.0
C      1  0.4787790000000  0.4931530000000  0.5115700000000 1.0
C      1  0.5105450000000  0.4869240000000  0.4841310000000 1.0
C      1  0.5311810000000  0.5859710000000  0.4377760000000 1.0
C      1  0.5384100000000  0.5862010000000  0.5588100000000 1.0
C      1  0.4310510000000  0.5926690000000  0.5041320000000 1.0
C      1  0.5316930000000  0.4130700000000  0.4371050000000 1.0
C      1  0.5384950000000  0.4118070000000  0.5574710000000 1.0
C      1  0.4307140000000  0.4111200000000  0.5054060000000 1.0
C      1  0.6043450000000  0.4831720000000  0.4526440000000 1.0
C      1  0.4909790000000  0.4850770000000  0.6077090000000 1.0
C      1  0.4110270000000  0.4860060000000  0.4281750000000 1.0
C      1  0.6052200000000  0.5126340000000  0.4523220000000 1.0
C      1  0.4917520000000  0.5132490000000  0.6055430000000 1.0
C      1  0.4055060000000  0.5134930000000  0.4374790000000 1.0
C      1  0.4591590000000  0.4780040000000  0.4963220000000 1.0
C      1  0.5339200000000  0.4764000000000  0.4729520000000 1.0
C      1  0.5075740000000  0.4689220000000  0.5425430000000 1.0
C      1  0.4468530000000  0.5247970000000  0.4913860000000 1.0
C      1  0.5178930000000  0.5256230000000  0.4591930000000 1.0
C      1  0.5218000000000  0.5264270000000  0.5371210000000 1.0
C      1  0.4900050000000  0.4349640000000  0.4130540000000 1.0
C      1  0.5779710000000  0.4334840000000  0.5357480000000 1.0
C      1  0.4305260000000  0.4325050000000  0.5517170000000 1.0
C      1  0.4866820000000  0.5688610000000  0.4074960000000 1.0
C      1  0.5792530000000  0.5669570000000  0.5339990000000 1.0
C      1  0.4299590000000  0.5690150000000  0.5506730000000 1.0
C      1  0.4401730000000  0.4830600000000  0.4272080000000 1.0
C      1  0.5945670000000  0.4835180000000  0.4807060000000 1.0
C      1  0.4728320000000  0.4810090000000  0.5828190000000 1.0
C      1  0.4272080000000  0.5337120000000  0.4330390000000 1.0
C      1  0.5980070000000  0.5131630000000  0.4811030000000 1.0
C      1  0.4730200000000  0.5176430000000  0.5815850000000 1.0
C      1  0.5205320000000  0.5463290000000  0.4097690000000 1.0
C      1  0.5732610000000  0.5480690000000  0.5603330000000 1.0
C      1  0.4123460000000  0.5509440000000  0.5345850000000 1.0
C      1  0.5226560000000  0.4616790000000  0.4224220000000 1.0
C      1  0.5721300000000  0.4528570000000  0.5586680000000 1.0
C      1  0.4185360000000  0.4580540000000  0.5383150000000 1.0
C      1  0.4003870000000  0.4545610000000  0.5115490000000 1.0
C      1  0.5475910000000  0.4561400000000  0.4094040000000 1.0
C      1  0.5561610000000  0.4563120000000  0.5828940000000 1.0
C      1  0.4013010000000  0.5499790000000  0.5068930000000 1.0
C      1  0.5479500000000  0.5435230000000  0.4103210000000 1.0
C      1  0.5562330000000  0.5424390000000  0.5812990000000 1.0
C      1  0.5662270000000  0.5120660000000  0.5195410000000 1.0
C      1  0.4475390000000  0.5042060000000  0.5448250000000 1.0
C      1  0.4863470000000  0.5160930000000  0.4369430000000 1.0
C      1  0.5654880000000  0.4842670000000  0.5181160000000 1.0
C      1  0.4443010000000  0.4764470000000  0.5363790000000 1.0
C      1  0.4831570000000  0.4849500000000  0.4406180000000 1.0
C      1  0.5116140000000  0.5995010000000  0.4759670000000 1.0
C      1  0.5209090000000  0.5982500000000  0.5199150000000 1.0
C      1  0.4740690000000  0.5951840000000  0.5052580000000 1.0
C      1  0.5064750000000  0.4040720000000  0.4723050000000 1.0
C      1  0.5202070000000  0.4012830000000  0.5181290000000 1.0
C      1  0.4742730000000  0.4062660000000  0.5072900000000 1.0
C      1  0.4617470000000  0.4380150000000  0.4165790000000 1.0
C      1  0.5909550000000  0.4381450000000  0.5097230000000 1.0
C      1  0.4451860000000  0.4387640000000  0.5752590000000 1.0
C      1  0.4590070000000  0.5638350000000  0.4144200000000 1.0
C      1  0.5914860000000  0.5608490000000  0.5078750000000 1.0
C      1  0.4462710000000  0.5614890000000  0.5743360000000 1.0
C      1  0.4236850000000  0.4843920000000  0.5788700000000 1.0
C      1  0.4776620000000  0.4817800000000  0.4114620000000 1.0
C      1  0.5937410000000  0.4811460000000  0.5256760000000 1.0
C      1  0.4288760000000  0.5144170000000  0.5691880000000 1.0
C      1  0.4737190000000  0.5194420000000  0.4105610000000 1.0
C      1  0.5930730000000  0.5187620000000  0.5257270000000 1.0
C      1  0.5290130000000  0.4482780000000  0.4742650000000 1.0
C      1  0.5046840000000  0.4459700000000  0.5239600000000 1.0
C      1  0.4646050000000  0.4509270000000  0.4846250000000 1.0
C      1  0.5256960000000  0.5518830000000  0.4697020000000 1.0
C      1  0.5060990000000  0.5511450000000  0.5331890000000 1.0
C      1  0.4816200000000  0.5550730000000  0.4754570000000 1.0
C      1  0.5356550000000  0.4811410000000  0.4433160000000 1.0
C      1  0.5261260000000  0.4837620000000  0.5589330000000 1.0
C      1  0.4334450000000  0.4851570000000  0.4905510000000 1.0
C      1  0.5338980000000  0.5095840000000  0.4375420000000 1.0
C      1  0.5244400000000  0.5122130000000  0.5594300000000 1.0
C      1  0.4241380000000  0.5086500000000  0.5017790000000 1.0
C      1  0.6000330000000  0.4645760000000  0.5027930000000 1.0
C      1  0.4456410000000  0.4669550000000  0.5847990000000 1.0
C      1  0.4545960000000  0.4656470000000  0.4096430000000 1.0
C      1  0.5992510000000  0.5331610000000  0.5022460000000 1.0
C      1  0.4484230000000  0.5332170000000  0.5835460000000 1.0
C      1  0.4492350000000  0.5362420000000  0.4130820000000 1.0
C      1  0.5964270000000  0.5331750000000  0.5514520000000 1.0
C      1  0.4072520000000  0.5333570000000  0.5567940000000 1.0
C      1  0.4954650000000  0.5391520000000  0.3968830000000 1.0
C      1  0.5958570000000  0.4682170000000  0.5527580000000 1.0
C      1  0.4044550000000  0.4720510000000  0.5614960000000 1.0
C      1  0.4998080000000  0.4652320000000  0.4027230000000 1.0
C      1  0.4392500000000  0.5906380000000  0.5331780000000 1.0
C      1  0.5026590000000  0.5846580000000  0.4266540000000 1.0
C      1  0.5598930000000  0.5875550000000  0.5365040000000 1.0
C      1  0.4385310000000  0.4105940000000  0.5344020000000 1.0
C      1  0.5025110000000  0.4150100000000  0.4291380000000 1.0
C      1  0.5594480000000  0.4110290000000  0.5361630000000 1.0
C      1  0.3999150000000  0.5040930000000  0.5245250000000 1.0
C      1  0.5732650000000  0.5057240000000  0.5809000000000 1.0
C      1  0.5280430000000  0.5042330000000  0.4047160000000 1.0
C      1  0.4996660000000  0.3970180000000  0.4987130000000 1.0
C      1  0.5010950000000  0.6064740000000  0.5004010000000 1.0
END
