TITL C-2441166-8118-513 0.133837641707376 125000 -16671.8790857446 0 0 134 (C1) n - 1
REM
REM in /home/bkarasulu/work/CARBON/AIRSS/Generating-Clusters/ReaxFF-fromJPCA2015/Units_Real/with-SteepDescent/Higher-Symm
REM
REM
REM
REM
REM
REM ./C.cell (1df0a924f5614ab8850e4351716899ee)
REM
REM compiler GCC version 9.2.1 20190827 (Red Hat 9.2.1-1)
REM options -cpp -mtune=generic -march=x86-64 -g -O0 -fpre-include=/usr/include/finclude/math-vector-fortran.h
REM seed -1563939121 138475674 1246005838 -319111772 -281155310 -851360549 1377907668 364684474 -151362133 -47433856 -463791955 -536013394 -1479168810 -338815363 390468706 1534281966 -1959480977 767530584 2003815333 1347739080 -1229237365 1016429465 172392151 1191438261 1755059106 -57115534 1648746116 -257523227 1721655154 1319824515 1886348608 -1683622166 -1384579821
REM
CELL 1.54180   50.00000   50.00000   50.00000   90.00000   90.00000   90.00000
LATT -1
SFAC C  
C      1  0.4823740000000  0.5338650000000  0.4899460000000 1.0
C      1  0.4672530000000  0.4921890000000  0.5788260000000 1.0
C      1  0.5445680000000  0.4584990000000  0.4316710000000 1.0
C      1  0.4935780000000  0.4249760000000  0.4588840000000 1.0
C      1  0.5186140000000  0.4532150000000  0.5043040000000 1.0
C      1  0.4818290000000  0.4766460000000  0.5182170000000 1.0
C      1  0.5276910000000  0.5035000000000  0.5364450000000 1.0
C      1  0.4260020000000  0.5473780000000  0.4700840000000 1.0
C      1  0.4205040000000  0.4999800000000  0.4668010000000 1.0
C      1  0.4911140000000  0.4171670000000  0.5483120000000 1.0
C      1  0.4365110000000  0.4726430000000  0.4223650000000 1.0
C      1  0.4457780000000  0.5418540000000  0.4338210000000 1.0
C      1  0.4725400000000  0.4560040000000  0.4801980000000 1.0
C      1  0.4430860000000  0.4853320000000  0.5659820000000 1.0
C      1  0.5050300000000  0.4693370000000  0.4566630000000 1.0
C      1  0.4867720000000  0.5317260000000  0.4036180000000 1.0
C      1  0.5109050000000  0.5013400000000  0.5896290000000 1.0
C      1  0.4690760000000  0.4138620000000  0.4693020000000 1.0
C      1  0.5980210000000  0.4931360000000  0.5221490000000 1.0
C      1  0.5385550000000  0.5814430000000  0.5376280000000 1.0
C      1  0.4774950000000  0.4659750000000  0.5851970000000 1.0
C      1  0.5828850000000  0.4798260000000  0.4775910000000 1.0
C      1  0.4399770000000  0.5221450000000  0.4711290000000 1.0
C      1  0.5014760000000  0.4353730000000  0.4325970000000 1.0
C      1  0.4995230000000  0.4594290000000  0.4142190000000 1.0
C      1  0.5148720000000  0.5054330000000  0.5096780000000 1.0
C      1  0.5241090000000  0.4811570000000  0.4989930000000 1.0
C      1  0.5490970000000  0.5390480000000  0.5128450000000 1.0
C      1  0.5476890000000  0.5631060000000  0.4958790000000 1.0
C      1  0.5372460000000  0.5336600000000  0.4616630000000 1.0
C      1  0.5848790000000  0.5148020000000  0.5385240000000 1.0
C      1  0.5982260000000  0.4973290000000  0.4938500000000 1.0
C      1  0.4740050000000  0.4533660000000  0.5595540000000 1.0
C      1  0.4299880000000  0.4677040000000  0.5489020000000 1.0
C      1  0.5181660000000  0.5927430000000  0.5209240000000 1.0
C      1  0.5529530000000  0.4846560000000  0.4422310000000 1.0
C      1  0.4674150000000  0.5501500000000  0.4162420000000 1.0
C      1  0.4403780000000  0.4805880000000  0.4994870000000 1.0
C      1  0.4528820000000  0.4376910000000  0.4754940000000 1.0
C      1  0.4243970000000  0.4402280000000  0.5392900000000 1.0
C      1  0.4358380000000  0.4493550000000  0.4563240000000 1.0
C      1  0.5559630000000  0.4804090000000  0.5687240000000 1.0
C      1  0.4361160000000  0.5744250000000  0.5106030000000 1.0
C      1  0.4842420000000  0.5065990000000  0.5532000000000 1.0
C      1  0.5028100000000  0.4479750000000  0.4780030000000 1.0
C      1  0.5300920000000  0.4330200000000  0.4395520000000 1.0
C      1  0.4844420000000  0.5487700000000  0.5798620000000 1.0
C      1  0.5781300000000  0.5184500000000  0.4522770000000 1.0
C      1  0.5327070000000  0.5767760000000  0.4558200000000 1.0
C      1  0.4224660000000  0.5484270000000  0.5009690000000 1.0
C      1  0.5095690000000  0.5458480000000  0.4147040000000 1.0
C      1  0.5149100000000  0.5514630000000  0.4637250000000 1.0
C      1  0.5450870000000  0.4173260000000  0.4960060000000 1.0
C      1  0.5582730000000  0.4967470000000  0.5268850000000 1.0
C      1  0.5421050000000  0.4221990000000  0.4657950000000 1.0
C      1  0.5218570000000  0.4533080000000  0.5740640000000 1.0
C      1  0.4652300000000  0.5200110000000  0.5068180000000 1.0
C      1  0.4184710000000  0.4479980000000  0.5142360000000 1.0
C      1  0.5718630000000  0.5668430000000  0.4799850000000 1.0
C      1  0.4451450000000  0.4219710000000  0.5317490000000 1.0
C      1  0.5090540000000  0.4965070000000  0.4636100000000 1.0
C      1  0.4902740000000  0.5651730000000  0.4280630000000 1.0
C      1  0.5155730000000  0.4257540000000  0.5629100000000 1.0
C      1  0.5199060000000  0.5699560000000  0.5722630000000 1.0
C      1  0.5237420000000  0.5321390000000  0.5486740000000 1.0
C      1  0.4345910000000  0.5489690000000  0.5562290000000 1.0
C      1  0.5328820000000  0.5285070000000  0.4202960000000 1.0
C      1  0.5464450000000  0.5695630000000  0.5629520000000 1.0
C      1  0.5751680000000  0.5026280000000  0.5650280000000 1.0
C      1  0.5301280000000  0.4104320000000  0.5193710000000 1.0
C      1  0.5259260000000  0.4721280000000  0.4132690000000 1.0
C      1  0.5046540000000  0.4730760000000  0.5892060000000 1.0
C      1  0.4547820000000  0.5762930000000  0.4892540000000 1.0
C      1  0.5789150000000  0.4526260000000  0.4837010000000 1.0
C      1  0.4936670000000  0.5703630000000  0.5620100000000 1.0
C      1  0.5440300000000  0.5869210000000  0.5107590000000 1.0
C      1  0.5770230000000  0.5403920000000  0.5221600000000 1.0
C      1  0.4502070000000  0.5124440000000  0.4325390000000 1.0
C      1  0.4552670000000  0.5417960000000  0.5794630000000 1.0
C      1  0.5253890000000  0.5024520000000  0.4121650000000 1.0
C      1  0.4668510000000  0.5347980000000  0.4667620000000 1.0
C      1  0.4757870000000  0.5022090000000  0.5249420000000 1.0
C      1  0.5020900000000  0.5249550000000  0.5717290000000 1.0
C      1  0.5571190000000  0.5113190000000  0.5022640000000 1.0
C      1  0.4677730000000  0.4983880000000  0.4508120000000 1.0
C      1  0.5056520000000  0.4074870000000  0.5036200000000 1.0
C      1  0.5031560000000  0.5879030000000  0.4964420000000 1.0
C      1  0.5472590000000  0.5414140000000  0.5622300000000 1.0
C      1  0.5098250000000  0.5921050000000  0.4675560000000 1.0
C      1  0.4930360000000  0.4283400000000  0.5201810000000 1.0
C      1  0.5389610000000  0.4985820000000  0.5855820000000 1.0
C      1  0.5094140000000  0.5318310000000  0.4989170000000 1.0
C      1  0.4313330000000  0.5003480000000  0.5169590000000 1.0
C      1  0.5359380000000  0.5039420000000  0.4630450000000 1.0
C      1  0.5473040000000  0.4912820000000  0.4856350000000 1.0
C      1  0.5574370000000  0.5378810000000  0.4404580000000 1.0
C      1  0.4080380000000  0.5180690000000  0.5102840000000 1.0
C      1  0.4513850000000  0.5588560000000  0.5330760000000 1.0
C      1  0.4546330000000  0.4531340000000  0.4346290000000 1.0
C      1  0.5771140000000  0.4741870000000  0.5281450000000 1.0
C      1  0.4156600000000  0.4867940000000  0.5355580000000 1.0
C      1  0.5797380000000  0.4900540000000  0.4503040000000 1.0
C      1  0.4594140000000  0.5186940000000  0.5960770000000 1.0
C      1  0.5423830000000  0.4572680000000  0.5546080000000 1.0
C      1  0.4206310000000  0.5259150000000  0.5442080000000 1.0
C      1  0.5731820000000  0.4513810000000  0.5118330000000 1.0
C      1  0.5597900000000  0.4424180000000  0.4661760000000 1.0
C      1  0.4752310000000  0.4705330000000  0.4505150000000 1.0
C      1  0.4819920000000  0.4814940000000  0.4084990000000 1.0
C      1  0.4459330000000  0.5365650000000  0.5148910000000 1.0
C      1  0.4643590000000  0.4265190000000  0.5535610000000 1.0
C      1  0.4667930000000  0.4198350000000  0.5125590000000 1.0
C      1  0.4910830000000  0.5149800000000  0.4502610000000 1.0
C      1  0.4238660000000  0.4754990000000  0.4495810000000 1.0
C      1  0.4502040000000  0.5605720000000  0.4597730000000 1.0
C      1  0.5596400000000  0.5670580000000  0.4533260000000 1.0
C      1  0.4138060000000  0.4679140000000  0.4946250000000 1.0
C      1  0.4782060000000  0.4009260000000  0.4940440000000 1.0
C      1  0.4775510000000  0.5799930000000  0.5065000000000 1.0
C      1  0.5873010000000  0.5472110000000  0.4958620000000 1.0
C      1  0.4032320000000  0.4970180000000  0.4900630000000 1.0
C      1  0.4941830000000  0.4650030000000  0.5411000000000 1.0
C      1  0.4921830000000  0.5705840000000  0.4567070000000 1.0
C      1  0.5363980000000  0.4282490000000  0.5433170000000 1.0
C      1  0.4870640000000  0.5627700000000  0.5325100000000 1.0
C      1  0.5069660000000  0.4882760000000  0.5492070000000 1.0
C      1  0.4551710000000  0.4919940000000  0.4113010000000 1.0
C      1  0.5463600000000  0.4443680000000  0.5057830000000 1.0
C      1  0.5101230000000  0.5463470000000  0.5250050000000 1.0
C      1  0.5875730000000  0.5215440000000  0.4804530000000 1.0
C      1  0.4954950000000  0.5062850000000  0.4163210000000 1.0
C      1  0.5577430000000  0.5207710000000  0.5794620000000 1.0
C      1  0.4384470000000  0.5095060000000  0.5564510000000 1.0
C      1  0.4617980000000  0.4640960000000  0.5039310000000 1.0
END
