TITL C-2441159-1093-1024 0.0190682649259509 125000 -18141.0543360542 0 0 120 (C1) n - 1
REM
REM in /home/bkarasulu/work/CARBON/AIRSS/Generating-Clusters/ReaxFF-fromJPCA2015/Units_Real/with-SteepDescent/Higher-Symm
REM
REM
REM
REM
REM
REM ./C.cell (1df0a924f5614ab8850e4351716899ee)
REM
REM compiler GCC version 9.2.1 20190827 (Red Hat 9.2.1-1)
REM options -cpp -mtune=generic -march=x86-64 -g -O0 -fpre-include=/usr/include/finclude/math-vector-fortran.h
REM seed 1537283131 -1525573986 -1262414916 1962485741 -647757484 541906410 -1303049274 -1263571068 941906981 -99381956 1795121762 63545479 2086746505 1294757462 -1745489666 -33710829 -446076952 -336514999 2142443941 971592713 -364038825 2091800136 2063262103 -1449393560 980119381 1303054341 233416819 335761903 1180500590 969968679 -1614838217 -604493009 -1556059319
REM
CELL 1.54180   50.00000   50.00000   50.00000   90.00000   90.00000   90.00000
LATT -1
SFAC C  
C      1  0.4283950000000  0.5352410000000  0.4737070000000 1.0
C      1  0.4236090000000  0.4861470000000  0.4562860000000 1.0
C      1  0.4286310000000  0.4569870000000  0.5004440000000 1.0
C      1  0.4325060000000  0.4853210000000  0.5467470000000 1.0
C      1  0.4264890000000  0.5354810000000  0.5279420000000 1.0
C      1  0.4271050000000  0.4644980000000  0.4737740000000 1.0
C      1  0.4240510000000  0.5139420000000  0.4562980000000 1.0
C      1  0.4272360000000  0.5425860000000  0.5005760000000 1.0
C      1  0.4305650000000  0.5136950000000  0.5461790000000 1.0
C      1  0.4261650000000  0.4639680000000  0.5287070000000 1.0
C      1  0.5194030000000  0.4130440000000  0.5577390000000 1.0
C      1  0.5172520000000  0.5263770000000  0.6004070000000 1.0
C      1  0.5207830000000  0.6047350000000  0.5057110000000 1.0
C      1  0.5187420000000  0.5371520000000  0.4030270000000 1.0
C      1  0.5194410000000  0.4187020000000  0.4345760000000 1.0
C      1  0.5194370000000  0.5868430000000  0.5579170000000 1.0
C      1  0.5166270000000  0.4736130000000  0.6001180000000 1.0
C      1  0.5197900000000  0.3962200000000  0.5053010000000 1.0
C      1  0.5187240000000  0.4628960000000  0.4030190000000 1.0
C      1  0.5188110000000  0.5809490000000  0.4351560000000 1.0
C      1  0.4740990000000  0.4760450000000  0.5742810000000 1.0
C      1  0.4765260000000  0.5675850000000  0.5468500000000 1.0
C      1  0.4776670000000  0.5613790000000  0.4525030000000 1.0
C      1  0.4773170000000  0.4758270000000  0.4209580000000 1.0
C      1  0.4801200000000  0.4214460000000  0.4997980000000 1.0
C      1  0.4791080000000  0.5262170000000  0.5744330000000 1.0
C      1  0.4769540000000  0.4328700000000  0.5483330000000 1.0
C      1  0.4799390000000  0.4375930000000  0.4529360000000 1.0
C      1  0.4776980000000  0.5236400000000  0.4209550000000 1.0
C      1  0.4807580000000  0.5789590000000  0.4993230000000 1.0
C      1  0.5733750000000  0.5477620000000  0.4994050000000 1.0
C      1  0.5740160000000  0.5149380000000  0.4537530000000 1.0
C      1  0.5740550000000  0.4608030000000  0.4711250000000 1.0
C      1  0.5608910000000  0.4662620000000  0.5240700000000 1.0
C      1  0.5732180000000  0.5141270000000  0.5483390000000 1.0
C      1  0.5733850000000  0.4520850000000  0.4994310000000 1.0
C      1  0.5740910000000  0.4849570000000  0.4537040000000 1.0
C      1  0.5740430000000  0.5391390000000  0.4710940000000 1.0
C      1  0.5609680000000  0.5334900000000  0.5239780000000 1.0
C      1  0.5732270000000  0.4857500000000  0.5483850000000 1.0
C      1  0.5152740000000  0.4854640000000  0.5393570000000 1.0
C      1  0.5312730000000  0.5280120000000  0.5190660000000 1.0
C      1  0.5155680000000  0.5369710000000  0.4732180000000 1.0
C      1  0.5270730000000  0.4887520000000  0.4687780000000 1.0
C      1  0.5159980000000  0.4558530000000  0.5006320000000 1.0
C      1  0.5157900000000  0.5145810000000  0.5394210000000 1.0
C      1  0.5311090000000  0.4715540000000  0.5191640000000 1.0
C      1  0.5167950000000  0.4629330000000  0.4724260000000 1.0
C      1  0.5264340000000  0.5118490000000  0.4691100000000 1.0
C      1  0.5161240000000  0.5434510000000  0.5003160000000 1.0
C      1  0.4824830000000  0.5140620000000  0.4481100000000 1.0
C      1  0.4878410000000  0.4619590000000  0.4653230000000 1.0
C      1  0.4810670000000  0.4552680000000  0.5317010000000 1.0
C      1  0.4884840000000  0.5220890000000  0.5471500000000 1.0
C      1  0.4888690000000  0.5507160000000  0.5043770000000 1.0
C      1  0.4822690000000  0.4853880000000  0.4480870000000 1.0
C      1  0.4868460000000  0.5376280000000  0.4657410000000 1.0
C      1  0.4813510000000  0.5449520000000  0.5313310000000 1.0
C      1  0.4879840000000  0.4785150000000  0.5458050000000 1.0
C      1  0.4875050000000  0.4483270000000  0.5040780000000 1.0
C      1  0.4328630000000  0.5626660000000  0.5358620000000 1.0
C      1  0.4373830000000  0.5522140000000  0.4525440000000 1.0
C      1  0.4325880000000  0.4704880000000  0.4338440000000 1.0
C      1  0.4358580000000  0.4302790000000  0.5065860000000 1.0
C      1  0.4441050000000  0.4811570000000  0.5716750000000 1.0
C      1  0.4342990000000  0.4366020000000  0.5354770000000 1.0
C      1  0.4349580000000  0.4472920000000  0.4519270000000 1.0
C      1  0.4336410000000  0.5295790000000  0.4338460000000 1.0
C      1  0.4339170000000  0.5702750000000  0.5071620000000 1.0
C      1  0.4400480000000  0.5201780000000  0.5723620000000 1.0
C      1  0.5408060000000  0.5384090000000  0.4227740000000 1.0
C      1  0.5414780000000  0.4378200000000  0.4394360000000 1.0
C      1  0.5413940000000  0.4236830000000  0.5408530000000 1.0
C      1  0.5396240000000  0.5141790000000  0.5853770000000 1.0
C      1  0.5419830000000  0.5855440000000  0.5132270000000 1.0
C      1  0.5409100000000  0.4615290000000  0.4226540000000 1.0
C      1  0.5410860000000  0.5620440000000  0.4396840000000 1.0
C      1  0.5413640000000  0.5762410000000  0.5409680000000 1.0
C      1  0.5395580000000  0.4856110000000  0.5853790000000 1.0
C      1  0.5415310000000  0.4145700000000  0.5130440000000 1.0
C      1  0.5180240000000  0.3997600000000  0.4553240000000 1.0
C      1  0.5172480000000  0.4269850000000  0.5821500000000 1.0
C      1  0.5164660000000  0.5541570000000  0.5956220000000 1.0
C      1  0.5184750000000  0.6075350000000  0.4775530000000 1.0
C      1  0.5177860000000  0.5115310000000  0.3909410000000 1.0
C      1  0.5176730000000  0.6000630000000  0.4557410000000 1.0
C      1  0.5172220000000  0.5728600000000  0.5821180000000 1.0
C      1  0.5162470000000  0.4455640000000  0.5957770000000 1.0
C      1  0.5182570000000  0.3926980000000  0.4773110000000 1.0
C      1  0.5177710000000  0.4885210000000  0.3909550000000 1.0
C      1  0.4924980000000  0.5678160000000  0.4293900000000 1.0
C      1  0.4933250000000  0.4541830000000  0.4121970000000 1.0
C      1  0.4931220000000  0.4030020000000  0.5163870000000 1.0
C      1  0.4908560000000  0.4867170000000  0.5969400000000 1.0
C      1  0.4936510000000  0.5891010000000  0.5441370000000 1.0
C      1  0.4933670000000  0.4321280000000  0.4291820000000 1.0
C      1  0.4932790000000  0.5455900000000  0.4121860000000 1.0
C      1  0.4944350000000  0.5978180000000  0.5168680000000 1.0
C      1  0.4917220000000  0.5139470000000  0.5966690000000 1.0
C      1  0.4934270000000  0.4111050000000  0.5438550000000 1.0
C      1  0.5575360000000  0.5153040000000  0.4295590000000 1.0
C      1  0.5583290000000  0.4371180000000  0.4635640000000 1.0
C      1  0.5563830000000  0.4474500000000  0.5482310000000 1.0
C      1  0.5576150000000  0.5296620000000  0.5671230000000 1.0
C      1  0.5585390000000  0.5719410000000  0.4929850000000 1.0
C      1  0.5576260000000  0.4846190000000  0.4294800000000 1.0
C      1  0.5582420000000  0.5627950000000  0.4635910000000 1.0
C      1  0.5562060000000  0.5523620000000  0.5481790000000 1.0
C      1  0.5576220000000  0.4702010000000  0.5671480000000 1.0
C      1  0.5584490000000  0.4280100000000  0.4929410000000 1.0
C      1  0.4506490000000  0.5144320000000  0.4153270000000 1.0
C      1  0.4552090000000  0.4277740000000  0.4602710000000 1.0
C      1  0.4516100000000  0.4335480000000  0.5588720000000 1.0
C      1  0.4536610000000  0.5442150000000  0.5770870000000 1.0
C      1  0.4537470000000  0.5820150000000  0.4890800000000 1.0
C      1  0.4502210000000  0.4851010000000  0.4155060000000 1.0
C      1  0.4546080000000  0.5739460000000  0.4608300000000 1.0
C      1  0.4511040000000  0.5666430000000  0.5582510000000 1.0
C      1  0.4519980000000  0.4553110000000  0.5774420000000 1.0
C      1  0.4550460000000  0.4185180000000  0.4880780000000 1.0
END
