TITL C-2441167-4473-395 0.000861090758503243 125000 -17113.0695949367 0 0 114 (C1) n - 1
REM
REM in /home/bkarasulu/work/CARBON/AIRSS/Generating-Clusters/ReaxFF-fromJPCA2015/Units_Real/with-SteepDescent/Higher-Symm
REM
REM
REM
REM
REM
REM ./C.cell (1df0a924f5614ab8850e4351716899ee)
REM
REM compiler GCC version 9.2.1 20190827 (Red Hat 9.2.1-1)
REM options -cpp -mtune=generic -march=x86-64 -g -O0 -fpre-include=/usr/include/finclude/math-vector-fortran.h
REM seed -1139399910 -1781964356 -1853322892 -645703472 1481181010 61221358 -20261804 1766824970 -46950483 -1743600378 -686737436 1630619334 929453006 268108155 -91135030 -508523953 63151234 1848927908 1159515123 1174437859 1609890717 2108081151 -1580131582 -2130922568 -944931851 -1728363774 1652132981 -115611080 1580840139 -591788106 -1623391862 825213343 1098094683
REM
CELL 1.54180   50.00000   50.00000   50.00000   90.00000   90.00000   90.00000
LATT -1
SFAC C  
C      1  0.4702820000000  0.5721240000000  0.5062830000000 1.0
C      1  0.4571620000000  0.4362980000000  0.5301630000000 1.0
C      1  0.5723990000000  0.4942950000000  0.5271390000000 1.0
C      1  0.4795500000000  0.5592450000000  0.4811310000000 1.0
C      1  0.4619530000000  0.4434340000000  0.4734330000000 1.0
C      1  0.5712560000000  0.4955830000000  0.4720750000000 1.0
C      1  0.4942220000000  0.4242870000000  0.4396630000000 1.0
C      1  0.5776350000000  0.5275580000000  0.4438460000000 1.0
C      1  0.4473900000000  0.5773510000000  0.4505390000000 1.0
C      1  0.4958480000000  0.4205710000000  0.5580970000000 1.0
C      1  0.5768280000000  0.5270810000000  0.5558440000000 1.0
C      1  0.4359640000000  0.5594750000000  0.5487760000000 1.0
C      1  0.4284860000000  0.4945880000000  0.5697450000000 1.0
C      1  0.5433030000000  0.4445310000000  0.5515510000000 1.0
C      1  0.5238890000000  0.5567730000000  0.5544200000000 1.0
C      1  0.4256370000000  0.4870700000000  0.4341080000000 1.0
C      1  0.5423400000000  0.4459300000000  0.4479850000000 1.0
C      1  0.5320510000000  0.5609760000000  0.4411240000000 1.0
C      1  0.4852420000000  0.4626800000000  0.4736480000000 1.0
C      1  0.5423310000000  0.5062980000000  0.4703970000000 1.0
C      1  0.4787610000000  0.5297500000000  0.4750120000000 1.0
C      1  0.4814600000000  0.4505820000000  0.5256460000000 1.0
C      1  0.5438750000000  0.5044190000000  0.5298440000000 1.0
C      1  0.4743890000000  0.5306130000000  0.5310300000000 1.0
C      1  0.4577070000000  0.4625750000000  0.4233180000000 1.0
C      1  0.5527690000000  0.4867010000000  0.4234280000000 1.0
C      1  0.4842900000000  0.5581050000000  0.4212700000000 1.0
C      1  0.4606760000000  0.4600050000000  0.5777220000000 1.0
C      1  0.5541190000000  0.4857390000000  0.5769570000000 1.0
C      1  0.4781730000000  0.5592960000000  0.5751610000000 1.0
C      1  0.5910560000000  0.5341070000000  0.5324150000000 1.0
C      1  0.4248330000000  0.5641150000000  0.5234390000000 1.0
C      1  0.4885370000000  0.4072590000000  0.5321000000000 1.0
C      1  0.5911170000000  0.5348360000000  0.4680790000000 1.0
C      1  0.4218900000000  0.5477090000000  0.4621170000000 1.0
C      1  0.4872840000000  0.4095200000000  0.4651360000000 1.0
C      1  0.5610430000000  0.5155390000000  0.5741590000000 1.0
C      1  0.4487980000000  0.5511850000000  0.5711080000000 1.0
C      1  0.4839520000000  0.4411410000000  0.5759810000000 1.0
C      1  0.5622350000000  0.5157550000000  0.4244950000000 1.0
C      1  0.4549970000000  0.5604550000000  0.4296580000000 1.0
C      1  0.4825390000000  0.4456840000000  0.4231500000000 1.0
C      1  0.5253520000000  0.4785380000000  0.5776290000000 1.0
C      1  0.4907240000000  0.5344390000000  0.5839420000000 1.0
C      1  0.4726310000000  0.4860320000000  0.5801940000000 1.0
C      1  0.5241120000000  0.4821970000000  0.4227100000000 1.0
C      1  0.4916200000000  0.5300190000000  0.4191300000000 1.0
C      1  0.4656770000000  0.4900590000000  0.4280200000000 1.0
C      1  0.4216300000000  0.5297660000000  0.4850480000000 1.0
C      1  0.5092250000000  0.4128310000000  0.4838270000000 1.0
C      1  0.5730370000000  0.5488510000000  0.4865980000000 1.0
C      1  0.4219760000000  0.5364980000000  0.5129690000000 1.0
C      1  0.5098180000000  0.4096770000000  0.5124130000000 1.0
C      1  0.5725780000000  0.5490940000000  0.5149670000000 1.0
C      1  0.4812320000000  0.5208310000000  0.5578900000000 1.0
C      1  0.4899950000000  0.4923660000000  0.5536000000000 1.0
C      1  0.5202790000000  0.4933300000000  0.5536800000000 1.0
C      1  0.4921800000000  0.5163140000000  0.4470980000000 1.0
C      1  0.4874660000000  0.4865400000000  0.4484540000000 1.0
C      1  0.5163690000000  0.4979750000000  0.4465210000000 1.0
C      1  0.5094210000000  0.4400640000000  0.5141240000000 1.0
C      1  0.5460490000000  0.5349450000000  0.5147540000000 1.0
C      1  0.4474250000000  0.5209460000000  0.5176740000000 1.0
C      1  0.5099730000000  0.4430500000000  0.4842800000000 1.0
C      1  0.5455250000000  0.5369800000000  0.4837450000000 1.0
C      1  0.4493880000000  0.5183710000000  0.4864100000000 1.0
C      1  0.5225290000000  0.5495020000000  0.5247160000000 1.0
C      1  0.4470050000000  0.4902870000000  0.5192540000000 1.0
C      1  0.5355310000000  0.4525330000000  0.5245270000000 1.0
C      1  0.5358920000000  0.5616780000000  0.4695730000000 1.0
C      1  0.4503150000000  0.4899920000000  0.4893630000000 1.0
C      1  0.5354200000000  0.4548280000000  0.4750480000000 1.0
C      1  0.5042630000000  0.5707010000000  0.4386610000000 1.0
C      1  0.4316960000000  0.4596230000000  0.4379930000000 1.0
C      1  0.5630620000000  0.4640240000000  0.4392480000000 1.0
C      1  0.4973550000000  0.5689700000000  0.5549170000000 1.0
C      1  0.4361910000000  0.4667170000000  0.5623270000000 1.0
C      1  0.5634810000000  0.4632600000000  0.5601130000000 1.0
C      1  0.4420410000000  0.5770790000000  0.5024130000000 1.0
C      1  0.4649840000000  0.4126660000000  0.5143850000000 1.0
C      1  0.5934910000000  0.5100390000000  0.5145710000000 1.0
C      1  0.4328390000000  0.5741510000000  0.4741170000000 1.0
C      1  0.4660840000000  0.4166140000000  0.4847020000000 1.0
C      1  0.5929740000000  0.5103190000000  0.4853490000000 1.0
C      1  0.4970320000000  0.5127260000000  0.4920230000000 1.0
C      1  0.4829250000000  0.4850410000000  0.4938950000000 1.0
C      1  0.5276190000000  0.4866850000000  0.4860620000000 1.0
C      1  0.4983590000000  0.5289470000000  0.5160190000000 1.0
C      1  0.4768900000000  0.4791450000000  0.5247890000000 1.0
C      1  0.5299000000000  0.4839920000000  0.5144800000000 1.0
C      1  0.5186070000000  0.5339330000000  0.5871710000000 1.0
C      1  0.4501830000000  0.5039350000000  0.5867220000000 1.0
C      1  0.5111000000000  0.4514480000000  0.5823340000000 1.0
C      1  0.5180180000000  0.5354730000000  0.4114570000000 1.0
C      1  0.4415140000000  0.5088920000000  0.4313140000000 1.0
C      1  0.5100000000000  0.4562920000000  0.4171360000000 1.0
C      1  0.4962790000000  0.5775660000000  0.4659570000000 1.0
C      1  0.4341610000000  0.4510330000000  0.4664280000000 1.0
C      1  0.5756270000000  0.4673510000000  0.4657800000000 1.0
C      1  0.4908340000000  0.5795240000000  0.5273570000000 1.0
C      1  0.4324460000000  0.4524390000000  0.5371680000000 1.0
C      1  0.5763460000000  0.4663380000000  0.5338010000000 1.0
C      1  0.5627500000000  0.4500080000000  0.5138160000000 1.0
C      1  0.5152600000000  0.5774510000000  0.5127360000000 1.0
C      1  0.4246400000000  0.4701280000000  0.5156650000000 1.0
C      1  0.5625330000000  0.4507880000000  0.4857460000000 1.0
C      1  0.5194750000000  0.5805790000000  0.4841460000000 1.0
C      1  0.4271880000000  0.4701110000000  0.4869090000000 1.0
C      1  0.5413790000000  0.5404000000000  0.5741050000000 1.0
C      1  0.4355950000000  0.5235710000000  0.5701420000000 1.0
C      1  0.5233580000000  0.4299170000000  0.5669710000000 1.0
C      1  0.5436720000000  0.5402700000000  0.4212600000000 1.0
C      1  0.4373880000000  0.5385410000000  0.4388180000000 1.0
C      1  0.5218160000000  0.4335440000000  0.4316460000000 1.0
END
