TITL C-2441166-8118-549 0.00361416770533069 125000 -10624.8125384596 0 0 74 (C1) n - 1
REM
REM in /home/bkarasulu/work/CARBON/AIRSS/Generating-Clusters/ReaxFF-fromJPCA2015/Units_Real/with-SteepDescent/Higher-Symm
REM
REM
REM
REM
REM
REM ./C.cell (1df0a924f5614ab8850e4351716899ee)
REM
REM compiler GCC version 9.2.1 20190827 (Red Hat 9.2.1-1)
REM options -cpp -mtune=generic -march=x86-64 -g -O0 -fpre-include=/usr/include/finclude/math-vector-fortran.h
REM seed 1235796075 1358616920 -1889894894 -422369430 -1408343830 -1350695365 -31022322 1290836327 1932408368 -626569361 611859690 -531520894 -1429635280 -328920877 -1795046429 30306313 807649592 -521913597 1702023148 340902384 1138395464 -855451705 -440136067 -913378798 -138286821 2090391179 -934544637 -231941769 -1616673252 -1615831984 -378375603 -704266857 1535524270
REM
CELL 1.54180   50.00000   50.00000   50.00000   90.00000   90.00000   90.00000
LATT -1
SFAC C  
C      1  0.4432710000000  0.4530000000000  0.5143420000000 1.0
C      1  0.4324070000000  0.5256930000000  0.5184120000000 1.0
C      1  0.4887390000000  0.5640380000000  0.5151590000000 1.0
C      1  0.5554380000000  0.5488010000000  0.5168580000000 1.0
C      1  0.5688270000000  0.4768630000000  0.5166210000000 1.0
C      1  0.5126520000000  0.4298710000000  0.5150650000000 1.0
C      1  0.4502860000000  0.4585110000000  0.4834660000000 1.0
C      1  0.4387170000000  0.5205690000000  0.4848110000000 1.0
C      1  0.4888620000000  0.5736520000000  0.4849090000000 1.0
C      1  0.5566840000000  0.5494360000000  0.4860520000000 1.0
C      1  0.5630640000000  0.4780580000000  0.4856900000000 1.0
C      1  0.5096970000000  0.4348730000000  0.4863490000000 1.0
C      1  0.4273670000000  0.5004800000000  0.4641840000000 1.0
C      1  0.4681440000000  0.5641540000000  0.4649510000000 1.0
C      1  0.5369430000000  0.5613960000000  0.4661210000000 1.0
C      1  0.5680600000000  0.5012160000000  0.4656680000000 1.0
C      1  0.5316600000000  0.4369580000000  0.4660950000000 1.0
C      1  0.4633010000000  0.4401570000000  0.4655170000000 1.0
C      1  0.4307670000000  0.5023860000000  0.5372130000000 1.0
C      1  0.4678980000000  0.5648580000000  0.5361360000000 1.0
C      1  0.5347660000000  0.5604000000000  0.5359180000000 1.0
C      1  0.5699850000000  0.5001520000000  0.5355910000000 1.0
C      1  0.5323880000000  0.4404880000000  0.5346130000000 1.0
C      1  0.4607080000000  0.4421640000000  0.5345190000000 1.0
C      1  0.4683550000000  0.5054600000000  0.4802350000000 1.0
C      1  0.4923010000000  0.5204830000000  0.4762520000000 1.0
C      1  0.5197510000000  0.5105500000000  0.4757030000000 1.0
C      1  0.5259090000000  0.4834950000000  0.4819960000000 1.0
C      1  0.5029880000000  0.4683820000000  0.4824550000000 1.0
C      1  0.4750110000000  0.4786210000000  0.4818250000000 1.0
C      1  0.4688910000000  0.5146950000000  0.5232450000000 1.0
C      1  0.4909460000000  0.5317990000000  0.5174780000000 1.0
C      1  0.5145200000000  0.5160760000000  0.5226540000000 1.0
C      1  0.5166220000000  0.4868690000000  0.5260130000000 1.0
C      1  0.4927800000000  0.4693480000000  0.5237100000000 1.0
C      1  0.4747540000000  0.4889330000000  0.5241580000000 1.0
C      1  0.4345560000000  0.4768880000000  0.4738430000000 1.0
C      1  0.4519650000000  0.5440210000000  0.4747660000000 1.0
C      1  0.5126620000000  0.5676110000000  0.4756320000000 1.0
C      1  0.5632120000000  0.5252310000000  0.4765050000000 1.0
C      1  0.5519060000000  0.4535750000000  0.4751220000000 1.0
C      1  0.4864410000000  0.4316720000000  0.4758120000000 1.0
C      1  0.4348530000000  0.4763070000000  0.5273620000000 1.0
C      1  0.4464380000000  0.5487700000000  0.5277080000000 1.0
C      1  0.5093960000000  0.5673750000000  0.5281920000000 1.0
C      1  0.5631180000000  0.5244620000000  0.5258960000000 1.0
C      1  0.5517310000000  0.4577170000000  0.5252700000000 1.0
C      1  0.4885310000000  0.4390950000000  0.5275430000000 1.0
C      1  0.5324190000000  0.5469490000000  0.4390510000000 1.0
C      1  0.5541180000000  0.4957710000000  0.4378880000000 1.0
C      1  0.5222910000000  0.4505170000000  0.4385930000000 1.0
C      1  0.4693590000000  0.4569100000000  0.4394210000000 1.0
C      1  0.4440310000000  0.5051980000000  0.4383610000000 1.0
C      1  0.4772770000000  0.5497170000000  0.4387860000000 1.0
C      1  0.5313290000000  0.5456390000000  0.5623510000000 1.0
C      1  0.5553420000000  0.4947310000000  0.5624980000000 1.0
C      1  0.5211050000000  0.4503850000000  0.5632170000000 1.0
C      1  0.4664930000000  0.4565540000000  0.5628340000000 1.0
C      1  0.4474870000000  0.5058790000000  0.5646260000000 1.0
C      1  0.4770170000000  0.5510700000000  0.5635740000000 1.0
C      1  0.4965820000000  0.4618700000000  0.4334750000000 1.0
C      1  0.4623060000000  0.4840930000000  0.4343100000000 1.0
C      1  0.4644200000000  0.5254280000000  0.4344080000000 1.0
C      1  0.5044200000000  0.5370290000000  0.4340330000000 1.0
C      1  0.5431520000000  0.5217160000000  0.4354110000000 1.0
C      1  0.5349050000000  0.4749620000000  0.4348150000000 1.0
C      1  0.4937740000000  0.4570110000000  0.5679640000000 1.0
C      1  0.4639680000000  0.4839170000000  0.5702890000000 1.0
C      1  0.4677270000000  0.5249560000000  0.5692950000000 1.0
C      1  0.5039900000000  0.5441950000000  0.5683780000000 1.0
C      1  0.5354050000000  0.5162460000000  0.5678400000000 1.0
C      1  0.5416230000000  0.4696840000000  0.5641730000000 1.0
C      1  0.5046890000000  0.5160640000000  0.4530320000000 1.0
C      1  0.5155730000000  0.5040700000000  0.5501190000000 1.0
END
