TITL C-2441162-9305-628 0.0232836592255919 125000 -11412.6817215923 0 0 82 (C1) n - 1
REM
REM in /home/bkarasulu/work/CARBON/AIRSS/Generating-Clusters/ReaxFF-fromJPCA2015/Units_Real/with-SteepDescent/Higher-Symm
REM
REM
REM
REM
REM
REM ./C.cell (1df0a924f5614ab8850e4351716899ee)
REM
REM compiler GCC version 9.2.1 20190827 (Red Hat 9.2.1-1)
REM options -cpp -mtune=generic -march=x86-64 -g -O0 -fpre-include=/usr/include/finclude/math-vector-fortran.h
REM seed 1540106076 -1645484601 -1464918262 969703492 -544554421 77631427 -2070220571 784527582 763192529 -458171609 -2089403181 -749952193 1010233984 -1695387084 1007376266 1348836652 239713932 -2038522679 1361095625 -1291189290 -1721431342 134629463 -178204311 -709671433 459118955 -994134528 -450776218 -551974467 -1719148509 1785347369 280653778 -1014229155 -826212292
REM
CELL 1.54180   50.00000   50.00000   50.00000   90.00000   90.00000   90.00000
LATT -1
SFAC C  
C      1  0.5264100000000  0.4991690000000  0.4274580000000 1.0
C      1  0.5456020000000  0.5595150000000  0.4589780000000 1.0
C      1  0.5106950000000  0.4810650000000  0.5199810000000 1.0
C      1  0.4829180000000  0.4790090000000  0.4747830000000 1.0
C      1  0.4982560000000  0.5191800000000  0.5005040000000 1.0
C      1  0.4308450000000  0.4588780000000  0.5101450000000 1.0
C      1  0.5012370000000  0.5856050000000  0.4691940000000 1.0
C      1  0.4793920000000  0.5199000000000  0.5250310000000 1.0
C      1  0.5641610000000  0.4514110000000  0.5189770000000 1.0
C      1  0.5251980000000  0.4718110000000  0.4962630000000 1.0
C      1  0.4744030000000  0.5632040000000  0.4924650000000 1.0
C      1  0.5108340000000  0.4758860000000  0.5509720000000 1.0
C      1  0.4246590000000  0.5182120000000  0.4664730000000 1.0
C      1  0.5382190000000  0.4896380000000  0.5510190000000 1.0
C      1  0.5810940000000  0.5011620000000  0.5103320000000 1.0
C      1  0.4353490000000  0.5233320000000  0.5324320000000 1.0
C      1  0.4909500000000  0.4616810000000  0.4452620000000 1.0
C      1  0.5124640000000  0.5248470000000  0.5682940000000 1.0
C      1  0.4835710000000  0.5221940000000  0.4385880000000 1.0
C      1  0.5294620000000  0.4381670000000  0.4686080000000 1.0
C      1  0.5172030000000  0.5902220000000  0.4959660000000 1.0
C      1  0.5138750000000  0.5780050000000  0.5220190000000 1.0
C      1  0.4933700000000  0.5063440000000  0.5541440000000 1.0
C      1  0.5616720000000  0.5626600000000  0.4835610000000 1.0
C      1  0.4437300000000  0.5077840000000  0.5539900000000 1.0
C      1  0.4514360000000  0.4857790000000  0.4370810000000 1.0
C      1  0.5396820000000  0.5184270000000  0.4847570000000 1.0
C      1  0.4713860000000  0.4418860000000  0.5116850000000 1.0
C      1  0.4273780000000  0.4640980000000  0.4784390000000 1.0
C      1  0.5646490000000  0.5193330000000  0.4680410000000 1.0
C      1  0.5328000000000  0.4996580000000  0.5248810000000 1.0
C      1  0.5007030000000  0.4989750000000  0.4803850000000 1.0
C      1  0.5741320000000  0.5264820000000  0.5185890000000 1.0
C      1  0.5601760000000  0.4892620000000  0.4655910000000 1.0
C      1  0.5312870000000  0.5500870000000  0.5288650000000 1.0
C      1  0.4458300000000  0.5543180000000  0.4969790000000 1.0
C      1  0.4444690000000  0.4873030000000  0.5732980000000 1.0
C      1  0.4549400000000  0.4802600000000  0.5462640000000 1.0
C      1  0.4738630000000  0.5826830000000  0.4731820000000 1.0
C      1  0.5034030000000  0.4119850000000  0.5007820000000 1.0
C      1  0.4685850000000  0.4754870000000  0.5866980000000 1.0
C      1  0.5404870000000  0.4804400000000  0.4452380000000 1.0
C      1  0.4482690000000  0.4402820000000  0.5289780000000 1.0
C      1  0.5318200000000  0.5275880000000  0.4290580000000 1.0
C      1  0.5245800000000  0.4332760000000  0.5466520000000 1.0
C      1  0.5443160000000  0.4909380000000  0.4884050000000 1.0
C      1  0.5050000000000  0.4497220000000  0.5626060000000 1.0
C      1  0.4679070000000  0.4438330000000  0.4521680000000 1.0
C      1  0.4789280000000  0.4692210000000  0.5036530000000 1.0
C      1  0.4762830000000  0.4192740000000  0.4974450000000 1.0
C      1  0.4546300000000  0.4498110000000  0.5555620000000 1.0
C      1  0.5465730000000  0.5861830000000  0.4959500000000 1.0
C      1  0.4442770000000  0.5279900000000  0.4860490000000 1.0
C      1  0.5527800000000  0.5328480000000  0.5395910000000 1.0
C      1  0.4787000000000  0.4232220000000  0.4694490000000 1.0
C      1  0.4524050000000  0.5108480000000  0.5123690000000 1.0
C      1  0.4541350000000  0.4814990000000  0.5160010000000 1.0
C      1  0.4782820000000  0.4802630000000  0.4256270000000 1.0
C      1  0.4219070000000  0.4907450000000  0.4746130000000 1.0
C      1  0.5080550000000  0.4191240000000  0.4724190000000 1.0
C      1  0.5751690000000  0.5377240000000  0.4921420000000 1.0
C      1  0.5142790000000  0.5594410000000  0.4582380000000 1.0
C      1  0.5774020000000  0.4755920000000  0.5136320000000 1.0
C      1  0.5061920000000  0.5405610000000  0.4362490000000 1.0
C      1  0.4830890000000  0.4988770000000  0.5797260000000 1.0
C      1  0.5408880000000  0.5170060000000  0.5615490000000 1.0
C      1  0.4445460000000  0.5122670000000  0.4459410000000 1.0
C      1  0.4985790000000  0.5458830000000  0.4850960000000 1.0
C      1  0.4719390000000  0.5470770000000  0.5329380000000 1.0
C      1  0.5545000000000  0.5370510000000  0.4446120000000 1.0
C      1  0.4778910000000  0.4493320000000  0.5727510000000 1.0
C      1  0.5380240000000  0.4445980000000  0.4985290000000 1.0
C      1  0.5126440000000  0.5495440000000  0.5528680000000 1.0
C      1  0.4971220000000  0.5017710000000  0.4214180000000 1.0
C      1  0.4788740000000  0.5073560000000  0.4643070000000 1.0
C      1  0.4438450000000  0.5503910000000  0.5259800000000 1.0
C      1  0.5221500000000  0.4268550000000  0.5172910000000 1.0
C      1  0.4930190000000  0.5664900000000  0.5391150000000 1.0
C      1  0.4449730000000  0.4613920000000  0.4544200000000 1.0
C      1  0.5499070000000  0.4442460000000  0.5412880000000 1.0
C      1  0.5226290000000  0.5364710000000  0.4996930000000 1.0
C      1  0.5227180000000  0.4580640000000  0.4494270000000 1.0
END
