TITL C-2441154-10-163 2.88945100335341e-07 125000 -6098.15837590503 0 0 41 (D3) n - 1
REM
REM in /home/bkarasulu/work/CARBON/AIRSS/Generating-Clusters/ReaxFF-fromJPCA2015/Units_Real/with-SteepDescent/Higher-Symm
REM
REM
REM
REM
REM
REM ./C.cell (1df0a924f5614ab8850e4351716899ee)
REM
REM compiler GCC version 9.2.1 20190827 (Red Hat 9.2.1-1)
REM options -cpp -mtune=generic -march=x86-64 -g -O0 -fpre-include=/usr/include/finclude/math-vector-fortran.h
REM seed -1484546935 -281780524 -109050758 1175871935 -588595661 1935217316 1081936751 -1736139620 -1995136757 2000568938 -135919318 -594514902 -1813390598 1889387347 811162942 -2141323393 -1885760017 -132904546 1636449383 -433083960 -819739591 -962962450 -825787837 -1030341044 207536137 -1896465932 749391219 1277787897 -1121846704 2102967339 -322211244 106797536 325766969
REM
CELL 1.54180   50.00000   50.00000   50.00000   90.00000   90.00000   90.00000
LATT -1
SFAC C  
C      1  0.4715220000000  0.4611370000000  0.4990990000000 1.0
C      1  0.5134680000000  0.4611550000000  0.5251080000000 1.0
C      1  0.5150170000000  0.4611500000000  0.4757760000000 1.0
C      1  0.4715430000000  0.5374760000000  0.5008940000000 1.0
C      1  0.5134850000000  0.5374950000000  0.4748770000000 1.0
C      1  0.5150480000000  0.5374890000000  0.5242080000000 1.0
C      1  0.5528140000000  0.5036820000000  0.5371260000000 1.0
C      1  0.5057600000000  0.5036890000000  0.4357220000000 1.0
C      1  0.4413540000000  0.5037290000000  0.5272640000000 1.0
C      1  0.5529500000000  0.4948930000000  0.4628320000000 1.0
C      1  0.5057400000000  0.4949030000000  0.5644370000000 1.0
C      1  0.4414670000000  0.4949430000000  0.4728410000000 1.0
C      1  0.4581530000000  0.4580770000000  0.5241110000000 1.0
C      1  0.5418000000000  0.4580080000000  0.5241860000000 1.0
C      1  0.5000680000000  0.4580120000000  0.4516940000000 1.0
C      1  0.4581570000000  0.5406190000000  0.4759110000000 1.0
C      1  0.5418290000000  0.5405480000000  0.4757830000000 1.0
C      1  0.5000770000000  0.5405540000000  0.5482940000000 1.0
C      1  0.5619530000000  0.4776500000000  0.5250620000000 1.0
C      1  0.4907490000000  0.4776560000000  0.4338190000000 1.0
C      1  0.4473200000000  0.4776930000000  0.5411810000000 1.0
C      1  0.5620210000000  0.5209360000000  0.4749400000000 1.0
C      1  0.4907110000000  0.5209450000000  0.5662190000000 1.0
C      1  0.4473290000000  0.5209800000000  0.4589000000000 1.0
C      1  0.4732650000000  0.5347080000000  0.5492130000000 1.0
C      1  0.5560510000000  0.5347350000000  0.4985520000000 1.0
C      1  0.4707570000000  0.5347690000000  0.4522080000000 1.0
C      1  0.4732410000000  0.4638640000000  0.4507620000000 1.0
C      1  0.5560010000000  0.4638920000000  0.5014290000000 1.0
C      1  0.4707680000000  0.4639250000000  0.5477870000000 1.0
C      1  0.4593910000000  0.4710130000000  0.4745670000000 1.0
C      1  0.4983310000000  0.4711040000000  0.5478720000000 1.0
C      1  0.5423020000000  0.4710900000000  0.4775190000000 1.0
C      1  0.4594070000000  0.5275250000000  0.5253890000000 1.0
C      1  0.4982970000000  0.5276170000000  0.4521120000000 1.0
C      1  0.5423540000000  0.5276030000000  0.5224520000000 1.0
C      1  0.5292900000000  0.4994750000000  0.5508660000000 1.0
C      1  0.5294230000000  0.4994760000000  0.4492230000000 1.0
C      1  0.4413290000000  0.4991480000000  0.5000850000000 1.0
C      1  0.5000300000000  0.5396700000000  0.4999950000000 1.0
C      1  0.4999980000000  0.4589650000000  0.4999960000000 1.0
END
