TITL C-2441166-8118-948 0.147306317817418 125000 -26150.8889688611 0 0 196 (C1) n - 1
REM
REM in /home/bkarasulu/work/CARBON/AIRSS/Generating-Clusters/ReaxFF-fromJPCA2015/Units_Real/with-SteepDescent/Higher-Symm
REM
REM
REM
REM
REM
REM ./C.cell (1df0a924f5614ab8850e4351716899ee)
REM
REM compiler GCC version 9.2.1 20190827 (Red Hat 9.2.1-1)
REM options -cpp -mtune=generic -march=x86-64 -g -O0 -fpre-include=/usr/include/finclude/math-vector-fortran.h
REM seed -665705593 1421012326 -1394373635 -1821271231 -1674541472 -821556163 1891244940 -2157631 721417534 1858885060 -1312993833 1633107180 -254247216 -626372680 1811764099 2027766806 -631992322 -101612605 34789736 208397909 307416570 1881768895 -682436399 1356802035 -1119401625 -2016355723 1700298384 929744073 397511542 2131188567 604772545 -1109734536 -214784529
REM
CELL 1.54180   50.00000   50.00000   50.00000   90.00000   90.00000   90.00000
LATT -1
SFAC C  
C      1  0.4820550000000  0.5966100000000  0.5090990000000 1.0
C      1  0.5194750000000  0.4854280000000  0.5716570000000 1.0
C      1  0.5719610000000  0.5192030000000  0.4860780000000 1.0
C      1  0.4876540000000  0.4271780000000  0.4789860000000 1.0
C      1  0.5131000000000  0.4300900000000  0.5175160000000 1.0
C      1  0.5148680000000  0.5730990000000  0.4806050000000 1.0
C      1  0.5194380000000  0.5134100000000  0.4273900000000 1.0
C      1  0.4879400000000  0.5222810000000  0.5803290000000 1.0
C      1  0.4859780000000  0.4840260000000  0.4236490000000 1.0
C      1  0.5804260000000  0.4901340000000  0.5239390000000 1.0
C      1  0.4283350000000  0.4795180000000  0.4837650000000 1.0
C      1  0.4188640000000  0.5101160000000  0.5202940000000 1.0
C      1  0.5575220000000  0.4851120000000  0.5397910000000 1.0
C      1  0.5368500000000  0.5599970000000  0.4899050000000 1.0
C      1  0.4861000000000  0.5391440000000  0.5554430000000 1.0
C      1  0.5587950000000  0.5131050000000  0.4616620000000 1.0
C      1  0.4413680000000  0.5239380000000  0.5373740000000 1.0
C      1  0.4412910000000  0.4896830000000  0.4614770000000 1.0
C      1  0.5362900000000  0.4411610000000  0.5096150000000 1.0
C      1  0.4616170000000  0.4371830000000  0.4839800000000 1.0
C      1  0.4623750000000  0.5439890000000  0.5346150000000 1.0
C      1  0.4857030000000  0.4609020000000  0.4430030000000 1.0
C      1  0.5080170000000  0.4631070000000  0.5609890000000 1.0
C      1  0.5114240000000  0.5355910000000  0.4434720000000 1.0
C      1  0.5582870000000  0.5759080000000  0.5027110000000 1.0
C      1  0.4978380000000  0.5630540000000  0.5734800000000 1.0
C      1  0.5727280000000  0.4952020000000  0.5624990000000 1.0
C      1  0.5591010000000  0.4256180000000  0.4973420000000 1.0
C      1  0.4404560000000  0.4229180000000  0.5004390000000 1.0
C      1  0.4416940000000  0.5750950000000  0.4907810000000 1.0
C      1  0.4939950000000  0.4373910000000  0.4282510000000 1.0
C      1  0.4937100000000  0.4376700000000  0.5766610000000 1.0
C      1  0.4981000000000  0.5583950000000  0.4255350000000 1.0
C      1  0.5753280000000  0.4965600000000  0.4403120000000 1.0
C      1  0.4220320000000  0.4902200000000  0.5615560000000 1.0
C      1  0.4246190000000  0.5038660000000  0.4401670000000 1.0
C      1  0.5641610000000  0.4881860000000  0.5891600000000 1.0
C      1  0.5825750000000  0.5647000000000  0.4905540000000 1.0
C      1  0.4888040000000  0.5884880000000  0.5642950000000 1.0
C      1  0.5640990000000  0.5087810000000  0.4154010000000 1.0
C      1  0.4382150000000  0.5045470000000  0.5833740000000 1.0
C      1  0.4371790000000  0.4924880000000  0.4129300000000 1.0
C      1  0.5849280000000  0.4382110000000  0.5076980000000 1.0
C      1  0.4152680000000  0.4350010000000  0.4904760000000 1.0
C      1  0.4165140000000  0.5604570000000  0.5067090000000 1.0
C      1  0.4880450000000  0.4114680000000  0.4386650000000 1.0
C      1  0.5078090000000  0.4148830000000  0.5637140000000 1.0
C      1  0.5080090000000  0.5825640000000  0.4353940000000 1.0
C      1  0.4190760000000  0.5264520000000  0.5017600000000 1.0
C      1  0.5116670000000  0.4016300000000  0.5183490000000 1.0
C      1  0.5188560000000  0.5119370000000  0.3975830000000 1.0
C      1  0.3989280000000  0.4800050000000  0.4874920000000 1.0
C      1  0.5839620000000  0.4714130000000  0.5048080000000 1.0
C      1  0.6015870000000  0.5189840000000  0.4881090000000 1.0
C      1  0.5116930000000  0.6017590000000  0.4816270000000 1.0
C      1  0.4967200000000  0.5816270000000  0.5234590000000 1.0
C      1  0.4884870000000  0.3967910000000  0.4777250000000 1.0
C      1  0.5180800000000  0.4886360000000  0.5998220000000 1.0
C      1  0.4654200000000  0.4892550000000  0.4062770000000 1.0
C      1  0.4669030000000  0.5084470000000  0.5894950000000 1.0
C      1  0.4642070000000  0.5577130000000  0.4256830000000 1.0
C      1  0.4203360000000  0.4604190000000  0.5632190000000 1.0
C      1  0.5569900000000  0.4268340000000  0.4628640000000 1.0
C      1  0.4615750000000  0.4337580000000  0.5786950000000 1.0
C      1  0.5399760000000  0.4418400000000  0.4217540000000 1.0
C      1  0.5483160000000  0.5619780000000  0.5748320000000 1.0
C      1  0.4219700000000  0.5357550000000  0.4376280000000 1.0
C      1  0.5775280000000  0.5397350000000  0.5562550000000 1.0
C      1  0.5783280000000  0.4642090000000  0.4378060000000 1.0
C      1  0.5596230000000  0.5772820000000  0.5354560000000 1.0
C      1  0.4363180000000  0.5778630000000  0.4604440000000 1.0
C      1  0.4441250000000  0.4270160000000  0.5353270000000 1.0
C      1  0.5232610000000  0.4897260000000  0.4419080000000 1.0
C      1  0.4466950000000  0.5242220000000  0.4915320000000 1.0
C      1  0.4915260000000  0.4507740000000  0.5196960000000 1.0
C      1  0.5202400000000  0.5073780000000  0.5503810000000 1.0
C      1  0.4803200000000  0.5064710000000  0.4428530000000 1.0
C      1  0.4770750000000  0.4958810000000  0.5458170000000 1.0
C      1  0.4460030000000  0.4729500000000  0.5045220000000 1.0
C      1  0.5582200000000  0.4749100000000  0.4928290000000 1.0
C      1  0.5551110000000  0.5224410000000  0.5079950000000 1.0
C      1  0.4915280000000  0.5555640000000  0.4758000000000 1.0
C      1  0.4970470000000  0.5546230000000  0.5195880000000 1.0
C      1  0.5065450000000  0.4480710000000  0.4768640000000 1.0
C      1  0.5345100000000  0.4696990000000  0.5054120000000 1.0
C      1  0.5071620000000  0.5310770000000  0.4711710000000 1.0
C      1  0.4576570000000  0.5030580000000  0.5295760000000 1.0
C      1  0.5295490000000  0.5324170000000  0.4969280000000 1.0
C      1  0.4695370000000  0.5362760000000  0.5067980000000 1.0
C      1  0.4712190000000  0.4621300000000  0.4957700000000 1.0
C      1  0.5076030000000  0.4693820000000  0.5342040000000 1.0
C      1  0.4909300000000  0.4722400000000  0.4731370000000 1.0
C      1  0.4954980000000  0.5145900000000  0.5428270000000 1.0
C      1  0.4698390000000  0.4917450000000  0.4638000000000 1.0
C      1  0.5299210000000  0.4847730000000  0.5274970000000 1.0
C      1  0.5330710000000  0.5002410000000  0.4666410000000 1.0
C      1  0.5986550000000  0.4436240000000  0.4813130000000 1.0
C      1  0.4845760000000  0.5947390000000  0.4466190000000 1.0
C      1  0.4426320000000  0.4780160000000  0.5989790000000 1.0
C      1  0.5963610000000  0.5550190000000  0.5133930000000 1.0
C      1  0.4006250000000  0.5548120000000  0.4822280000000 1.0
C      1  0.4044080000000  0.4461620000000  0.5151130000000 1.0
C      1  0.4842660000000  0.4017990000000  0.5527370000000 1.0
C      1  0.5160560000000  0.4038840000000  0.4470890000000 1.0
C      1  0.5146520000000  0.5990600000000  0.5551490000000 1.0
C      1  0.4415380000000  0.5198140000000  0.3984730000000 1.0
C      1  0.5546270000000  0.5142600000000  0.5973240000000 1.0
C      1  0.5542350000000  0.4853950000000  0.4023110000000 1.0
C      1  0.6019220000000  0.4903250000000  0.5567230000000 1.0
C      1  0.5528140000000  0.6034500000000  0.4885630000000 1.0
C      1  0.4909270000000  0.5559790000000  0.6010670000000 1.0
C      1  0.6031810000000  0.5093160000000  0.4478910000000 1.0
C      1  0.3977520000000  0.5078910000000  0.5535280000000 1.0
C      1  0.3971570000000  0.4913670000000  0.4471310000000 1.0
C      1  0.5552750000000  0.3980570000000  0.5101100000000 1.0
C      1  0.4444640000000  0.3934260000000  0.4913100000000 1.0
C      1  0.4419660000000  0.6010210000000  0.5083290000000 1.0
C      1  0.4895710000000  0.4449460000000  0.3990120000000 1.0
C      1  0.5077620000000  0.4466040000000  0.6027680000000 1.0
C      1  0.5080990000000  0.5520550000000  0.3974690000000 1.0
C      1  0.5163320000000  0.3895570000000  0.4729580000000 1.0
C      1  0.4696010000000  0.5141360000000  0.3928710000000 1.0
C      1  0.3887940000000  0.4713370000000  0.5132150000000 1.0
C      1  0.5180450000000  0.6028430000000  0.5272130000000 1.0
C      1  0.4865350000000  0.6098430000000  0.4708490000000 1.0
C      1  0.4856630000000  0.3905650000000  0.5254970000000 1.0
C      1  0.4699860000000  0.4845940000000  0.6046480000000 1.0
C      1  0.5265960000000  0.4842630000000  0.3901510000000 1.0
C      1  0.5281050000000  0.5147210000000  0.6090970000000 1.0
C      1  0.3955570000000  0.5269080000000  0.4849600000000 1.0
C      1  0.6093060000000  0.5286440000000  0.5144690000000 1.0
C      1  0.6056380000000  0.4709680000000  0.4852760000000 1.0
C      1  0.5801130000000  0.5583950000000  0.4611760000000 1.0
C      1  0.4580480000000  0.5847330000000  0.5571270000000 1.0
C      1  0.5573600000000  0.4578130000000  0.5847680000000 1.0
C      1  0.5821290000000  0.4408510000000  0.5412210000000 1.0
C      1  0.4148070000000  0.4413450000000  0.4606410000000 1.0
C      1  0.4163700000000  0.5593930000000  0.5384250000000 1.0
C      1  0.4579600000000  0.4183160000000  0.4459060000000 1.0
C      1  0.5379070000000  0.4167610000000  0.5581330000000 1.0
C      1  0.5378000000000  0.5825830000000  0.4404410000000 1.0
C      1  0.5577580000000  0.5391190000000  0.4175440000000 1.0
C      1  0.4412400000000  0.5399830000000  0.5809570000000 1.0
C      1  0.4391900000000  0.4585340000000  0.4166480000000 1.0
C      1  0.5288200000000  0.6134410000000  0.5024590000000 1.0
C      1  0.5043980000000  0.5303300000000  0.6026430000000 1.0
C      1  0.6041510000000  0.5052580000000  0.5315080000000 1.0
C      1  0.5297600000000  0.3884860000000  0.4991290000000 1.0
C      1  0.4715630000000  0.3869100000000  0.5000900000000 1.0
C      1  0.4672780000000  0.6118560000000  0.4945040000000 1.0
C      1  0.5031640000000  0.4702690000000  0.3980050000000 1.0
C      1  0.4961060000000  0.4724560000000  0.6102960000000 1.0
C      1  0.4956030000000  0.5268260000000  0.3883790000000 1.0
C      1  0.6118390000000  0.4961600000000  0.4729430000000 1.0
C      1  0.3933640000000  0.4974750000000  0.5261240000000 1.0
C      1  0.3871840000000  0.5022540000000  0.4724870000000 1.0
C      1  0.4684630000000  0.4451070000000  0.5373500000000 1.0
C      1  0.5252220000000  0.4617720000000  0.4374480000000 1.0
C      1  0.4536930000000  0.5294820000000  0.4677790000000 1.0
C      1  0.4680180000000  0.5597640000000  0.4912430000000 1.0
C      1  0.5193560000000  0.5408720000000  0.5236910000000 1.0
C      1  0.5326000000000  0.4508580000000  0.4641970000000 1.0
C      1  0.5333100000000  0.5325440000000  0.5460820000000 1.0
C      1  0.4672160000000  0.5317320000000  0.4448630000000 1.0
C      1  0.4648570000000  0.4697900000000  0.5504530000000 1.0
C      1  0.4434570000000  0.4803330000000  0.5321480000000 1.0
C      1  0.5477060000000  0.4752020000000  0.4691220000000 1.0
C      1  0.5590980000000  0.5283670000000  0.5358750000000 1.0
C      1  0.5403640000000  0.5814220000000  0.5569000000000 1.0
C      1  0.5633310000000  0.5401930000000  0.5827650000000 1.0
C      1  0.5839060000000  0.5632960000000  0.5394410000000 1.0
C      1  0.5407080000000  0.4184500000000  0.4396290000000 1.0
C      1  0.4573740000000  0.4124370000000  0.5601540000000 1.0
C      1  0.4582150000000  0.5813730000000  0.4422800000000 1.0
C      1  0.5628020000000  0.4593550000000  0.4145380000000 1.0
C      1  0.4399850000000  0.4528470000000  0.5842170000000 1.0
C      1  0.4386370000000  0.5430630000000  0.4157450000000 1.0
C      1  0.5816290000000  0.4430310000000  0.4572620000000 1.0
C      1  0.4187610000000  0.4421360000000  0.5406360000000 1.0
C      1  0.4161210000000  0.5571460000000  0.4568260000000 1.0
C      1  0.5351530000000  0.5492130000000  0.4056680000000 1.0
C      1  0.4053480000000  0.5366500000000  0.5512070000000 1.0
C      1  0.5498890000000  0.4067050000000  0.5361130000000 1.0
C      1  0.5336850000000  0.4500790000000  0.5935800000000 1.0
C      1  0.4618390000000  0.4492890000000  0.4050220000000 1.0
C      1  0.4634320000000  0.5507290000000  0.5934800000000 1.0
C      1  0.4045340000000  0.4644530000000  0.4499160000000 1.0
C      1  0.5949830000000  0.4631350000000  0.5513640000000 1.0
C      1  0.5920380000000  0.5352770000000  0.4505640000000 1.0
C      1  0.5484920000000  0.5940090000000  0.4629580000000 1.0
C      1  0.4495320000000  0.5928650000000  0.5335620000000 1.0
C      1  0.4475350000000  0.4014700000000  0.4650270000000 1.0
C      1  0.5588540000000  0.5605850000000  0.4395040000000 1.0
C      1  0.4365960000000  0.4396100000000  0.4388530000000 1.0
C      1  0.4366480000000  0.5625840000000  0.5624900000000 1.0
C      1  0.5606090000000  0.4383100000000  0.5610320000000 1.0
END
