TITL C-2441168-9922-1275 0.0113243066237511 125000 -1121.10571035746 0 0 10 (D5h) n - 1
REM
REM in /home/bkarasulu/work/CARBON/AIRSS/Generating-Clusters/ReaxFF-fromJPCA2015/Units_Real/with-SteepDescent/Higher-Symm
REM
REM
REM
REM
REM
REM ./C.cell (1df0a924f5614ab8850e4351716899ee)
REM
REM compiler GCC version 9.2.1 20190827 (Red Hat 9.2.1-1)
REM options -cpp -mtune=generic -march=x86-64 -g -O0 -fpre-include=/usr/include/finclude/math-vector-fortran.h
REM seed -2091281162 97288252 1666992548 1573350766 -1568916327 1693975448 1568469538 -624484443 -1703466554 2124534565 -1775104403 -144607825 -1804906686 1980557504 1745395494 -339469502 251838704 -447562699 -231197225 395238554 -125806403 -523406672 51833539 363653557 779488250 -1292431047 -1422087260 756220356 384747770 -2087870893 1353625280 1144596732 128389006
REM
CELL 1.54180   50.00000   50.00000   50.00000   90.00000   90.00000   90.00000
LATT -1
SFAC C  
C      1  0.4751040000000  0.4850020000000  0.5039710000000 1.0
C      1  0.4885300000000  0.4850020000000  0.4775490000000 1.0
C      1  0.5178080000000  0.4850020000000  0.4821540000000 1.0
C      1  0.5224750000000  0.4850020000000  0.5114210000000 1.0
C      1  0.4960830000000  0.4850020000000  0.5249050000000 1.0
C      1  0.5215200000000  0.5149980000000  0.5131330000000 1.0
C      1  0.4941600000000  0.5149980000000  0.5245250000000 1.0
C      1  0.4748710000000  0.5149980000000  0.5020250000000 1.0
C      1  0.4903090000000  0.5149980000000  0.4767260000000 1.0
C      1  0.5191400000000  0.5149980000000  0.4835910000000 1.0
END
