TITL C-2441169-1362-636 0.0843675523046662 125000 -15177.5670081513 0 0 117 (C1) n - 1
REM
REM in /home/bkarasulu/work/CARBON/AIRSS/Generating-Clusters/ReaxFF-fromJPCA2015/Units_Real/with-SteepDescent/Higher-Symm
REM
REM
REM
REM
REM
REM ./C.cell (1df0a924f5614ab8850e4351716899ee)
REM
REM compiler GCC version 9.2.1 20190827 (Red Hat 9.2.1-1)
REM options -cpp -mtune=generic -march=x86-64 -g -O0 -fpre-include=/usr/include/finclude/math-vector-fortran.h
REM seed 1574770840 1081793 855057261 -48324015 294968232 1660138251 -80691495 -1676411835 -12054283 1365323165 -900339040 942902128 -2133142507 -588938078 721225210 -464841991 -2129365314 668325203 375504184 1400963060 -834787188 2001775280 -1644883861 -425473904 -884025335 -1911594147 -2064807176 -1901674584 1891209280 333821617 -112729382 1643293967 -449840592
REM
CELL 1.54180   50.00000   50.00000   50.00000   90.00000   90.00000   90.00000
LATT -1
SFAC C  
C      1  0.4479570000000  0.4482810000000  0.5615960000000 1.0
C      1  0.4476170000000  0.5152680000000  0.5792120000000 1.0
C      1  0.4477450000000  0.5707440000000  0.5391050000000 1.0
C      1  0.4479600000000  0.5717040000000  0.4674030000000 1.0
C      1  0.4474240000000  0.5226830000000  0.4225530000000 1.0
C      1  0.4494960000000  0.4525880000000  0.4364210000000 1.0
C      1  0.4470900000000  0.4173160000000  0.4953970000000 1.0
C      1  0.5077170000000  0.4912520000000  0.4620840000000 1.0
C      1  0.4975920000000  0.4632740000000  0.4815360000000 1.0
C      1  0.5106150000000  0.4573470000000  0.5078990000000 1.0
C      1  0.5076240000000  0.5005250000000  0.5360010000000 1.0
C      1  0.4964030000000  0.5273020000000  0.5281090000000 1.0
C      1  0.5071510000000  0.5360030000000  0.5003810000000 1.0
C      1  0.4974010000000  0.5176130000000  0.4761060000000 1.0
C      1  0.5577320000000  0.5590400000000  0.5570080000000 1.0
C      1  0.5556120000000  0.5796430000000  0.4887690000000 1.0
C      1  0.5550990000000  0.5405750000000  0.4304510000000 1.0
C      1  0.5558580000000  0.4725170000000  0.4247940000000 1.0
C      1  0.5582580000000  0.4216910000000  0.4754480000000 1.0
C      1  0.5561950000000  0.4329400000000  0.5440300000000 1.0
C      1  0.5560200000000  0.4933020000000  0.5811390000000 1.0
C      1  0.5478480000000  0.4976860000000  0.4245040000000 1.0
C      1  0.5462480000000  0.4414590000000  0.4559020000000 1.0
C      1  0.5498990000000  0.4262470000000  0.5193200000000 1.0
C      1  0.5453250000000  0.4697340000000  0.5667540000000 1.0
C      1  0.5473610000000  0.5339270000000  0.5655700000000 1.0
C      1  0.5448090000000  0.5719030000000  0.5148130000000 1.0
C      1  0.5465270000000  0.5552000000000  0.4521080000000 1.0
C      1  0.4399860000000  0.4555740000000  0.5219070000000 1.0
C      1  0.4384180000000  0.4902650000000  0.5478420000000 1.0
C      1  0.4389880000000  0.5317480000000  0.5388890000000 1.0
C      1  0.4361520000000  0.5474990000000  0.4986310000000 1.0
C      1  0.4308050000000  0.5352820000000  0.4570520000000 1.0
C      1  0.4374400000000  0.4898590000000  0.4530720000000 1.0
C      1  0.4409780000000  0.4533750000000  0.4777930000000 1.0
C      1  0.4850410000000  0.4603280000000  0.4185220000000 1.0
C      1  0.4834980000000  0.4131750000000  0.4808550000000 1.0
C      1  0.4841680000000  0.4300940000000  0.5566310000000 1.0
C      1  0.4842670000000  0.4997440000000  0.5873990000000 1.0
C      1  0.4849960000000  0.5693930000000  0.5552810000000 1.0
C      1  0.4841570000000  0.5860030000000  0.4802110000000 1.0
C      1  0.4848480000000  0.5371980000000  0.4212440000000 1.0
C      1  0.4589810000000  0.4959140000000  0.4711830000000 1.0
C      1  0.4674650000000  0.4682030000000  0.4867430000000 1.0
C      1  0.4639380000000  0.4707230000000  0.5161630000000 1.0
C      1  0.4616690000000  0.4939590000000  0.5314840000000 1.0
C      1  0.4665290000000  0.5225930000000  0.5237320000000 1.0
C      1  0.4603780000000  0.5343830000000  0.4959860000000 1.0
C      1  0.4708750000000  0.5232980000000  0.4709800000000 1.0
C      1  0.4890080000000  0.5478450000000  0.4488530000000 1.0
C      1  0.4878340000000  0.4888810000000  0.4213810000000 1.0
C      1  0.4916200000000  0.4362770000000  0.4639290000000 1.0
C      1  0.4883750000000  0.4252240000000  0.5288210000000 1.0
C      1  0.4907470000000  0.4793190000000  0.5663330000000 1.0
C      1  0.4921300000000  0.5408890000000  0.5589790000000 1.0
C      1  0.4905400000000  0.5782980000000  0.5074720000000 1.0
C      1  0.5660760000000  0.5163000000000  0.4371820000000 1.0
C      1  0.5656900000000  0.4636330000000  0.4503050000000 1.0
C      1  0.5679750000000  0.4361650000000  0.4994320000000 1.0
C      1  0.5654080000000  0.4598320000000  0.5469070000000 1.0
C      1  0.5675720000000  0.5124460000000  0.5617930000000 1.0
C      1  0.5652780000000  0.5567920000000  0.5288610000000 1.0
C      1  0.5675700000000  0.5556810000000  0.4743780000000 1.0
C      1  0.5143030000000  0.4292250000000  0.5159560000000 1.0
C      1  0.5158850000000  0.4653100000000  0.5646130000000 1.0
C      1  0.5183550000000  0.5309760000000  0.5698780000000 1.0
C      1  0.5156770000000  0.5754000000000  0.5200580000000 1.0
C      1  0.5164420000000  0.5586940000000  0.4555690000000 1.0
C      1  0.5132290000000  0.4993970000000  0.4307600000000 1.0
C      1  0.5176490000000  0.4414590000000  0.4505080000000 1.0
C      1  0.5464830000000  0.4732200000000  0.4934120000000 1.0
C      1  0.5336480000000  0.4700880000000  0.5196750000000 1.0
C      1  0.5364140000000  0.4952430000000  0.5369170000000 1.0
C      1  0.5475230000000  0.5206660000000  0.5199250000000 1.0
C      1  0.5346260000000  0.5334710000000  0.4963700000000 1.0
C      1  0.5457450000000  0.5146930000000  0.4747040000000 1.0
C      1  0.5346010000000  0.4885470000000  0.4707310000000 1.0
C      1  0.5117620000000  0.4496150000000  0.4239330000000 1.0
C      1  0.5100100000000  0.4110320000000  0.4916120000000 1.0
C      1  0.5110640000000  0.4368670000000  0.5657140000000 1.0
C      1  0.5122480000000  0.5101450000000  0.5878850000000 1.0
C      1  0.5102760000000  0.5791370000000  0.5479070000000 1.0
C      1  0.5115120000000  0.5825950000000  0.4694190000000 1.0
C      1  0.5105170000000  0.5255680000000  0.4166720000000 1.0
C      1  0.4275720000000  0.4621700000000  0.5481090000000 1.0
C      1  0.4269910000000  0.5152770000000  0.5598780000000 1.0
C      1  0.4276050000000  0.5554400000000  0.5261020000000 1.0
C      1  0.4253500000000  0.5566040000000  0.4742150000000 1.0
C      1  0.4267140000000  0.5134560000000  0.4395550000000 1.0
C      1  0.4282860000000  0.4618140000000  0.4521460000000 1.0
C      1  0.4287520000000  0.4382240000000  0.5000200000000 1.0
C      1  0.5338140000000  0.5718680000000  0.5601570000000 1.0
C      1  0.5360530000000  0.5988640000000  0.4774240000000 1.0
C      1  0.5332390000000  0.5397280000000  0.4181190000000 1.0
C      1  0.5349150000000  0.4615800000000  0.4163630000000 1.0
C      1  0.5333150000000  0.4094310000000  0.4772150000000 1.0
C      1  0.5342230000000  0.4275120000000  0.5554890000000 1.0
C      1  0.5360440000000  0.4989400000000  0.6027670000000 1.0
C      1  0.5807110000000  0.5045680000000  0.5368890000000 1.0
C      1  0.5768820000000  0.5313620000000  0.5174100000000 1.0
C      1  0.5801800000000  0.5330800000000  0.4860580000000 1.0
C      1  0.5778130000000  0.5098900000000  0.4655340000000 1.0
C      1  0.5790320000000  0.4791740000000  0.4703910000000 1.0
C      1  0.5776540000000  0.4648620000000  0.4973230000000 1.0
C      1  0.5788560000000  0.4774270000000  0.5283260000000 1.0
C      1  0.4717400000000  0.5120810000000  0.4142620000000 1.0
C      1  0.4737000000000  0.4419770000000  0.4380870000000 1.0
C      1  0.4719420000000  0.4135430000000  0.5079630000000 1.0
C      1  0.4737640000000  0.4541620000000  0.5699070000000 1.0
C      1  0.4730270000000  0.5257820000000  0.5800380000000 1.0
C      1  0.4728520000000  0.5802940000000  0.5313620000000 1.0
C      1  0.4730940000000  0.5713290000000  0.4587640000000 1.0
C      1  0.4878120000000  0.5001850000000  0.4983350000000 1.0
C      1  0.5589830000000  0.5005360000000  0.4992300000000 1.0
C      1  0.5105690000000  0.4966570000000  0.5073250000000 1.0
C      1  0.4358530000000  0.4981600000000  0.4952680000000 1.0
C      1  0.4123330000000  0.5014420000000  0.5041740000000 1.0
END
