TITL C-2441166-8118-264 0.0721603475745312 125000 -13992.2403063948 0 0 109 (C1) n - 1
REM
REM in /home/bkarasulu/work/CARBON/AIRSS/Generating-Clusters/ReaxFF-fromJPCA2015/Units_Real/with-SteepDescent/Higher-Symm
REM
REM
REM
REM
REM
REM ./C.cell (1df0a924f5614ab8850e4351716899ee)
REM
REM compiler GCC version 9.2.1 20190827 (Red Hat 9.2.1-1)
REM options -cpp -mtune=generic -march=x86-64 -g -O0 -fpre-include=/usr/include/finclude/math-vector-fortran.h
REM seed 558370333 -2100574735 1446613287 -552524352 1589089593 -1421542240 182368158 -2021949128 488040804 -1988833489 -807588525 -1429607662 -1450164605 -1527352201 -538132024 -40970212 -2136066611 -1881005751 1673636035 2061909164 992588992 -1615990771 -1191229296 -1207431076 221786087 842845300 -1272840620 -1007097102 -250904053 1565031822 -819645708 27903087 -1873316584
REM
CELL 1.54180   50.00000   50.00000   50.00000   90.00000   90.00000   90.00000
LATT -1
SFAC C  
C      1  0.5138570000000  0.4805870000000  0.4276610000000 1.0
C      1  0.5429970000000  0.4617830000000  0.5577980000000 1.0
C      1  0.4733860000000  0.4810830000000  0.4215110000000 1.0
C      1  0.4124860000000  0.5094150000000  0.4866900000000 1.0
C      1  0.5155530000000  0.4414190000000  0.4285920000000 1.0
C      1  0.5373120000000  0.5364930000000  0.4591140000000 1.0
C      1  0.4912510000000  0.4236280000000  0.4709560000000 1.0
C      1  0.4834490000000  0.4526270000000  0.4641510000000 1.0
C      1  0.5209490000000  0.5665580000000  0.4365500000000 1.0
C      1  0.5163610000000  0.4926020000000  0.5408090000000 1.0
C      1  0.5454100000000  0.5639480000000  0.4512680000000 1.0
C      1  0.5014260000000  0.4538630000000  0.5192440000000 1.0
C      1  0.5101180000000  0.4430370000000  0.5752320000000 1.0
C      1  0.5546700000000  0.4792540000000  0.4806390000000 1.0
C      1  0.5203740000000  0.4251300000000  0.4652950000000 1.0
C      1  0.5106860000000  0.4928270000000  0.4535320000000 1.0
C      1  0.5268320000000  0.5151410000000  0.4991720000000 1.0
C      1  0.4469960000000  0.4735500000000  0.4353940000000 1.0
C      1  0.4363040000000  0.4439020000000  0.5250310000000 1.0
C      1  0.4891240000000  0.5221170000000  0.5600390000000 1.0
C      1  0.4525500000000  0.4853080000000  0.5142740000000 1.0
C      1  0.4869140000000  0.5224100000000  0.5070320000000 1.0
C      1  0.5661150000000  0.5233160000000  0.4637210000000 1.0
C      1  0.4456380000000  0.5081420000000  0.5651330000000 1.0
C      1  0.4704820000000  0.5504110000000  0.4505680000000 1.0
C      1  0.5593810000000  0.4737180000000  0.4413750000000 1.0
C      1  0.4513390000000  0.5523370000000  0.5457020000000 1.0
C      1  0.5788230000000  0.4737860000000  0.5203970000000 1.0
C      1  0.5399690000000  0.4581580000000  0.4240790000000 1.0
C      1  0.4255890000000  0.4948800000000  0.4298310000000 1.0
C      1  0.5044460000000  0.4282200000000  0.5334350000000 1.0
C      1  0.5236160000000  0.4263280000000  0.5556180000000 1.0
C      1  0.4638320000000  0.4564350000000  0.4847610000000 1.0
C      1  0.4938510000000  0.5160640000000  0.4589660000000 1.0
C      1  0.5130530000000  0.5200560000000  0.5772250000000 1.0
C      1  0.5066410000000  0.5929690000000  0.4997460000000 1.0
C      1  0.4131580000000  0.4674490000000  0.4824530000000 1.0
C      1  0.5760330000000  0.4930290000000  0.5423040000000 1.0
C      1  0.5845670000000  0.5224170000000  0.5034720000000 1.0
C      1  0.5026070000000  0.5026980000000  0.5943860000000 1.0
C      1  0.4342220000000  0.5292530000000  0.5478820000000 1.0
C      1  0.4692930000000  0.5042450000000  0.4706110000000 1.0
C      1  0.4605140000000  0.4251690000000  0.5173300000000 1.0
C      1  0.4366750000000  0.4494050000000  0.4784250000000 1.0
C      1  0.4721610000000  0.4658150000000  0.5543410000000 1.0
C      1  0.5489250000000  0.4395280000000  0.5432530000000 1.0
C      1  0.5104220000000  0.4144260000000  0.5081550000000 1.0
C      1  0.5352280000000  0.5148540000000  0.4208650000000 1.0
C      1  0.5118870000000  0.5170050000000  0.5232040000000 1.0
C      1  0.4097380000000  0.4856270000000  0.5044440000000 1.0
C      1  0.5117240000000  0.5017610000000  0.4095580000000 1.0
C      1  0.4824410000000  0.4163420000000  0.4999330000000 1.0
C      1  0.4386990000000  0.5485770000000  0.4989700000000 1.0
C      1  0.5337520000000  0.4432100000000  0.4499220000000 1.0
C      1  0.5183430000000  0.5391850000000  0.4277080000000 1.0
C      1  0.5367710000000  0.4891040000000  0.5618110000000 1.0
C      1  0.5001220000000  0.4626680000000  0.5584020000000 1.0
C      1  0.4862640000000  0.4954590000000  0.4915560000000 1.0
C      1  0.5079650000000  0.4809410000000  0.4785420000000 1.0
C      1  0.5305270000000  0.4866780000000  0.4957490000000 1.0
C      1  0.5050800000000  0.5433180000000  0.5384990000000 1.0
C      1  0.5647950000000  0.5377170000000  0.4892980000000 1.0
C      1  0.5341830000000  0.5784040000000  0.4738160000000 1.0
C      1  0.4488820000000  0.4874520000000  0.4622560000000 1.0
C      1  0.5157140000000  0.5301700000000  0.4780400000000 1.0
C      1  0.4681220000000  0.4302470000000  0.4507520000000 1.0
C      1  0.5880540000000  0.4931150000000  0.4997310000000 1.0
C      1  0.5679090000000  0.5154050000000  0.5263440000000 1.0
C      1  0.4840210000000  0.5069700000000  0.4155480000000 1.0
C      1  0.4437730000000  0.5388910000000  0.4515880000000 1.0
C      1  0.5049550000000  0.5815850000000  0.5259520000000 1.0
C      1  0.4700800000000  0.5612730000000  0.5647050000000 1.0
C      1  0.4364070000000  0.5191020000000  0.4336670000000 1.0
C      1  0.4803590000000  0.5664660000000  0.4719200000000 1.0
C      1  0.5353380000000  0.5962180000000  0.4982880000000 1.0
C      1  0.5645050000000  0.4480490000000  0.5180930000000 1.0
C      1  0.4917370000000  0.4594320000000  0.4285210000000 1.0
C      1  0.4888540000000  0.5319850000000  0.4330160000000 1.0
C      1  0.5321850000000  0.5444480000000  0.5764850000000 1.0
C      1  0.4802620000000  0.4875110000000  0.5957850000000 1.0
C      1  0.5508400000000  0.5359110000000  0.5347490000000 1.0
C      1  0.4286630000000  0.4723730000000  0.5229570000000 1.0
C      1  0.4322170000000  0.5273260000000  0.5190930000000 1.0
C      1  0.4751360000000  0.5371620000000  0.5805710000000 1.0
C      1  0.4189170000000  0.4905850000000  0.4637740000000 1.0
C      1  0.5211190000000  0.5600680000000  0.5562840000000 1.0
C      1  0.5224900000000  0.4725590000000  0.5214860000000 1.0
C      1  0.4683590000000  0.4991760000000  0.5490730000000 1.0
C      1  0.5611570000000  0.5040370000000  0.5643240000000 1.0
C      1  0.4601590000000  0.5124500000000  0.5191660000000 1.0
C      1  0.5073600000000  0.5772380000000  0.4610700000000 1.0
C      1  0.4439060000000  0.4442260000000  0.4506390000000 1.0
C      1  0.4808520000000  0.5804510000000  0.5445740000000 1.0
C      1  0.5661720000000  0.4566570000000  0.4676780000000 1.0
C      1  0.5437910000000  0.5532240000000  0.5107900000000 1.0
C      1  0.5543720000000  0.5015860000000  0.4383930000000 1.0
C      1  0.5323570000000  0.4249020000000  0.4906080000000 1.0
C      1  0.4751900000000  0.4701470000000  0.5066280000000 1.0
C      1  0.5572020000000  0.4396430000000  0.4916060000000 1.0
C      1  0.4834390000000  0.4588210000000  0.5814050000000 1.0
C      1  0.4621050000000  0.5708500000000  0.5252730000000 1.0
C      1  0.4622390000000  0.5663490000000  0.4960300000000 1.0
C      1  0.5521340000000  0.5818260000000  0.5183370000000 1.0
C      1  0.5753320000000  0.4957630000000  0.4749100000000 1.0
C      1  0.4285230000000  0.5328710000000  0.4778290000000 1.0
C      1  0.4582470000000  0.4404210000000  0.5421210000000 1.0
C      1  0.5103180000000  0.5553080000000  0.5126770000000 1.0
C      1  0.4629190000000  0.5115370000000  0.5892540000000 1.0
C      1  0.5554510000000  0.5324270000000  0.5625790000000 1.0
END
