TITL C-2441167-4473-959 0.191070148867574 125000 -17290.9712099977 0 0 150 (C1) n - 1
REM
REM in /home/bkarasulu/work/CARBON/AIRSS/Generating-Clusters/ReaxFF-fromJPCA2015/Units_Real/with-SteepDescent/Higher-Symm
REM
REM
REM
REM
REM
REM ./C.cell (1df0a924f5614ab8850e4351716899ee)
REM
REM compiler GCC version 9.2.1 20190827 (Red Hat 9.2.1-1)
REM options -cpp -mtune=generic -march=x86-64 -g -O0 -fpre-include=/usr/include/finclude/math-vector-fortran.h
REM seed -1705960977 -1239577228 1004185167 508055354 857626703 -699493360 -790321102 1008953158 -827985466 -394004215 67518893 1861634542 391758898 937788454 1437572248 -1953466844 -1193833065 1005283551 -96920369 172558880 -453276643 599433078 2050707803 -2050363916 687914232 1084132226 245650628 1329778026 306060348 1464486809 -1705769042 -383950914 2021384404
REM
CELL 1.54180   50.00000   50.00000   50.00000   90.00000   90.00000   90.00000
LATT -1
SFAC C  
C      1  0.4525500000000  0.4527070000000  0.4613080000000 1.0
C      1  0.5153590000000  0.4144480000000  0.5197030000000 1.0
C      1  0.4676910000000  0.4195810000000  0.5182890000000 1.0
C      1  0.5017190000000  0.4851870000000  0.4461140000000 1.0
C      1  0.5155320000000  0.4880350000000  0.4017600000000 1.0
C      1  0.4696580000000  0.5548970000000  0.5835950000000 1.0
C      1  0.6045250000000  0.4943470000000  0.5239300000000 1.0
C      1  0.5307170000000  0.5161160000000  0.5379760000000 1.0
C      1  0.5176180000000  0.4741190000000  0.4835330000000 1.0
C      1  0.5701220000000  0.4265490000000  0.4659220000000 1.0
C      1  0.4852000000000  0.5310140000000  0.5119130000000 1.0
C      1  0.5663140000000  0.4728450000000  0.4901130000000 1.0
C      1  0.4326250000000  0.4421060000000  0.5263670000000 1.0
C      1  0.5518080000000  0.4993480000000  0.5238890000000 1.0
C      1  0.5499360000000  0.4967930000000  0.4956980000000 1.0
C      1  0.4210370000000  0.4640760000000  0.5426840000000 1.0
C      1  0.4192780000000  0.4743250000000  0.5022200000000 1.0
C      1  0.5146720000000  0.6025800000000  0.5034930000000 1.0
C      1  0.4803920000000  0.4820710000000  0.4589400000000 1.0
C      1  0.4972860000000  0.4821770000000  0.5949160000000 1.0
C      1  0.4352930000000  0.4995590000000  0.4294060000000 1.0
C      1  0.5605550000000  0.5335230000000  0.4262020000000 1.0
C      1  0.4243280000000  0.4962190000000  0.4904480000000 1.0
C      1  0.5408850000000  0.5544780000000  0.5791290000000 1.0
C      1  0.4054830000000  0.4759290000000  0.4630410000000 1.0
C      1  0.5201230000000  0.5963640000000  0.4771180000000 1.0
C      1  0.4550400000000  0.4248290000000  0.4906850000000 1.0
C      1  0.5262850000000  0.4582030000000  0.5076770000000 1.0
C      1  0.5804740000000  0.5558660000000  0.5179080000000 1.0
C      1  0.4999340000000  0.4427900000000  0.5418800000000 1.0
C      1  0.5354000000000  0.5322160000000  0.4689120000000 1.0
C      1  0.4948680000000  0.5963490000000  0.5282920000000 1.0
C      1  0.5107140000000  0.5237210000000  0.5054720000000 1.0
C      1  0.5124250000000  0.5571260000000  0.5803620000000 1.0
C      1  0.4289130000000  0.4357260000000  0.4980770000000 1.0
C      1  0.4622650000000  0.5038920000000  0.4895900000000 1.0
C      1  0.5408650000000  0.4714170000000  0.5297260000000 1.0
C      1  0.4977130000000  0.4863840000000  0.5532260000000 1.0
C      1  0.4939790000000  0.5658540000000  0.4935440000000 1.0
C      1  0.5154960000000  0.5594180000000  0.4242520000000 1.0
C      1  0.5376200000000  0.5814150000000  0.4647190000000 1.0
C      1  0.4636870000000  0.5341420000000  0.4499260000000 1.0
C      1  0.4263060000000  0.4840560000000  0.5651850000000 1.0
C      1  0.5806620000000  0.4685680000000  0.5524020000000 1.0
C      1  0.5749050000000  0.4483460000000  0.5107470000000 1.0
C      1  0.4180160000000  0.5111290000000  0.5561720000000 1.0
C      1  0.4917930000000  0.4896630000000  0.4184380000000 1.0
C      1  0.4854440000000  0.5358230000000  0.5496550000000 1.0
C      1  0.4701500000000  0.4783310000000  0.4970250000000 1.0
C      1  0.4102400000000  0.5350140000000  0.5123240000000 1.0
C      1  0.4914900000000  0.5398940000000  0.5942570000000 1.0
C      1  0.5273870000000  0.5603210000000  0.5270420000000 1.0
C      1  0.4550180000000  0.4323570000000  0.5408810000000 1.0
C      1  0.4236290000000  0.5559400000000  0.5276110000000 1.0
C      1  0.4570850000000  0.5091240000000  0.5686270000000 1.0
C      1  0.4312850000000  0.5414830000000  0.5545590000000 1.0
C      1  0.5675200000000  0.5456540000000  0.5453890000000 1.0
C      1  0.5133020000000  0.4919580000000  0.5300670000000 1.0
C      1  0.5239730000000  0.5097410000000  0.4546860000000 1.0
C      1  0.4755280000000  0.4654190000000  0.5204960000000 1.0
C      1  0.5749070000000  0.5228050000000  0.5616080000000 1.0
C      1  0.4999370000000  0.4303710000000  0.4723170000000 1.0
C      1  0.4677930000000  0.5892330000000  0.5371390000000 1.0
C      1  0.5368450000000  0.5855490000000  0.5120910000000 1.0
C      1  0.5772350000000  0.4956210000000  0.4474180000000 1.0
C      1  0.5250180000000  0.4909480000000  0.5861280000000 1.0
C      1  0.4786210000000  0.5159530000000  0.5304670000000 1.0
C      1  0.5294980000000  0.4330640000000  0.4670280000000 1.0
C      1  0.4517260000000  0.5756370000000  0.4699720000000 1.0
C      1  0.4114080000000  0.4543540000000  0.4822040000000 1.0
C      1  0.5077810000000  0.4358540000000  0.4298740000000 1.0
C      1  0.5426410000000  0.4794020000000  0.4141740000000 1.0
C      1  0.5515010000000  0.4589460000000  0.5584220000000 1.0
C      1  0.5969570000000  0.4662370000000  0.5282950000000 1.0
C      1  0.5770510000000  0.4269790000000  0.4931640000000 1.0
C      1  0.5004090000000  0.5683730000000  0.5205370000000 1.0
C      1  0.4509080000000  0.4818860000000  0.5809380000000 1.0
C      1  0.4161910000000  0.4771660000000  0.4344250000000 1.0
C      1  0.5657580000000  0.4946860000000  0.4211310000000 1.0
C      1  0.4600130000000  0.5478920000000  0.5414360000000 1.0
C      1  0.4728660000000  0.4017640000000  0.4965260000000 1.0
C      1  0.5802930000000  0.5451100000000  0.4693120000000 1.0
C      1  0.5489280000000  0.4218850000000  0.4876060000000 1.0
C      1  0.4529200000000  0.5043560000000  0.5365630000000 1.0
C      1  0.5058860000000  0.5760180000000  0.5607250000000 1.0
C      1  0.4752560000000  0.5856700000000  0.4829160000000 1.0
C      1  0.5332020000000  0.4219330000000  0.4397500000000 1.0
C      1  0.4864500000000  0.4242810000000  0.4462000000000 1.0
C      1  0.4600070000000  0.4492570000000  0.4130390000000 1.0
C      1  0.4894660000000  0.5100550000000  0.5982150000000 1.0
C      1  0.4057620000000  0.4820670000000  0.5256380000000 1.0
C      1  0.4627350000000  0.5300430000000  0.4959070000000 1.0
C      1  0.5601030000000  0.5715930000000  0.5013810000000 1.0
C      1  0.4887130000000  0.5378270000000  0.4465680000000 1.0
C      1  0.3987360000000  0.5011350000000  0.4780140000000 1.0
C      1  0.4996590000000  0.4017510000000  0.4835400000000 1.0
C      1  0.4483430000000  0.5368880000000  0.5784350000000 1.0
C      1  0.4783860000000  0.5788450000000  0.5629450000000 1.0
C      1  0.5927290000000  0.4892330000000  0.5004340000000 1.0
C      1  0.4545100000000  0.4759490000000  0.5362350000000 1.0
C      1  0.4716540000000  0.5345450000000  0.4069810000000 1.0
C      1  0.4811040000000  0.4671980000000  0.4077550000000 1.0
C      1  0.4701410000000  0.4397280000000  0.5665940000000 1.0
C      1  0.5209680000000  0.4197670000000  0.5671170000000 1.0
C      1  0.4518710000000  0.5458640000000  0.4735980000000 1.0
C      1  0.5795080000000  0.5256170000000  0.4479080000000 1.0
C      1  0.5515050000000  0.5227220000000  0.4871970000000 1.0
C      1  0.5684280000000  0.4502740000000  0.4492460000000 1.0
C      1  0.4339270000000  0.4594860000000  0.4207700000000 1.0
C      1  0.4862640000000  0.5093590000000  0.5677320000000 1.0
C      1  0.5438440000000  0.4634690000000  0.4379530000000 1.0
C      1  0.5527420000000  0.5279180000000  0.5801560000000 1.0
C      1  0.4537260000000  0.5487880000000  0.4265950000000 1.0
C      1  0.5253630000000  0.4014630000000  0.4967610000000 1.0
C      1  0.5448900000000  0.5575750000000  0.4317080000000 1.0
C      1  0.5072610000000  0.4610480000000  0.5599570000000 1.0
C      1  0.4537290000000  0.4836350000000  0.4517680000000 1.0
C      1  0.5441590000000  0.5626280000000  0.5520140000000 1.0
C      1  0.5363270000000  0.4166250000000  0.5408030000000 1.0
C      1  0.5736230000000  0.4928240000000  0.5656660000000 1.0
C      1  0.5896560000000  0.5380040000000  0.4958240000000 1.0
C      1  0.4778740000000  0.4596840000000  0.4757830000000 1.0
C      1  0.4254440000000  0.5467270000000  0.4357190000000 1.0
C      1  0.5492590000000  0.5449330000000  0.5053790000000 1.0
C      1  0.5284010000000  0.4463760000000  0.5741510000000 1.0
C      1  0.5160870000000  0.4610370000000  0.4411870000000 1.0
C      1  0.5013310000000  0.5390320000000  0.4084490000000 1.0
C      1  0.4736060000000  0.5840950000000  0.4533110000000 1.0
C      1  0.5580110000000  0.5650270000000  0.4563400000000 1.0
C      1  0.5065510000000  0.4958920000000  0.5009140000000 1.0
C      1  0.5519540000000  0.4797900000000  0.5802490000000 1.0
C      1  0.4921720000000  0.4214170000000  0.5604300000000 1.0
C      1  0.5597340000000  0.4295030000000  0.5296510000000 1.0
C      1  0.4252350000000  0.5330000000000  0.4629420000000 1.0
C      1  0.5008630000000  0.4436680000000  0.5141610000000 1.0
C      1  0.4538470000000  0.5103380000000  0.4090000000000 1.0
C      1  0.4055900000000  0.5107250000000  0.5305010000000 1.0
C      1  0.5110190000000  0.5412980000000  0.4829660000000 1.0
C      1  0.4980310000000  0.5226790000000  0.4651640000000 1.0
C      1  0.5302750000000  0.5136860000000  0.5673820000000 1.0
C      1  0.4737100000000  0.4641910000000  0.5833270000000 1.0
C      1  0.4596880000000  0.4336870000000  0.4408170000000 1.0
C      1  0.5357910000000  0.5172850000000  0.4278690000000 1.0
C      1  0.4423320000000  0.5024340000000  0.4718940000000 1.0
C      1  0.5857870000000  0.5127560000000  0.5120830000000 1.0
C      1  0.5802480000000  0.4719270000000  0.4637660000000 1.0
C      1  0.5189950000000  0.5168990000000  0.4040580000000 1.0
C      1  0.4045390000000  0.5297080000000  0.4839380000000 1.0
C      1  0.4953830000000  0.5665550000000  0.4439070000000 1.0
C      1  0.4502870000000  0.5689390000000  0.5243260000000 1.0
END
