TITL C-2441166-8118-1432 0.038808242971715 125000 -15313.0845801173 0 0 109 (C1) n - 1
REM
REM in /home/bkarasulu/work/CARBON/AIRSS/Generating-Clusters/ReaxFF-fromJPCA2015/Units_Real/with-SteepDescent/Higher-Symm
REM
REM
REM
REM
REM
REM ./C.cell (1df0a924f5614ab8850e4351716899ee)
REM
REM compiler GCC version 9.2.1 20190827 (Red Hat 9.2.1-1)
REM options -cpp -mtune=generic -march=x86-64 -g -O0 -fpre-include=/usr/include/finclude/math-vector-fortran.h
REM seed 495219691 1099615653 1961822949 817298301 -1618234357 -812655641 -1343181260 -1788277 1600920640 1169047508 1692024067 1675746509 373249371 310828444 -414542115 381925852 -591822520 -1168647123 37219341 481866550 1530649621 -806001744 181500654 -366816850 -949348314 1588404932 1065050656 -852653725 566604282 434086227 -1731392244 2041692060 -2127361418
REM
CELL 1.54180   50.00000   50.00000   50.00000   90.00000   90.00000   90.00000
LATT -1
SFAC C  
C      1  0.5232920000000  0.5408070000000  0.5734860000000 1.0
C      1  0.5234180000000  0.5412730000000  0.4241860000000 1.0
C      1  0.5439460000000  0.4476410000000  0.4518010000000 1.0
C      1  0.5441790000000  0.4487630000000  0.5440530000000 1.0
C      1  0.5869230000000  0.5024220000000  0.5243820000000 1.0
C      1  0.5792810000000  0.5095010000000  0.4737430000000 1.0
C      1  0.4465560000000  0.4813820000000  0.5567740000000 1.0
C      1  0.4523040000000  0.4831390000000  0.4415100000000 1.0
C      1  0.4758460000000  0.4877240000000  0.4570720000000 1.0
C      1  0.4723100000000  0.4859320000000  0.5457100000000 1.0
C      1  0.5236940000000  0.4648660000000  0.4384660000000 1.0
C      1  0.5446820000000  0.4675260000000  0.5681440000000 1.0
C      1  0.5299900000000  0.5127590000000  0.4206040000000 1.0
C      1  0.5298810000000  0.5123970000000  0.5762400000000 1.0
C      1  0.4427380000000  0.5642950000000  0.5333660000000 1.0
C      1  0.4468020000000  0.5673860000000  0.4711320000000 1.0
C      1  0.4946360000000  0.5448180000000  0.4218380000000 1.0
C      1  0.4945380000000  0.5436600000000  0.5776090000000 1.0
C      1  0.4969790000000  0.4388160000000  0.5407680000000 1.0
C      1  0.4983030000000  0.4359160000000  0.4631990000000 1.0
C      1  0.4776450000000  0.5621500000000  0.5649840000000 1.0
C      1  0.4789920000000  0.5637090000000  0.4369650000000 1.0
C      1  0.4333400000000  0.5059060000000  0.4462620000000 1.0
C      1  0.4327140000000  0.5064610000000  0.5514390000000 1.0
C      1  0.4521700000000  0.5226770000000  0.5645470000000 1.0
C      1  0.4522250000000  0.5257930000000  0.4360250000000 1.0
C      1  0.5206530000000  0.5751650000000  0.4617910000000 1.0
C      1  0.5142250000000  0.5787100000000  0.5385240000000 1.0
C      1  0.4818880000000  0.5088620000000  0.5286110000000 1.0
C      1  0.4816630000000  0.5149790000000  0.4641160000000 1.0
C      1  0.5186150000000  0.4600290000000  0.5751060000000 1.0
C      1  0.5168310000000  0.4584060000000  0.4136840000000 1.0
C      1  0.5606200000000  0.4668850000000  0.5281940000000 1.0
C      1  0.5621860000000  0.4641710000000  0.4658390000000 1.0
C      1  0.4566110000000  0.4441590000000  0.4275740000000 1.0
C      1  0.4492200000000  0.4530350000000  0.5709330000000 1.0
C      1  0.4539420000000  0.4252630000000  0.4491500000000 1.0
C      1  0.4530090000000  0.4290180000000  0.5507290000000 1.0
C      1  0.5337910000000  0.5609650000000  0.5543630000000 1.0
C      1  0.5371510000000  0.5602850000000  0.4427910000000 1.0
C      1  0.4533500000000  0.5505350000000  0.5568630000000 1.0
C      1  0.4535170000000  0.5532740000000  0.4458360000000 1.0
C      1  0.5068660000000  0.4937050000000  0.5287420000000 1.0
C      1  0.5139970000000  0.4892270000000  0.4738700000000 1.0
C      1  0.5230500000000  0.4292220000000  0.5381990000000 1.0
C      1  0.5253150000000  0.4262920000000  0.4622150000000 1.0
C      1  0.4970760000000  0.4724780000000  0.5891340000000 1.0
C      1  0.4941720000000  0.4752180000000  0.4094860000000 1.0
C      1  0.4795410000000  0.5192040000000  0.5788320000000 1.0
C      1  0.4784740000000  0.5209900000000  0.4211510000000 1.0
C      1  0.5025110000000  0.5020510000000  0.5820430000000 1.0
C      1  0.5005900000000  0.5025780000000  0.4171060000000 1.0
C      1  0.4735500000000  0.4227760000000  0.5303220000000 1.0
C      1  0.4751740000000  0.4212780000000  0.4720860000000 1.0
C      1  0.5653700000000  0.5544540000000  0.4503650000000 1.0
C      1  0.5619280000000  0.5562990000000  0.5477610000000 1.0
C      1  0.5033340000000  0.5326770000000  0.5216370000000 1.0
C      1  0.5057600000000  0.5302790000000  0.4705330000000 1.0
C      1  0.5223030000000  0.5172160000000  0.5361340000000 1.0
C      1  0.5268720000000  0.5117590000000  0.4639370000000 1.0
C      1  0.4369490000000  0.4423940000000  0.5329470000000 1.0
C      1  0.4390960000000  0.4427470000000  0.4648970000000 1.0
C      1  0.4701230000000  0.4633180000000  0.5851770000000 1.0
C      1  0.4643960000000  0.4689010000000  0.4179230000000 1.0
C      1  0.4316480000000  0.4665170000000  0.5197340000000 1.0
C      1  0.4340530000000  0.4665800000000  0.4785500000000 1.0
C      1  0.5735430000000  0.5581870000000  0.5198470000000 1.0
C      1  0.5771730000000  0.5586500000000  0.4773700000000 1.0
C      1  0.4719310000000  0.5809930000000  0.4771060000000 1.0
C      1  0.4655600000000  0.5821380000000  0.5268270000000 1.0
C      1  0.4273740000000  0.5570760000000  0.4905920000000 1.0
C      1  0.4230400000000  0.5497990000000  0.5181130000000 1.0
C      1  0.5489610000000  0.5144610000000  0.5274400000000 1.0
C      1  0.5517060000000  0.5172230000000  0.4786630000000 1.0
C      1  0.4865910000000  0.5805530000000  0.5466370000000 1.0
C      1  0.4927720000000  0.5791470000000  0.4568340000000 1.0
C      1  0.5707770000000  0.4888950000000  0.4534680000000 1.0
C      1  0.5663460000000  0.4932370000000  0.5401490000000 1.0
C      1  0.5516390000000  0.4957690000000  0.5658580000000 1.0
C      1  0.5530640000000  0.4998900000000  0.4321580000000 1.0
C      1  0.4383140000000  0.5280310000000  0.4853570000000 1.0
C      1  0.4407940000000  0.5162070000000  0.5101960000000 1.0
C      1  0.4950860000000  0.4688990000000  0.5433590000000 1.0
C      1  0.4983710000000  0.4688910000000  0.4601690000000 1.0
C      1  0.4171540000000  0.5098340000000  0.4707110000000 1.0
C      1  0.4196030000000  0.5177340000000  0.5247650000000 1.0
C      1  0.5147850000000  0.3853250000000  0.5038800000000 1.0
C      1  0.5590840000000  0.5698460000000  0.4973530000000 1.0
C      1  0.5210410000000  0.4075760000000  0.5142790000000 1.0
C      1  0.4078140000000  0.5015060000000  0.4973520000000 1.0
C      1  0.4821850000000  0.5855230000000  0.5036850000000 1.0
C      1  0.5277350000000  0.5705400000000  0.4910600000000 1.0
C      1  0.4641660000000  0.5041890000000  0.5063890000000 1.0
C      1  0.4808360000000  0.4543650000000  0.5004180000000 1.0
C      1  0.5103110000000  0.5840780000000  0.5111920000000 1.0
C      1  0.5437340000000  0.5029970000000  0.5020420000000 1.0
C      1  0.4121610000000  0.4729820000000  0.4984460000000 1.0
C      1  0.5102280000000  0.5436400000000  0.4963360000000 1.0
C      1  0.4570640000000  0.4723770000000  0.5000670000000 1.0
C      1  0.5944090000000  0.5126090000000  0.4995030000000 1.0
C      1  0.4699490000000  0.4273000000000  0.5010110000000 1.0
C      1  0.5897400000000  0.5416220000000  0.5001410000000 1.0
C      1  0.5352660000000  0.4174160000000  0.4884910000000 1.0
C      1  0.4683900000000  0.5253430000000  0.4852280000000 1.0
C      1  0.5191760000000  0.4872840000000  0.5009200000000 1.0
C      1  0.5340030000000  0.4445270000000  0.4990810000000 1.0
C      1  0.5622230000000  0.4589560000000  0.4983250000000 1.0
C      1  0.5883070000000  0.4480590000000  0.5066320000000 1.0
C      1  0.5101620000000  0.4583260000000  0.5013800000000 1.0
END
