TITL C-2441162-9305-1399 0.157091552412892 125000 -22441.2496475597 0 0 179 (C1) n - 1
REM
REM in /home/bkarasulu/work/CARBON/AIRSS/Generating-Clusters/ReaxFF-fromJPCA2015/Units_Real/with-SteepDescent/Higher-Symm
REM
REM
REM
REM
REM
REM ./C.cell (1df0a924f5614ab8850e4351716899ee)
REM
REM compiler GCC version 9.2.1 20190827 (Red Hat 9.2.1-1)
REM options -cpp -mtune=generic -march=x86-64 -g -O0 -fpre-include=/usr/include/finclude/math-vector-fortran.h
REM seed 160790523 1785313065 1863551359 -499527954 295069682 -1085394518 1622316158 574125296 -97279362 1674488298 612092916 -341962295 -245608547 -551837042 1707056766 1830775879 -1562255727 -1857545301 -804778373 1738682941 1610604651 -1677621221 -1103632287 -882271422 905429175 178517366 183511163 -1991254762 315814733 -2003348943 909010435 125319224 -1982725925
REM
CELL 1.54180   50.00000   50.00000   50.00000   90.00000   90.00000   90.00000
LATT -1
SFAC C  
C      1  0.4320250000000  0.4351210000000  0.4845900000000 1.0
C      1  0.4729500000000  0.4330350000000  0.4388720000000 1.0
C      1  0.5336700000000  0.4274510000000  0.4395770000000 1.0
C      1  0.5627680000000  0.4282380000000  0.4914740000000 1.0
C      1  0.5478250000000  0.4318390000000  0.5523860000000 1.0
C      1  0.4910990000000  0.4315790000000  0.5655220000000 1.0
C      1  0.4433240000000  0.4325650000000  0.5412350000000 1.0
C      1  0.5433430000000  0.5245700000000  0.3958880000000 1.0
C      1  0.6088310000000  0.5283920000000  0.4717230000000 1.0
C      1  0.5941840000000  0.5275600000000  0.5685390000000 1.0
C      1  0.5036670000000  0.5257070000000  0.6156090000000 1.0
C      1  0.4125780000000  0.5214390000000  0.5749790000000 1.0
C      1  0.3866530000000  0.5210170000000  0.4785560000000 1.0
C      1  0.4443270000000  0.5191900000000  0.4008900000000 1.0
C      1  0.5823730000000  0.5692010000000  0.5106950000000 1.0
C      1  0.5413740000000  0.5635900000000  0.5637550000000 1.0
C      1  0.4752400000000  0.5671760000000  0.5732400000000 1.0
C      1  0.4183380000000  0.5623840000000  0.5253510000000 1.0
C      1  0.4322500000000  0.5658780000000  0.4733720000000 1.0
C      1  0.4839610000000  0.5730110000000  0.4262480000000 1.0
C      1  0.5520500000000  0.5628470000000  0.4433580000000 1.0
C      1  0.4393360000000  0.4531750000000  0.5198540000000 1.0
C      1  0.4436700000000  0.4535660000000  0.4640510000000 1.0
C      1  0.4952530000000  0.4518440000000  0.4267810000000 1.0
C      1  0.5581280000000  0.4410340000000  0.4448870000000 1.0
C      1  0.5710310000000  0.4476800000000  0.5104010000000 1.0
C      1  0.5333900000000  0.4430270000000  0.5752980000000 1.0
C      1  0.4747390000000  0.4541980000000  0.5566760000000 1.0
C      1  0.4261650000000  0.4758900000000  0.4726090000000 1.0
C      1  0.4758050000000  0.4751680000000  0.4282810000000 1.0
C      1  0.5379790000000  0.4749460000000  0.4395960000000 1.0
C      1  0.5830530000000  0.4701370000000  0.4941630000000 1.0
C      1  0.5665020000000  0.4759260000000  0.5614440000000 1.0
C      1  0.4884840000000  0.4741250000000  0.5730200000000 1.0
C      1  0.4356360000000  0.4753090000000  0.5379060000000 1.0
C      1  0.4798350000000  0.5365750000000  0.5729820000000 1.0
C      1  0.4370890000000  0.5282690000000  0.5341460000000 1.0
C      1  0.4329610000000  0.5355360000000  0.4668210000000 1.0
C      1  0.4828700000000  0.5284840000000  0.4280580000000 1.0
C      1  0.5468280000000  0.5341140000000  0.4410530000000 1.0
C      1  0.5820130000000  0.5270890000000  0.5102370000000 1.0
C      1  0.5447570000000  0.5349460000000  0.5624130000000 1.0
C      1  0.5174240000000  0.4291770000000  0.4628200000000 1.0
C      1  0.5330830000000  0.4288770000000  0.4900870000000 1.0
C      1  0.5298050000000  0.4213720000000  0.5321170000000 1.0
C      1  0.5018950000000  0.4206730000000  0.5404010000000 1.0
C      1  0.4599640000000  0.4180310000000  0.5218510000000 1.0
C      1  0.4552860000000  0.4209100000000  0.4942290000000 1.0
C      1  0.4867630000000  0.4271030000000  0.4637530000000 1.0
C      1  0.4356580000000  0.5456680000000  0.4140630000000 1.0
C      1  0.5308390000000  0.5529860000000  0.3995020000000 1.0
C      1  0.5944830000000  0.5520160000000  0.4635190000000 1.0
C      1  0.5915840000000  0.5522930000000  0.5539080000000 1.0
C      1  0.5234550000000  0.5447680000000  0.6056870000000 1.0
C      1  0.4255130000000  0.5472550000000  0.5763760000000 1.0
C      1  0.3835800000000  0.5520920000000  0.4785630000000 1.0
C      1  0.5919710000000  0.4604890000000  0.4652760000000 1.0
C      1  0.5885220000000  0.4618400000000  0.5516110000000 1.0
C      1  0.4865060000000  0.4615270000000  0.5987440000000 1.0
C      1  0.4124290000000  0.4687340000000  0.5536920000000 1.0
C      1  0.4002320000000  0.4722500000000  0.4602670000000 1.0
C      1  0.4637510000000  0.4687230000000  0.4028310000000 1.0
C      1  0.5482010000000  0.4684720000000  0.4134220000000 1.0
C      1  0.4578020000000  0.5154020000000  0.4261980000000 1.0
C      1  0.5246050000000  0.5188870000000  0.4177300000000 1.0
C      1  0.5851740000000  0.5132730000000  0.4631430000000 1.0
C      1  0.5711020000000  0.5178540000000  0.5540390000000 1.0
C      1  0.4989680000000  0.5179470000000  0.5890520000000 1.0
C      1  0.4399750000000  0.5152980000000  0.5603700000000 1.0
C      1  0.4129910000000  0.5215510000000  0.4907760000000 1.0
C      1  0.5196180000000  0.3997290000000  0.4658980000000 1.0
C      1  0.5349290000000  0.3980720000000  0.4909310000000 1.0
C      1  0.5258350000000  0.3952800000000  0.5184830000000 1.0
C      1  0.4995530000000  0.3934380000000  0.5299640000000 1.0
C      1  0.4737820000000  0.3926780000000  0.5174790000000 1.0
C      1  0.4699740000000  0.3962660000000  0.4887920000000 1.0
C      1  0.4902570000000  0.3982680000000  0.4679040000000 1.0
C      1  0.5087960000000  0.5053200000000  0.5476120000000 1.0
C      1  0.4712770000000  0.5055910000000  0.5376080000000 1.0
C      1  0.4510660000000  0.5026420000000  0.4975090000000 1.0
C      1  0.4695200000000  0.4989320000000  0.4623390000000 1.0
C      1  0.5119080000000  0.5020560000000  0.4526340000000 1.0
C      1  0.5456290000000  0.5053740000000  0.4816610000000 1.0
C      1  0.5420770000000  0.5064950000000  0.5233860000000 1.0
C      1  0.4139900000000  0.4605160000000  0.4369140000000 1.0
C      1  0.4911650000000  0.4576610000000  0.3960810000000 1.0
C      1  0.5709910000000  0.4563200000000  0.4253430000000 1.0
C      1  0.6062490000000  0.4721480000000  0.5109340000000 1.0
C      1  0.5480910000000  0.4655300000000  0.5800450000000 1.0
C      1  0.4568790000000  0.4570180000000  0.5937670000000 1.0
C      1  0.3999060000000  0.4594120000000  0.5278450000000 1.0
C      1  0.4780950000000  0.5974790000000  0.5213410000000 1.0
C      1  0.4704670000000  0.5981860000000  0.4941660000000 1.0
C      1  0.4880080000000  0.5957440000000  0.4704600000000 1.0
C      1  0.5149540000000  0.6036930000000  0.4729150000000 1.0
C      1  0.5279300000000  0.6038710000000  0.4921110000000 1.0
C      1  0.5275600000000  0.5966820000000  0.5186700000000 1.0
C      1  0.5034010000000  0.5923830000000  0.5339300000000 1.0
C      1  0.5140860000000  0.5472050000000  0.4753900000000 1.0
C      1  0.5386690000000  0.5538380000000  0.4913650000000 1.0
C      1  0.5309040000000  0.5669330000000  0.5187530000000 1.0
C      1  0.5038230000000  0.5630070000000  0.5326470000000 1.0
C      1  0.4751200000000  0.5652560000000  0.5252090000000 1.0
C      1  0.4645900000000  0.5673840000000  0.4986470000000 1.0
C      1  0.4838760000000  0.5658870000000  0.4711420000000 1.0
C      1  0.4226740000000  0.5343170000000  0.4375060000000 1.0
C      1  0.4995100000000  0.5272260000000  0.4044800000000 1.0
C      1  0.5752310000000  0.5269460000000  0.4399140000000 1.0
C      1  0.5950310000000  0.5480720000000  0.5253450000000 1.0
C      1  0.5443960000000  0.5317300000000  0.5920090000000 1.0
C      1  0.4525230000000  0.5305570000000  0.5834290000000 1.0
C      1  0.4102410000000  0.5331980000000  0.5213980000000 1.0
C      1  0.4578000000000  0.5701240000000  0.5502310000000 1.0
C      1  0.4359040000000  0.5688530000000  0.5021810000000 1.0
C      1  0.4647520000000  0.5649280000000  0.4482960000000 1.0
C      1  0.5115630000000  0.5641780000000  0.4198230000000 1.0
C      1  0.5562170000000  0.5693110000000  0.4712310000000 1.0
C      1  0.5597500000000  0.5710750000000  0.5280680000000 1.0
C      1  0.5229780000000  0.5678540000000  0.5864790000000 1.0
C      1  0.5241950000000  0.4456230000000  0.4187980000000 1.0
C      1  0.5745420000000  0.4374250000000  0.4670170000000 1.0
C      1  0.5714950000000  0.4427020000000  0.5385400000000 1.0
C      1  0.5061470000000  0.4407570000000  0.5877720000000 1.0
C      1  0.4465120000000  0.4478760000000  0.5666680000000 1.0
C      1  0.4147470000000  0.4490710000000  0.5040100000000 1.0
C      1  0.4486040000000  0.4477840000000  0.4351450000000 1.0
C      1  0.5557120000000  0.5060080000000  0.5967990000000 1.0
C      1  0.4579860000000  0.5068450000000  0.6020050000000 1.0
C      1  0.3968850000000  0.5072510000000  0.5355230000000 1.0
C      1  0.4084990000000  0.5085810000000  0.4362600000000 1.0
C      1  0.4882160000000  0.5045220000000  0.3887870000000 1.0
C      1  0.5769670000000  0.5013130000000  0.4256560000000 1.0
C      1  0.6173340000000  0.4953320000000  0.5148480000000 1.0
C      1  0.5066630000000  0.4710310000000  0.5293940000000 1.0
C      1  0.4840680000000  0.4877370000000  0.5211890000000 1.0
C      1  0.4676040000000  0.4785310000000  0.4996710000000 1.0
C      1  0.4835270000000  0.4754350000000  0.4767300000000 1.0
C      1  0.5113650000000  0.4772370000000  0.4697790000000 1.0
C      1  0.5308590000000  0.4816750000000  0.4897150000000 1.0
C      1  0.5320150000000  0.4788030000000  0.5171550000000 1.0
C      1  0.5300000000000  0.5233980000000  0.4619460000000 1.0
C      1  0.5541570000000  0.5258410000000  0.5016080000000 1.0
C      1  0.5284650000000  0.5233820000000  0.5419530000000 1.0
C      1  0.4895000000000  0.5276560000000  0.5459010000000 1.0
C      1  0.4551070000000  0.5178290000000  0.5192830000000 1.0
C      1  0.4566600000000  0.5199170000000  0.4753770000000 1.0
C      1  0.4889320000000  0.5166080000000  0.4531570000000 1.0
C      1  0.4487460000000  0.4841100000000  0.5876620000000 1.0
C      1  0.3994700000000  0.4861830000000  0.5164980000000 1.0
C      1  0.4252080000000  0.4855050000000  0.4287860000000 1.0
C      1  0.5045360000000  0.4829810000000  0.3979560000000 1.0
C      1  0.5859010000000  0.4760410000000  0.4409560000000 1.0
C      1  0.6073880000000  0.4787750000000  0.5376650000000 1.0
C      1  0.5349800000000  0.4868550000000  0.5912540000000 1.0
C      1  0.4048930000000  0.5706290000000  0.4770610000000 1.0
C      1  0.4561270000000  0.5666880000000  0.4202350000000 1.0
C      1  0.5393960000000  0.5732340000000  0.4196300000000 1.0
C      1  0.5836470000000  0.5720600000000  0.4809130000000 1.0
C      1  0.5681830000000  0.5701360000000  0.5552630000000 1.0
C      1  0.4979960000000  0.5841310000000  0.5822000000000 1.0
C      1  0.4296920000000  0.5650980000000  0.5527730000000 1.0
C      1  0.5795850000000  0.5052760000000  0.5795840000000 1.0
C      1  0.4855330000000  0.5025890000000  0.6105600000000 1.0
C      1  0.4027510000000  0.4968890000000  0.5614890000000 1.0
C      1  0.3906880000000  0.5008060000000  0.4581630000000 1.0
C      1  0.4598740000000  0.4962160000000  0.3908380000000 1.0
C      1  0.5571160000000  0.5007250000000  0.4054230000000 1.0
C      1  0.6052270000000  0.5156630000000  0.4983830000000 1.0
C      1  0.5190280000000  0.4924110000000  0.4257020000000 1.0
C      1  0.5699170000000  0.4923760000000  0.4751210000000 1.0
C      1  0.5618550000000  0.4942520000000  0.5396530000000 1.0
C      1  0.5110420000000  0.4931200000000  0.5733950000000 1.0
C      1  0.4523230000000  0.4908090000000  0.5557910000000 1.0
C      1  0.4217280000000  0.4936330000000  0.4948210000000 1.0
C      1  0.4554270000000  0.4909690000000  0.4380970000000 1.0
C      1  0.5011240000000  0.5068860000000  0.5032160000000 1.0
C      1  0.4964580000000  0.5344240000000  0.4976710000000 1.0
C      1  0.5051060000000  0.4289720000000  0.5005730000000 1.0
C      1  0.4954620000000  0.4530690000000  0.5093400000000 1.0
END
