TITL C-2441168-9922-232 0.0604687698468266 125000 -19109.5570283757 0 0 137 (C1) n - 1
REM
REM in /home/bkarasulu/work/CARBON/AIRSS/Generating-Clusters/ReaxFF-fromJPCA2015/Units_Real/with-SteepDescent/Higher-Symm
REM
REM
REM
REM
REM
REM ./C.cell (1df0a924f5614ab8850e4351716899ee)
REM
REM compiler GCC version 9.2.1 20190827 (Red Hat 9.2.1-1)
REM options -cpp -mtune=generic -march=x86-64 -g -O0 -fpre-include=/usr/include/finclude/math-vector-fortran.h
REM seed 335384720 1713222613 1008510414 -1404745341 -1843694162 -1923467414 2019915431 -166324167 682600804 -1150348391 -440360163 716026683 794641845 -986632592 1953618305 208896046 1213176373 1407798986 1704261128 -1411772576 1664544637 200707854 -1561952978 1491617560 -502965064 -546241158 -1270531295 1571506481 -736579917 99574365 1193610613 1786665156 -1045666724
REM
CELL 1.54180   50.00000   50.00000   50.00000   90.00000   90.00000   90.00000
LATT -1
SFAC C  
C      1  0.5586660000000  0.4925500000000  0.5032950000000 1.0
C      1  0.4346410000000  0.4892310000000  0.5046190000000 1.0
C      1  0.4273260000000  0.5154360000000  0.5586490000000 1.0
C      1  0.5773570000000  0.5231460000000  0.5627910000000 1.0
C      1  0.5884240000000  0.4774490000000  0.4623440000000 1.0
C      1  0.4055720000000  0.4759290000000  0.4652170000000 1.0
C      1  0.4643730000000  0.4844090000000  0.5770800000000 1.0
C      1  0.5356650000000  0.4851100000000  0.5783860000000 1.0
C      1  0.5294020000000  0.5766710000000  0.5274080000000 1.0
C      1  0.4708500000000  0.5748570000000  0.5264310000000 1.0
C      1  0.4851020000000  0.4969810000000  0.4019350000000 1.0
C      1  0.5142710000000  0.4964510000000  0.4066770000000 1.0
C      1  0.5216880000000  0.4542200000000  0.5197550000000 1.0
C      1  0.4789460000000  0.4555800000000  0.5146490000000 1.0
C      1  0.5164510000000  0.5354440000000  0.4799670000000 1.0
C      1  0.4861490000000  0.5457840000000  0.4853540000000 1.0
C      1  0.4851200000000  0.4121860000000  0.5532650000000 1.0
C      1  0.5137310000000  0.4130320000000  0.5510420000000 1.0
C      1  0.4027700000000  0.5266740000000  0.5427050000000 1.0
C      1  0.5985710000000  0.5226600000000  0.5428990000000 1.0
C      1  0.4444340000000  0.4895430000000  0.5559560000000 1.0
C      1  0.5497750000000  0.4905690000000  0.5528440000000 1.0
C      1  0.5559420000000  0.5057160000000  0.4275170000000 1.0
C      1  0.4628170000000  0.5147530000000  0.4373350000000 1.0
C      1  0.4269190000000  0.4631940000000  0.5476460000000 1.0
C      1  0.5733530000000  0.4731660000000  0.5494770000000 1.0
C      1  0.5509080000000  0.4634110000000  0.4259010000000 1.0
C      1  0.4454200000000  0.4654110000000  0.4274710000000 1.0
C      1  0.4372510000000  0.4399670000000  0.4625490000000 1.0
C      1  0.5633400000000  0.4397740000000  0.4622400000000 1.0
C      1  0.4706190000000  0.4752370000000  0.4157660000000 1.0
C      1  0.5234850000000  0.4715710000000  0.4185750000000 1.0
C      1  0.4412900000000  0.5825440000000  0.4924530000000 1.0
C      1  0.5443970000000  0.5634730000000  0.4827060000000 1.0
C      1  0.5104340000000  0.5531790000000  0.5284270000000 1.0
C      1  0.4892290000000  0.5567340000000  0.5123650000000 1.0
C      1  0.4054780000000  0.5047150000000  0.4721440000000 1.0
C      1  0.5988310000000  0.5039390000000  0.4704350000000 1.0
C      1  0.4071850000000  0.4993210000000  0.5440220000000 1.0
C      1  0.5901930000000  0.4971930000000  0.5560320000000 1.0
C      1  0.4699990000000  0.5510530000000  0.5798210000000 1.0
C      1  0.5314120000000  0.5503940000000  0.5796850000000 1.0
C      1  0.4608470000000  0.5264130000000  0.4895300000000 1.0
C      1  0.5314290000000  0.5286970000000  0.5039190000000 1.0
C      1  0.6057240000000  0.5054090000000  0.4990070000000 1.0
C      1  0.3929490000000  0.5087110000000  0.4976580000000 1.0
C      1  0.4843610000000  0.5689360000000  0.4365520000000 1.0
C      1  0.5136770000000  0.5730470000000  0.4438920000000 1.0
C      1  0.4200760000000  0.4369710000000  0.4993550000000 1.0
C      1  0.5838290000000  0.4336860000000  0.4967290000000 1.0
C      1  0.5158870000000  0.5749570000000  0.5740770000000 1.0
C      1  0.4857230000000  0.5750600000000  0.5746590000000 1.0
C      1  0.4874430000000  0.4759630000000  0.5334290000000 1.0
C      1  0.5121130000000  0.4656880000000  0.5428270000000 1.0
C      1  0.4833730000000  0.5763700000000  0.4769450000000 1.0
C      1  0.5107060000000  0.5837760000000  0.4723750000000 1.0
C      1  0.5128510000000  0.4433720000000  0.5648250000000 1.0
C      1  0.4849800000000  0.4347240000000  0.5727250000000 1.0
C      1  0.5193690000000  0.5114230000000  0.5232200000000 1.0
C      1  0.4776130000000  0.5018360000000  0.5306040000000 1.0
C      1  0.4860240000000  0.4782660000000  0.4407330000000 1.0
C      1  0.5077540000000  0.4629230000000  0.4402260000000 1.0
C      1  0.4505300000000  0.4951980000000  0.5262130000000 1.0
C      1  0.5392080000000  0.4910310000000  0.5258350000000 1.0
C      1  0.5283630000000  0.5835170000000  0.4952580000000 1.0
C      1  0.4672530000000  0.5892300000000  0.4975820000000 1.0
C      1  0.4426730000000  0.4898520000000  0.4709380000000 1.0
C      1  0.5509490000000  0.5034890000000  0.4775400000000 1.0
C      1  0.4378280000000  0.5266840000000  0.4438940000000 1.0
C      1  0.5711090000000  0.5279860000000  0.4381090000000 1.0
C      1  0.5576680000000  0.4499500000000  0.5569680000000 1.0
C      1  0.4443150000000  0.4501420000000  0.5645820000000 1.0
C      1  0.5520390000000  0.5583000000000  0.5383430000000 1.0
C      1  0.4524930000000  0.5530150000000  0.5345620000000 1.0
C      1  0.5150220000000  0.5307550000000  0.5937690000000 1.0
C      1  0.4856950000000  0.5316560000000  0.5943420000000 1.0
C      1  0.5534220000000  0.5419640000000  0.5617890000000 1.0
C      1  0.4565740000000  0.5376240000000  0.5577880000000 1.0
C      1  0.4757920000000  0.4277090000000  0.4539580000000 1.0
C      1  0.5277500000000  0.4218780000000  0.4525880000000 1.0
C      1  0.5648840000000  0.4171110000000  0.4803220000000 1.0
C      1  0.4385150000000  0.4195400000000  0.4827530000000 1.0
C      1  0.5147090000000  0.5902010000000  0.5491620000000 1.0
C      1  0.4858660000000  0.5893960000000  0.5492730000000 1.0
C      1  0.4353880000000  0.5528740000000  0.4367600000000 1.0
C      1  0.5649040000000  0.5562100000000  0.4348690000000 1.0
C      1  0.4833520000000  0.5028450000000  0.4551760000000 1.0
C      1  0.5220550000000  0.5087180000000  0.4688310000000 1.0
C      1  0.4271870000000  0.4803070000000  0.4458780000000 1.0
C      1  0.5665790000000  0.4821090000000  0.4414760000000 1.0
C      1  0.4502130000000  0.4627310000000  0.4760330000000 1.0
C      1  0.5481550000000  0.4549240000000  0.4836880000000 1.0
C      1  0.3965300000000  0.5325580000000  0.5140250000000 1.0
C      1  0.6024110000000  0.5298330000000  0.5143330000000 1.0
C      1  0.4604610000000  0.4348590000000  0.5242030000000 1.0
C      1  0.5441860000000  0.4372280000000  0.5304400000000 1.0
C      1  0.4852520000000  0.5039730000000  0.5824200000000 1.0
C      1  0.5148850000000  0.5019660000000  0.5898910000000 1.0
C      1  0.4451030000000  0.5373260000000  0.5112310000000 1.0
C      1  0.5561900000000  0.5403690000000  0.5160160000000 1.0
C      1  0.5090400000000  0.4899920000000  0.4860190000000 1.0
C      1  0.4807950000000  0.4971760000000  0.4848490000000 1.0
C      1  0.4060460000000  0.4614350000000  0.4913560000000 1.0
C      1  0.5920450000000  0.4607100000000  0.4862930000000 1.0
C      1  0.5732060000000  0.5180440000000  0.4658200000000 1.0
C      1  0.4346850000000  0.5179580000000  0.4704140000000 1.0
C      1  0.4534320000000  0.4389620000000  0.4381360000000 1.0
C      1  0.5488980000000  0.4359060000000  0.4377730000000 1.0
C      1  0.4184570000000  0.5471780000000  0.5014300000000 1.0
C      1  0.5812970000000  0.5458410000000  0.5016150000000 1.0
C      1  0.4655640000000  0.4554650000000  0.5821140000000 1.0
C      1  0.5382340000000  0.4559410000000  0.5768570000000 1.0
C      1  0.4676370000000  0.4145610000000  0.4790370000000 1.0
C      1  0.5359040000000  0.4109970000000  0.4785990000000 1.0
C      1  0.4289400000000  0.5737650000000  0.4538850000000 1.0
C      1  0.5727760000000  0.5738330000000  0.4556820000000 1.0
C      1  0.4317770000000  0.4424810000000  0.5258660000000 1.0
C      1  0.5605620000000  0.4466000000000  0.5078680000000 1.0
C      1  0.5743500000000  0.5679310000000  0.4835910000000 1.0
C      1  0.4188060000000  0.5701970000000  0.4823230000000 1.0
C      1  0.5214330000000  0.4641660000000  0.4924820000000 1.0
C      1  0.4722440000000  0.4686570000000  0.4907890000000 1.0
C      1  0.4894130000000  0.5456270000000  0.4185650000000 1.0
C      1  0.5156570000000  0.5424170000000  0.4267930000000 1.0
C      1  0.4816500000000  0.5200840000000  0.5523900000000 1.0
C      1  0.5082870000000  0.5288430000000  0.5427480000000 1.0
C      1  0.4731260000000  0.5217050000000  0.4109020000000 1.0
C      1  0.5292680000000  0.5183350000000  0.4189170000000 1.0
C      1  0.4731160000000  0.4086610000000  0.5262060000000 1.0
C      1  0.5280750000000  0.4098900000000  0.5267940000000 1.0
C      1  0.5424260000000  0.5640260000000  0.4527100000000 1.0
C      1  0.4565880000000  0.5681450000000  0.4459530000000 1.0
C      1  0.5873320000000  0.4829540000000  0.5054220000000 1.0
C      1  0.4063490000000  0.4850290000000  0.5123810000000 1.0
C      1  0.4864350000000  0.4060790000000  0.5001480000000 1.0
C      1  0.5163860000000  0.4059670000000  0.5005270000000 1.0
C      1  0.5030840000000  0.4367320000000  0.4491710000000 1.0
END
