TITL C-2441162-9305-1036 0.0788251704830717 125000 -21398.0399397375 0 0 157 (C1) n - 1
REM
REM in /home/bkarasulu/work/CARBON/AIRSS/Generating-Clusters/ReaxFF-fromJPCA2015/Units_Real/with-SteepDescent/Higher-Symm
REM
REM
REM
REM
REM
REM ./C.cell (1df0a924f5614ab8850e4351716899ee)
REM
REM compiler GCC version 9.2.1 20190827 (Red Hat 9.2.1-1)
REM options -cpp -mtune=generic -march=x86-64 -g -O0 -fpre-include=/usr/include/finclude/math-vector-fortran.h
REM seed -1432578526 -1777056087 1683178260 -754911466 1312019870 -1322620186 1365471619 -1400254225 -1148885396 1088096406 -189462144 1161207721 775914113 833281998 516233915 -1617464268 1028915639 1261698738 -634927029 -258453870 -1191137910 1465962053 1381628684 -1455998635 210665132 -1807432739 -1493085907 1085190964 26902438 1128620038 862264235 -1158743838 -1755600381
REM
CELL 1.54180   50.00000   50.00000   50.00000   90.00000   90.00000   90.00000
LATT -1
SFAC C  
C      1  0.5311450000000  0.5845830000000  0.5544840000000 1.0
C      1  0.4851950000000  0.4456620000000  0.4265780000000 1.0
C      1  0.5484300000000  0.4974780000000  0.5358160000000 1.0
C      1  0.5008020000000  0.4863500000000  0.5363790000000 1.0
C      1  0.5258300000000  0.4136470000000  0.5033400000000 1.0
C      1  0.4163600000000  0.5184350000000  0.5399700000000 1.0
C      1  0.4975090000000  0.4426980000000  0.5501160000000 1.0
C      1  0.4497860000000  0.5614080000000  0.4338460000000 1.0
C      1  0.4590670000000  0.5433030000000  0.4128630000000 1.0
C      1  0.4349990000000  0.4005980000000  0.4891990000000 1.0
C      1  0.4846900000000  0.4164900000000  0.4748360000000 1.0
C      1  0.5296150000000  0.5732830000000  0.4617170000000 1.0
C      1  0.5631140000000  0.5468140000000  0.4256840000000 1.0
C      1  0.3969780000000  0.4842190000000  0.4977920000000 1.0
C      1  0.5658800000000  0.4710030000000  0.4454690000000 1.0
C      1  0.5087350000000  0.5703240000000  0.5660350000000 1.0
C      1  0.5153270000000  0.4517450000000  0.4332340000000 1.0
C      1  0.5259360000000  0.5980230000000  0.5278600000000 1.0
C      1  0.5543250000000  0.4264810000000  0.5611630000000 1.0
C      1  0.4577790000000  0.4573670000000  0.5752110000000 1.0
C      1  0.4066510000000  0.4634340000000  0.5140650000000 1.0
C      1  0.4475320000000  0.5773560000000  0.5543470000000 1.0
C      1  0.5749380000000  0.5242450000000  0.5683990000000 1.0
C      1  0.4860700000000  0.4957520000000  0.5781330000000 1.0
C      1  0.5865060000000  0.4567600000000  0.5356140000000 1.0
C      1  0.4963980000000  0.4481320000000  0.5043880000000 1.0
C      1  0.4553820000000  0.5623690000000  0.5759560000000 1.0
C      1  0.5539510000000  0.4276030000000  0.4622740000000 1.0
C      1  0.5279930000000  0.4753510000000  0.5817350000000 1.0
C      1  0.5284270000000  0.4281440000000  0.5784830000000 1.0
C      1  0.4092200000000  0.4943600000000  0.5545980000000 1.0
C      1  0.4264150000000  0.4446550000000  0.4727780000000 1.0
C      1  0.4378170000000  0.5239620000000  0.4142520000000 1.0
C      1  0.4342530000000  0.5036690000000  0.4684810000000 1.0
C      1  0.5232760000000  0.5312550000000  0.4424820000000 1.0
C      1  0.4522190000000  0.4641870000000  0.5463910000000 1.0
C      1  0.5648640000000  0.4367930000000  0.5350900000000 1.0
C      1  0.5403960000000  0.4736270000000  0.4928780000000 1.0
C      1  0.5904160000000  0.4657240000000  0.4641420000000 1.0
C      1  0.5703770000000  0.4939740000000  0.5160670000000 1.0
C      1  0.5767780000000  0.5567330000000  0.4880950000000 1.0
C      1  0.4184270000000  0.5108360000000  0.4292570000000 1.0
C      1  0.5483260000000  0.5039710000000  0.4081660000000 1.0
C      1  0.5222060000000  0.4584830000000  0.5106450000000 1.0
C      1  0.5132200000000  0.4117220000000  0.4768300000000 1.0
C      1  0.5060120000000  0.5693060000000  0.4866200000000 1.0
C      1  0.5305160000000  0.5444110000000  0.4665150000000 1.0
C      1  0.5272860000000  0.5627080000000  0.5053900000000 1.0
C      1  0.5516110000000  0.4869770000000  0.5945560000000 1.0
C      1  0.5464770000000  0.5840850000000  0.5110560000000 1.0
C      1  0.5285450000000  0.4793310000000  0.5494650000000 1.0
C      1  0.4696120000000  0.4955180000000  0.6022820000000 1.0
C      1  0.5975040000000  0.5136950000000  0.4886030000000 1.0
C      1  0.4319150000000  0.4993450000000  0.5723480000000 1.0
C      1  0.4434530000000  0.4819920000000  0.4832890000000 1.0
C      1  0.4288100000000  0.5612410000000  0.5437690000000 1.0
C      1  0.5679710000000  0.4758410000000  0.5752960000000 1.0
C      1  0.4568700000000  0.5400550000000  0.5909690000000 1.0
C      1  0.3942450000000  0.5054250000000  0.4810170000000 1.0
C      1  0.5872480000000  0.4794590000000  0.5555580000000 1.0
C      1  0.5340490000000  0.5468770000000  0.4187890000000 1.0
C      1  0.4778600000000  0.5272110000000  0.4611100000000 1.0
C      1  0.4691820000000  0.5886470000000  0.4748670000000 1.0
C      1  0.5220000000000  0.5706740000000  0.4317670000000 1.0
C      1  0.5170040000000  0.4078860000000  0.5607700000000 1.0
C      1  0.5543640000000  0.5692910000000  0.5527440000000 1.0
C      1  0.5574750000000  0.5170640000000  0.5909500000000 1.0
C      1  0.4895690000000  0.5399740000000  0.4880280000000 1.0
C      1  0.5217100000000  0.5145720000000  0.4034730000000 1.0
C      1  0.4829460000000  0.4978480000000  0.4521440000000 1.0
C      1  0.4941920000000  0.5380140000000  0.4367800000000 1.0
C      1  0.4899990000000  0.4155310000000  0.5415300000000 1.0
C      1  0.4397440000000  0.4900860000000  0.5109080000000 1.0
C      1  0.5677820000000  0.5637480000000  0.4481120000000 1.0
C      1  0.4290970000000  0.5695090000000  0.4932720000000 1.0
C      1  0.5074810000000  0.5147600000000  0.5797580000000 1.0
C      1  0.4726540000000  0.4233100000000  0.4491260000000 1.0
C      1  0.5866660000000  0.4526210000000  0.4877300000000 1.0
C      1  0.5157740000000  0.4648140000000  0.4601600000000 1.0
C      1  0.4630100000000  0.5071420000000  0.5078450000000 1.0
C      1  0.4684130000000  0.5845170000000  0.5298390000000 1.0
C      1  0.4747310000000  0.5505690000000  0.5257960000000 1.0
C      1  0.5085770000000  0.5436170000000  0.5871720000000 1.0
C      1  0.5891890000000  0.5091800000000  0.5484330000000 1.0
C      1  0.4865270000000  0.4642020000000  0.4817710000000 1.0
C      1  0.5098270000000  0.5254470000000  0.5061080000000 1.0
C      1  0.4999950000000  0.6023800000000  0.5167410000000 1.0
C      1  0.4861460000000  0.4482850000000  0.5762530000000 1.0
C      1  0.5507480000000  0.5427240000000  0.5599560000000 1.0
C      1  0.5533160000000  0.4223890000000  0.5112890000000 1.0
C      1  0.5112380000000  0.4932220000000  0.4578960000000 1.0
C      1  0.4464530000000  0.4602020000000  0.4402330000000 1.0
C      1  0.5604510000000  0.5761260000000  0.4721740000000 1.0
C      1  0.4446400000000  0.4326780000000  0.4522680000000 1.0
C      1  0.4833160000000  0.4892840000000  0.4971500000000 1.0
C      1  0.4481800000000  0.4425810000000  0.5247980000000 1.0
C      1  0.5372640000000  0.4287290000000  0.4405970000000 1.0
C      1  0.4100360000000  0.4944670000000  0.4537680000000 1.0
C      1  0.4415110000000  0.4971810000000  0.4166760000000 1.0
C      1  0.5523410000000  0.4765840000000  0.4176080000000 1.0
C      1  0.5211690000000  0.4059010000000  0.4487880000000 1.0
C      1  0.4589520000000  0.4186280000000  0.5361230000000 1.0
C      1  0.5119590000000  0.5218450000000  0.5523080000000 1.0
C      1  0.5873210000000  0.4686270000000  0.5101740000000 1.0
C      1  0.4276400000000  0.4460680000000  0.5029490000000 1.0
C      1  0.5338730000000  0.5362440000000  0.4940270000000 1.0
C      1  0.4966010000000  0.4061280000000  0.4315940000000 1.0
C      1  0.4937520000000  0.5689910000000  0.4329190000000 1.0
C      1  0.4954660000000  0.4214600000000  0.4075360000000 1.0
C      1  0.5826590000000  0.4990960000000  0.4412820000000 1.0
C      1  0.5511390000000  0.5003660000000  0.4953950000000 1.0
C      1  0.4726150000000  0.5019820000000  0.4191340000000 1.0
C      1  0.4644530000000  0.4745080000000  0.4644370000000 1.0
C      1  0.5263720000000  0.4681150000000  0.4121510000000 1.0
C      1  0.5353330000000  0.5072890000000  0.4529210000000 1.0
C      1  0.5572870000000  0.5115470000000  0.4708130000000 1.0
C      1  0.4807910000000  0.4824720000000  0.4016270000000 1.0
C      1  0.4841350000000  0.5277820000000  0.4119350000000 1.0
C      1  0.4636130000000  0.5345540000000  0.5476850000000 1.0
C      1  0.4188540000000  0.4647850000000  0.4527930000000 1.0
C      1  0.4056540000000  0.5366760000000  0.5205690000000 1.0
C      1  0.5802010000000  0.5309210000000  0.4733230000000 1.0
C      1  0.4167280000000  0.5618990000000  0.5198260000000 1.0
C      1  0.4828250000000  0.5460820000000  0.6018870000000 1.0
C      1  0.4770100000000  0.4859980000000  0.5518920000000 1.0
C      1  0.5392850000000  0.5391380000000  0.5886030000000 1.0
C      1  0.4244920000000  0.4774930000000  0.5354610000000 1.0
C      1  0.4156920000000  0.5514870000000  0.4745520000000 1.0
C      1  0.4566260000000  0.5764840000000  0.4975100000000 1.0
C      1  0.4943330000000  0.5967410000000  0.4890550000000 1.0
C      1  0.5684420000000  0.4295900000000  0.4864610000000 1.0
C      1  0.5706180000000  0.5179120000000  0.4235180000000 1.0
C      1  0.4696580000000  0.5785910000000  0.4463630000000 1.0
C      1  0.5417780000000  0.4053550000000  0.5469390000000 1.0
C      1  0.4023160000000  0.5315010000000  0.4911870000000 1.0
C      1  0.5129700000000  0.4514590000000  0.5884800000000 1.0
C      1  0.4899900000000  0.5366540000000  0.5465380000000 1.0
C      1  0.5667410000000  0.5708600000000  0.5283010000000 1.0
C      1  0.4501980000000  0.4002560000000  0.5160470000000 1.0
C      1  0.4480850000000  0.5264000000000  0.4613000000000 1.0
C      1  0.5436290000000  0.4673370000000  0.4659840000000 1.0
C      1  0.4902130000000  0.5805700000000  0.5488420000000 1.0
C      1  0.5796040000000  0.5485780000000  0.5155090000000 1.0
C      1  0.4416780000000  0.5188740000000  0.5524190000000 1.0
C      1  0.4297880000000  0.5452160000000  0.4489810000000 1.0
C      1  0.4477960000000  0.4812920000000  0.5891120000000 1.0
C      1  0.4608880000000  0.4150880000000  0.4915630000000 1.0
C      1  0.4691290000000  0.5229590000000  0.6114300000000 1.0
C      1  0.4997050000000  0.4212260000000  0.5140500000000 1.0
C      1  0.5365730000000  0.5231530000000  0.5371300000000 1.0
C      1  0.5224070000000  0.4519340000000  0.5386920000000 1.0
C      1  0.5094260000000  0.4889040000000  0.4001890000000 1.0
C      1  0.5911090000000  0.5205450000000  0.5195570000000 1.0
C      1  0.4646010000000  0.5361650000000  0.5023880000000 1.0
C      1  0.4644370000000  0.4627320000000  0.4143790000000 1.0
C      1  0.5986660000000  0.4938530000000  0.4663840000000 1.0
C      1  0.5056370000000  0.4973510000000  0.5107270000000 1.0
END
