TITL C-2441159-1093-1160 0.129879132116692 125000 -24753.7791712483 0 0 184 (C1) n - 1
REM
REM in /home/bkarasulu/work/CARBON/AIRSS/Generating-Clusters/ReaxFF-fromJPCA2015/Units_Real/with-SteepDescent/Higher-Symm
REM
REM
REM
REM
REM
REM ./C.cell (1df0a924f5614ab8850e4351716899ee)
REM
REM compiler GCC version 9.2.1 20190827 (Red Hat 9.2.1-1)
REM options -cpp -mtune=generic -march=x86-64 -g -O0 -fpre-include=/usr/include/finclude/math-vector-fortran.h
REM seed 394116973 238280683 649699602 -2081298139 755857749 358846640 -1505941782 1260013958 -1114624613 -164259787 -816011052 -1989506855 311406814 393198602 967462932 43762966 -801538884 -2120121204 -673712635 1465229967 2130716829 338392232 -2007010985 495476794 -873049368 262591133 1959942129 1712955779 1768795250 1500989028 -456839053 -1354721616 1539905249
REM
CELL 1.54180   50.00000   50.00000   50.00000   90.00000   90.00000   90.00000
LATT -1
SFAC C  
C      1  0.4200130000000  0.5348100000000  0.5191350000000 1.0
C      1  0.4503900000000  0.4595470000000  0.5600180000000 1.0
C      1  0.4910070000000  0.5429670000000  0.5813170000000 1.0
C      1  0.5421020000000  0.4704060000000  0.5752540000000 1.0
C      1  0.5746300000000  0.5366310000000  0.5320310000000 1.0
C      1  0.5755370000000  0.4581700000000  0.4805290000000 1.0
C      1  0.5526030000000  0.5409550000000  0.4421640000000 1.0
C      1  0.5098140000000  0.4694340000000  0.4110350000000 1.0
C      1  0.4597590000000  0.5396600000000  0.4332320000000 1.0
C      1  0.4280620000000  0.4626560000000  0.4652370000000 1.0
C      1  0.3994360000000  0.4947760000000  0.5442810000000 1.0
C      1  0.4485320000000  0.5105790000000  0.5953230000000 1.0
C      1  0.5173750000000  0.4930300000000  0.6059740000000 1.0
C      1  0.5747840000000  0.5092280000000  0.5802130000000 1.0
C      1  0.6074450000000  0.4894220000000  0.5188540000000 1.0
C      1  0.5991020000000  0.5117810000000  0.4533340000000 1.0
C      1  0.5501120000000  0.4929610000000  0.4055210000000 1.0
C      1  0.4863420000000  0.5066130000000  0.3904070000000 1.0
C      1  0.4242210000000  0.4905410000000  0.4217340000000 1.0
C      1  0.3903120000000  0.5041110000000  0.4867630000000 1.0
C      1  0.5583300000000  0.5660590000000  0.4550510000000 1.0
C      1  0.5164540000000  0.4297710000000  0.4222180000000 1.0
C      1  0.4713190000000  0.5653410000000  0.4269050000000 1.0
C      1  0.4366800000000  0.4353130000000  0.4589950000000 1.0
C      1  0.4219690000000  0.5616000000000  0.5100280000000 1.0
C      1  0.4391910000000  0.4350430000000  0.5496190000000 1.0
C      1  0.4809020000000  0.5691510000000  0.5747390000000 1.0
C      1  0.5303500000000  0.4263630000000  0.5690220000000 1.0
C      1  0.5653830000000  0.5634830000000  0.5364810000000 1.0
C      1  0.5743520000000  0.4356190000000  0.4962110000000 1.0
C      1  0.4606370000000  0.5219850000000  0.5046140000000 1.0
C      1  0.4776810000000  0.4824870000000  0.5096430000000 1.0
C      1  0.4835110000000  0.5107000000000  0.5183380000000 1.0
C      1  0.5195730000000  0.4818860000000  0.5325160000000 1.0
C      1  0.5154140000000  0.5118060000000  0.5186010000000 1.0
C      1  0.5382570000000  0.4788810000000  0.4948810000000 1.0
C      1  0.5212840000000  0.5160150000000  0.4901440000000 1.0
C      1  0.5160070000000  0.4887700000000  0.4810440000000 1.0
C      1  0.4861600000000  0.5139740000000  0.4711940000000 1.0
C      1  0.4741910000000  0.4858930000000  0.4806030000000 1.0
C      1  0.5985620000000  0.5015580000000  0.4939510000000 1.0
C      1  0.5774000000000  0.4993120000000  0.4378620000000 1.0
C      1  0.5279440000000  0.5130930000000  0.4057920000000 1.0
C      1  0.4648280000000  0.4929340000000  0.4071730000000 1.0
C      1  0.4163440000000  0.5086190000000  0.4458250000000 1.0
C      1  0.4032220000000  0.4813260000000  0.5037770000000 1.0
C      1  0.4222420000000  0.5038380000000  0.5622860000000 1.0
C      1  0.4736420000000  0.4940240000000  0.5968190000000 1.0
C      1  0.5326940000000  0.5144080000000  0.5901860000000 1.0
C      1  0.5851490000000  0.4968900000000  0.5548130000000 1.0
C      1  0.5068040000000  0.4839390000000  0.3885070000000 1.0
C      1  0.4397660000000  0.5087380000000  0.4063260000000 1.0
C      1  0.3969600000000  0.4911980000000  0.4604290000000 1.0
C      1  0.3931060000000  0.5173530000000  0.5257930000000 1.0
C      1  0.4297000000000  0.4905610000000  0.5872810000000 1.0
C      1  0.4937210000000  0.5091630000000  0.6122620000000 1.0
C      1  0.5601000000000  0.4856340000000  0.5930490000000 1.0
C      1  0.6059230000000  0.5100880000000  0.5388000000000 1.0
C      1  0.6068220000000  0.4885880000000  0.4694610000000 1.0
C      1  0.5716580000000  0.5113340000000  0.4120900000000 1.0
C      1  0.3991540000000  0.4626890000000  0.4661450000000 1.0
C      1  0.4032230000000  0.5382840000000  0.5421010000000 1.0
C      1  0.4432010000000  0.4636140000000  0.5880050000000 1.0
C      1  0.5018630000000  0.5370360000000  0.6072480000000 1.0
C      1  0.5689700000000  0.4607750000000  0.5795290000000 1.0
C      1  0.6019840000000  0.5341420000000  0.5236180000000 1.0
C      1  0.5946110000000  0.4632520000000  0.4598070000000 1.0
C      1  0.5619430000000  0.5390890000000  0.4147560000000 1.0
C      1  0.4913110000000  0.4589690000000  0.3934780000000 1.0
C      1  0.4359440000000  0.5366360000000  0.4169190000000 1.0
C      1  0.5328120000000  0.4133430000000  0.5110060000000 1.0
C      1  0.5306760000000  0.5871350000000  0.4906690000000 1.0
C      1  0.5230540000000  0.4170720000000  0.4649720000000 1.0
C      1  0.4983610000000  0.5832650000000  0.4571010000000 1.0
C      1  0.4778960000000  0.4101540000000  0.4710560000000 1.0
C      1  0.4598800000000  0.5837960000000  0.4882340000000 1.0
C      1  0.4586840000000  0.4145130000000  0.5136810000000 1.0
C      1  0.4839710000000  0.5866570000000  0.5262680000000 1.0
C      1  0.4985770000000  0.4172290000000  0.5428660000000 1.0
C      1  0.5281520000000  0.5835640000000  0.5344170000000 1.0
C      1  0.5759600000000  0.4333690000000  0.5457870000000 1.0
C      1  0.5883810000000  0.5684020000000  0.4942600000000 1.0
C      1  0.5630120000000  0.4313440000000  0.4403640000000 1.0
C      1  0.5203830000000  0.5651050000000  0.4151500000000 1.0
C      1  0.4663710000000  0.4356940000000  0.4173210000000 1.0
C      1  0.4235710000000  0.5632680000000  0.4581070000000 1.0
C      1  0.4127290000000  0.4329130000000  0.5071740000000 1.0
C      1  0.4335510000000  0.5673500000000  0.5563920000000 1.0
C      1  0.4828760000000  0.4363270000000  0.5854640000000 1.0
C      1  0.5360520000000  0.5650700000000  0.5799310000000 1.0
C      1  0.4714310000000  0.4413760000000  0.5070300000000 1.0
C      1  0.4848160000000  0.5551170000000  0.5219720000000 1.0
C      1  0.4965560000000  0.4442620000000  0.5287240000000 1.0
C      1  0.5170960000000  0.5561390000000  0.5233830000000 1.0
C      1  0.5207010000000  0.4426020000000  0.5087260000000 1.0
C      1  0.5274220000000  0.5560710000000  0.4928670000000 1.0
C      1  0.5149930000000  0.4446090000000  0.4752560000000 1.0
C      1  0.5017520000000  0.5564370000000  0.4713120000000 1.0
C      1  0.4842440000000  0.4422200000000  0.4754470000000 1.0
C      1  0.4743380000000  0.5562540000000  0.4902580000000 1.0
C      1  0.5376010000000  0.4646600000000  0.5184740000000 1.0
C      1  0.5447620000000  0.5326310000000  0.4873630000000 1.0
C      1  0.5212100000000  0.4707070000000  0.4589080000000 1.0
C      1  0.5010900000000  0.5315890000000  0.4544700000000 1.0
C      1  0.4734000000000  0.4647050000000  0.4600430000000 1.0
C      1  0.4527460000000  0.5372270000000  0.4828580000000 1.0
C      1  0.4562080000000  0.4654890000000  0.5150080000000 1.0
C      1  0.4776870000000  0.5317360000000  0.5389040000000 1.0
C      1  0.4988130000000  0.4693410000000  0.5467130000000 1.0
C      1  0.5265750000000  0.5315470000000  0.5362080000000 1.0
C      1  0.5143420000000  0.5133450000000  0.4335250000000 1.0
C      1  0.4748860000000  0.4845360000000  0.4385940000000 1.0
C      1  0.4416630000000  0.5124970000000  0.4657910000000 1.0
C      1  0.4329470000000  0.4846780000000  0.5064710000000 1.0
C      1  0.4472120000000  0.5076210000000  0.5470950000000 1.0
C      1  0.4851940000000  0.4896760000000  0.5644970000000 1.0
C      1  0.5251550000000  0.5170440000000  0.5614560000000 1.0
C      1  0.5620380000000  0.4902930000000  0.5378240000000 1.0
C      1  0.5680460000000  0.5131200000000  0.4936490000000 1.0
C      1  0.5532550000000  0.4919470000000  0.4527560000000 1.0
C      1  0.5211160000000  0.5846890000000  0.5626000000000 1.0
C      1  0.5521780000000  0.4208000000000  0.5548690000000 1.0
C      1  0.5723810000000  0.5806140000000  0.5149840000000 1.0
C      1  0.5518350000000  0.4144970000000  0.4620920000000 1.0
C      1  0.5210950000000  0.5834380000000  0.4389040000000 1.0
C      1  0.4915340000000  0.4196680000000  0.4261620000000 1.0
C      1  0.4456400000000  0.5830570000000  0.4627690000000 1.0
C      1  0.4340940000000  0.4145090000000  0.4983980000000 1.0
C      1  0.4340830000000  0.5791620000000  0.5292030000000 1.0
C      1  0.4784040000000  0.4158250000000  0.5631630000000 1.0
C      1  0.5599800000000  0.4828910000000  0.4806800000000 1.0
C      1  0.5386510000000  0.5168350000000  0.4498380000000 1.0
C      1  0.5049170000000  0.4815900000000  0.4356900000000 1.0
C      1  0.4660290000000  0.5128390000000  0.4500300000000 1.0
C      1  0.4428900000000  0.4865850000000  0.4785860000000 1.0
C      1  0.4400550000000  0.5124220000000  0.5195940000000 1.0
C      1  0.4621720000000  0.4842600000000  0.5505670000000 1.0
C      1  0.4927870000000  0.5209640000000  0.5614370000000 1.0
C      1  0.5373510000000  0.4884450000000  0.5531140000000 1.0
C      1  0.5608850000000  0.5136420000000  0.5217980000000 1.0
C      1  0.4408020000000  0.5366800000000  0.5837080000000 1.0
C      1  0.5092050000000  0.4667710000000  0.5991850000000 1.0
C      1  0.5662290000000  0.5358680000000  0.5781480000000 1.0
C      1  0.5989330000000  0.4636790000000  0.5306440000000 1.0
C      1  0.5978520000000  0.5370160000000  0.4691210000000 1.0
C      1  0.5566780000000  0.4667500000000  0.4179130000000 1.0
C      1  0.4900740000000  0.5325460000000  0.3976790000000 1.0
C      1  0.4348350000000  0.4640640000000  0.4166400000000 1.0
C      1  0.3982000000000  0.5313990000000  0.4861290000000 1.0
C      1  0.4019680000000  0.4667110000000  0.5407110000000 1.0
C      1  0.6051500000000  0.5447590000000  0.4967510000000 1.0
C      1  0.5780660000000  0.4560900000000  0.4360950000000 1.0
C      1  0.5350560000000  0.5420660000000  0.4040850000000 1.0
C      1  0.4615870000000  0.4594980000000  0.3996550000000 1.0
C      1  0.4184580000000  0.5415960000000  0.4395250000000 1.0
C      1  0.3973850000000  0.4544500000000  0.4947450000000 1.0
C      1  0.4177420000000  0.5446400000000  0.5662890000000 1.0
C      1  0.4696500000000  0.4591430000000  0.5981890000000 1.0
C      1  0.5299290000000  0.5423920000000  0.5987010000000 1.0
C      1  0.5887880000000  0.4565480000000  0.5580380000000 1.0
C      1  0.5426850000000  0.4393720000000  0.4197190000000 1.0
C      1  0.4929870000000  0.5590000000000  0.4065250000000 1.0
C      1  0.4407600000000  0.4392040000000  0.4303200000000 1.0
C      1  0.4087250000000  0.5576620000000  0.4841020000000 1.0
C      1  0.4134300000000  0.4409680000000  0.5356510000000 1.0
C      1  0.4538890000000  0.5611580000000  0.5751720000000 1.0
C      1  0.5120830000000  0.4421260000000  0.5863680000000 1.0
C      1  0.5617560000000  0.5611030000000  0.5668250000000 1.0
C      1  0.5856680000000  0.4404170000000  0.5202910000000 1.0
C      1  0.5824490000000  0.5612670000000  0.4674840000000 1.0
C      1  0.4987590000000  0.4066660000000  0.4517470000000 1.0
C      1  0.4705240000000  0.5865520000000  0.4470110000000 1.0
C      1  0.4484400000000  0.4126370000000  0.4730210000000 1.0
C      1  0.4562420000000  0.5922380000000  0.5159580000000 1.0
C      1  0.4566810000000  0.4123840000000  0.5434320000000 1.0
C      1  0.4930350000000  0.5877980000000  0.5564860000000 1.0
C      1  0.5272600000000  0.4078330000000  0.5463980000000 1.0
C      1  0.5471510000000  0.5931460000000  0.5143180000000 1.0
C      1  0.5562210000000  0.4153630000000  0.4905500000000 1.0
C      1  0.5397530000000  0.5872810000000  0.4607190000000 1.0
C      1  0.5029440000000  0.5994120000000  0.5024000000000 1.0
C      1  0.5108670000000  0.3976140000000  0.5030330000000 1.0
C      1  0.4879540000000  0.3867870000000  0.4932360000000 1.0
C      1  0.4970440000000  0.6220690000000  0.4954770000000 1.0
END
