TITL C-2441167-4473-249 0.000577209421049438 125000 -2337.46842811292 0 0 18 (C2) n - 1
REM
REM in /home/bkarasulu/work/CARBON/AIRSS/Generating-Clusters/ReaxFF-fromJPCA2015/Units_Real/with-SteepDescent/Higher-Symm
REM
REM
REM
REM
REM
REM ./C.cell (1df0a924f5614ab8850e4351716899ee)
REM
REM compiler GCC version 9.2.1 20190827 (Red Hat 9.2.1-1)
REM options -cpp -mtune=generic -march=x86-64 -g -O0 -fpre-include=/usr/include/finclude/math-vector-fortran.h
REM seed -1514526517 1453849887 -45277814 551426049 -137801642 1677091609 1946879232 -1024193210 -552504911 -299094414 -1833232569 1572865448 147315988 -724075756 980564836 824804386 1764617463 334435913 447838686 -677750984 -1101122345 -1890695354 -498765428 -546978095 1858856302 817407382 -891807050 -2032169734 1152024142 -1320114274 -723598802 1415805487 -2099829432
REM
CELL 1.54180   50.00000   50.00000   50.00000   90.00000   90.00000   90.00000
LATT -1
SFAC C  
C      1  0.5185460000000  0.5504120000000  0.5309510000000 1.0
C      1  0.4814540000000  0.5504120000000  0.4690490000000 1.0
C      1  0.5299360000000  0.5168610000000  0.4919330000000 1.0
C      1  0.4700640000000  0.5168610000000  0.5080670000000 1.0
C      1  0.4914880000000  0.5094160000000  0.5255720000000 1.0
C      1  0.5085120000000  0.5094160000000  0.4744280000000 1.0
C      1  0.4471570000000  0.5004070000000  0.5056860000000 1.0
C      1  0.5528430000000  0.5004070000000  0.4943140000000 1.0
C      1  0.5438050000000  0.4814160000000  0.5081390000000 1.0
C      1  0.4561950000000  0.4814160000000  0.4918610000000 1.0
C      1  0.4980420000000  0.4807670000000  0.5339390000000 1.0
C      1  0.5019580000000  0.4807670000000  0.4660610000000 1.0
C      1  0.4736700000000  0.4672360000000  0.4770510000000 1.0
C      1  0.5263300000000  0.4672360000000  0.5229490000000 1.0
C      1  0.5173040000000  0.4663550000000  0.4512720000000 1.0
C      1  0.4826960000000  0.4663550000000  0.5487280000000 1.0
C      1  0.5155000000000  0.5271330000000  0.5202450000000 1.0
C      1  0.4845000000000  0.5271330000000  0.4797550000000 1.0
END
