TITL C-2441165-58-964 0.00439352438720335 125000 -2120.90762024604 0 0 18 (D2h) n - 1
REM
REM in /home/bkarasulu/work/CARBON/AIRSS/Generating-Clusters/ReaxFF-fromJPCA2015/Units_Real/with-SteepDescent/Higher-Symm
REM
REM
REM
REM
REM
REM ./C.cell (1df0a924f5614ab8850e4351716899ee)
REM
REM compiler GCC version 9.2.1 20190827 (Red Hat 9.2.1-1)
REM options -cpp -mtune=generic -march=x86-64 -g -O0 -fpre-include=/usr/include/finclude/math-vector-fortran.h
REM seed 894417443 -627267419 -1296409205 1990547697 -1804322217 170597649 1811595980 1909449166 -2079695957 358485442 483601319 359192438 1361866282 -454284181 503369529 355244439 -792291404 40248779 2012235544 1565075165 -1315528705 819788659 1582543387 518814950 -1241662495 -524253509 -1978627655 335119701 1229879913 -2137865560 -682608753 -1100869051 393347754
REM
CELL 1.54180   50.00000   50.00000   50.00000   90.00000   90.00000   90.00000
LATT -1
SFAC C  
C      1  0.5259860000000  0.4858110000000  0.5333230000000 1.0
C      1  0.4740140000000  0.5141890000000  0.5333230000000 1.0
C      1  0.5259860000000  0.4858110000000  0.4697990000000 1.0
C      1  0.4740140000000  0.5141890000000  0.4697990000000 1.0
C      1  0.5259860000000  0.5141890000000  0.5333230000000 1.0
C      1  0.4740140000000  0.4858110000000  0.5333230000000 1.0
C      1  0.5259860000000  0.5141890000000  0.4697990000000 1.0
C      1  0.4740140000000  0.4858110000000  0.4697990000000 1.0
C      1  0.5151210000000  0.5150960000000  0.4430220000000 1.0
C      1  0.4848790000000  0.4849040000000  0.4430220000000 1.0
C      1  0.5151210000000  0.5150960000000  0.5601000000000 1.0
C      1  0.4848790000000  0.4849040000000  0.5601000000000 1.0
C      1  0.5151210000000  0.4849040000000  0.4430220000000 1.0
C      1  0.4848790000000  0.5150960000000  0.4430220000000 1.0
C      1  0.5151210000000  0.4849040000000  0.5601000000000 1.0
C      1  0.4848790000000  0.5150960000000  0.5601000000000 1.0
C      1  0.5000010000000  0.5000000000000  0.5163580000000 1.0
C      1  0.5000010000000  0.5000000000000  0.4867640000000 1.0
END
