TITL C-2441168-9922-1264 0.108655519027088 125000 -13937.1365116528 0 0 119 (C1) n - 1
REM
REM in /home/bkarasulu/work/CARBON/AIRSS/Generating-Clusters/ReaxFF-fromJPCA2015/Units_Real/with-SteepDescent/Higher-Symm
REM
REM
REM
REM
REM
REM ./C.cell (1df0a924f5614ab8850e4351716899ee)
REM
REM compiler GCC version 9.2.1 20190827 (Red Hat 9.2.1-1)
REM options -cpp -mtune=generic -march=x86-64 -g -O0 -fpre-include=/usr/include/finclude/math-vector-fortran.h
REM seed -1920994036 -1855448534 1163891739 1460977387 1509166444 1665135657 1616304771 -200670239 114070118 1118960899 -1842673160 -516822547 909483636 941681223 868006607 -1882826718 261268423 -410795355 -326498184 1044274958 1392474061 -128601188 56511796 2110081244 1841717314 1472158434 -1416093058 -1343007007 -1804032993 -184352360 -1473420734 117753844 762511464
REM
CELL 1.54180   50.00000   50.00000   50.00000   90.00000   90.00000   90.00000
LATT -1
SFAC C  
C      1  0.5392640000000  0.4958180000000  0.4249030000000 1.0
C      1  0.4992140000000  0.4279560000000  0.5385540000000 1.0
C      1  0.4250580000000  0.5357530000000  0.5008660000000 1.0
C      1  0.4591360000000  0.5044830000000  0.4258980000000 1.0
C      1  0.5361120000000  0.4985190000000  0.5740590000000 1.0
C      1  0.4611590000000  0.4978830000000  0.5759460000000 1.0
C      1  0.5023570000000  0.5739850000000  0.5399180000000 1.0
C      1  0.4964050000000  0.5747350000000  0.4596010000000 1.0
C      1  0.4995150000000  0.4256230000000  0.4625680000000 1.0
C      1  0.5732320000000  0.4604360000000  0.4978650000000 1.0
C      1  0.4245700000000  0.4596380000000  0.5045740000000 1.0
C      1  0.5737150000000  0.5379180000000  0.5024790000000 1.0
C      1  0.5563710000000  0.4410590000000  0.4583390000000 1.0
C      1  0.4387670000000  0.4606370000000  0.5586070000000 1.0
C      1  0.4623220000000  0.5624220000000  0.4425980000000 1.0
C      1  0.4419850000000  0.5594380000000  0.4634760000000 1.0
C      1  0.5602870000000  0.5552670000000  0.5373590000000 1.0
C      1  0.4386680000000  0.4422960000000  0.5370830000000 1.0
C      1  0.5551780000000  0.5356130000000  0.5592780000000 1.0
C      1  0.4426330000000  0.5395870000000  0.4417170000000 1.0
C      1  0.5574710000000  0.4624930000000  0.4387140000000 1.0
C      1  0.5365900000000  0.4429140000000  0.4378870000000 1.0
C      1  0.4582110000000  0.4400570000000  0.5587450000000 1.0
C      1  0.5373140000000  0.5590590000000  0.5564160000000 1.0
C      1  0.5105860000000  0.4571470000000  0.4375600000000 1.0
C      1  0.4561120000000  0.4379420000000  0.5146170000000 1.0
C      1  0.4384940000000  0.5143070000000  0.4562010000000 1.0
C      1  0.4858230000000  0.5467960000000  0.4340540000000 1.0
C      1  0.5133670000000  0.5429740000000  0.5610040000000 1.0
C      1  0.4827750000000  0.4546970000000  0.5623660000000 1.0
C      1  0.5434660000000  0.5652730000000  0.5157580000000 1.0
C      1  0.4567280000000  0.5637220000000  0.4887080000000 1.0
C      1  0.5438600000000  0.4380990000000  0.4846740000000 1.0
C      1  0.5649170000000  0.4843520000000  0.4541920000000 1.0
C      1  0.4363410000000  0.4868440000000  0.5469330000000 1.0
C      1  0.5620890000000  0.5111870000000  0.5422870000000 1.0
C      1  0.4498460000000  0.5265580000000  0.5163600000000 1.0
C      1  0.5229360000000  0.5155250000000  0.4512710000000 1.0
C      1  0.5178790000000  0.4525680000000  0.5239330000000 1.0
C      1  0.5471250000000  0.4775960000000  0.5153730000000 1.0
C      1  0.4528730000000  0.4774860000000  0.4813110000000 1.0
C      1  0.5480000000000  0.5236900000000  0.4847170000000 1.0
C      1  0.4783960000000  0.4838640000000  0.4525800000000 1.0
C      1  0.5250820000000  0.4827550000000  0.5492240000000 1.0
C      1  0.4768180000000  0.5193500000000  0.5455670000000 1.0
C      1  0.4847350000000  0.5481320000000  0.5213700000000 1.0
C      1  0.5182290000000  0.5473520000000  0.4768060000000 1.0
C      1  0.4835780000000  0.4502770000000  0.4758860000000 1.0
C      1  0.5846920000000  0.4701940000000  0.5228260000000 1.0
C      1  0.4687330000000  0.5233220000000  0.5831910000000 1.0
C      1  0.5217760000000  0.5846860000000  0.4683950000000 1.0
C      1  0.4125040000000  0.5293750000000  0.5260970000000 1.0
C      1  0.5850120000000  0.5311890000000  0.4770600000000 1.0
C      1  0.4158910000000  0.4675670000000  0.4784640000000 1.0
C      1  0.5290640000000  0.4732770000000  0.5863240000000 1.0
C      1  0.4681600000000  0.4786500000000  0.4154150000000 1.0
C      1  0.5302390000000  0.5209290000000  0.4132420000000 1.0
C      1  0.4741910000000  0.4139230000000  0.4702450000000 1.0
C      1  0.5244660000000  0.4157290000000  0.5318380000000 1.0
C      1  0.4772260000000  0.5853750000000  0.5298250000000 1.0
C      1  0.4748460000000  0.5366360000000  0.4798870000000 1.0
C      1  0.5442220000000  0.4860640000000  0.4729700000000 1.0
C      1  0.4804350000000  0.4747100000000  0.5379140000000 1.0
C      1  0.5204270000000  0.4562570000000  0.4857280000000 1.0
C      1  0.4784690000000  0.4567900000000  0.5146010000000 1.0
C      1  0.5254810000000  0.5444830000000  0.5147590000000 1.0
C      1  0.4563870000000  0.5156750000000  0.4798030000000 1.0
C      1  0.5355820000000  0.5198310000000  0.5241620000000 1.0
C      1  0.4558410000000  0.4866130000000  0.5257830000000 1.0
C      1  0.5149330000000  0.5195480000000  0.5427820000000 1.0
C      1  0.4842100000000  0.5269920000000  0.4545710000000 1.0
C      1  0.5190090000000  0.4749630000000  0.4639880000000 1.0
C      1  0.4866420000000  0.5968190000000  0.5031230000000 1.0
C      1  0.5953480000000  0.5042260000000  0.4841880000000 1.0
C      1  0.5026410000000  0.4851080000000  0.5953960000000 1.0
C      1  0.5140300000000  0.4049660000000  0.5048940000000 1.0
C      1  0.4855430000000  0.4042050000000  0.4968300000000 1.0
C      1  0.5143210000000  0.5966610000000  0.4957520000000 1.0
C      1  0.4038920000000  0.4953630000000  0.4855220000000 1.0
C      1  0.5961540000000  0.4964120000000  0.5123370000000 1.0
C      1  0.4029550000000  0.5028070000000  0.5142720000000 1.0
C      1  0.4961980000000  0.5138200000000  0.5931210000000 1.0
C      1  0.5021360000000  0.5148880000000  0.4029100000000 1.0
C      1  0.4951080000000  0.4868920000000  0.4033280000000 1.0
C      1  0.4163960000000  0.4784890000000  0.5243100000000 1.0
C      1  0.4774880000000  0.5246060000000  0.4154430000000 1.0
C      1  0.5221850000000  0.4159970000000  0.4794740000000 1.0
C      1  0.5833360000000  0.5201750000000  0.5235920000000 1.0
C      1  0.4153940000000  0.5201660000000  0.4772550000000 1.0
C      1  0.5845400000000  0.4775270000000  0.4766390000000 1.0
C      1  0.5190790000000  0.4766990000000  0.4160080000000 1.0
C      1  0.4774380000000  0.4754480000000  0.5831810000000 1.0
C      1  0.5224500000000  0.5235850000000  0.5824580000000 1.0
C      1  0.4765750000000  0.5836300000000  0.4783900000000 1.0
C      1  0.5225930000000  0.5858880000000  0.5218250000000 1.0
C      1  0.4772480000000  0.4165910000000  0.5219520000000 1.0
C      1  0.5361680000000  0.5375150000000  0.4365030000000 1.0
C      1  0.5410050000000  0.4408090000000  0.5374190000000 1.0
C      1  0.4379900000000  0.5338770000000  0.5416680000000 1.0
C      1  0.4744930000000  0.4589450000000  0.4370210000000 1.0
C      1  0.5337160000000  0.4573740000000  0.5610570000000 1.0
C      1  0.4615330000000  0.5404760000000  0.5587100000000 1.0
C      1  0.4591230000000  0.5632980000000  0.5235160000000 1.0
C      1  0.5422290000000  0.5623630000000  0.4697450000000 1.0
C      1  0.4585830000000  0.4390520000000  0.4634430000000 1.0
C      1  0.5623410000000  0.4764170000000  0.5408240000000 1.0
C      1  0.4394640000000  0.4624960000000  0.4607860000000 1.0
C      1  0.5587170000000  0.5400500000000  0.4584280000000 1.0
C      1  0.5526610000000  0.4984490000000  0.4961910000000 1.0
C      1  0.4962500000000  0.5002840000000  0.5520850000000 1.0
C      1  0.5025930000000  0.5535910000000  0.4991370000000 1.0
C      1  0.4466150000000  0.4965740000000  0.4996120000000 1.0
C      1  0.4977330000000  0.5033520000000  0.4460660000000 1.0
C      1  0.4980870000000  0.4465480000000  0.4986260000000 1.0
C      1  0.4804300000000  0.4806570000000  0.4801090000000 1.0
C      1  0.4795100000000  0.5205950000000  0.5183520000000 1.0
C      1  0.5190610000000  0.4805000000000  0.5202750000000 1.0
C      1  0.5195840000000  0.5197120000000  0.4801080000000 1.0
C      1  0.4995260000000  0.5001670000000  0.5000470000000 1.0
END
