TITL C-2441161-5029-753 0.0501254954387836 125000 -16517.5613691743 0 0 123 (C1) n - 1
REM
REM in /home/bkarasulu/work/CARBON/AIRSS/Generating-Clusters/ReaxFF-fromJPCA2015/Units_Real/with-SteepDescent/Higher-Symm
REM
REM
REM
REM
REM
REM ./C.cell (1df0a924f5614ab8850e4351716899ee)
REM
REM compiler GCC version 9.2.1 20190827 (Red Hat 9.2.1-1)
REM options -cpp -mtune=generic -march=x86-64 -g -O0 -fpre-include=/usr/include/finclude/math-vector-fortran.h
REM seed 1491055775 1036847356 967242796 -1662532483 1256301027 -186903196 -475966047 -1607374528 -1196217564 617780806 580757514 568341241 1232206973 1241933113 2054010918 -1817788570 1044979024 -1775782503 582473386 1103958583 -2107759933 -1890020304 572197011 -380391657 -737860443 546323879 83585619 1307359681 -1863829710 333162298 -1120836479 784299894 1529368709
REM
CELL 1.54180   50.00000   50.00000   50.00000   90.00000   90.00000   90.00000
LATT -1
SFAC C  
C      1  0.4651770000000  0.4075020000000  0.5182440000000 1.0
C      1  0.4630720000000  0.5366350000000  0.4124030000000 1.0
C      1  0.4580310000000  0.5650200000000  0.5787770000000 1.0
C      1  0.5417810000000  0.4015870000000  0.5131620000000 1.0
C      1  0.5354370000000  0.5291760000000  0.4089780000000 1.0
C      1  0.5363330000000  0.5582990000000  0.5803150000000 1.0
C      1  0.4642300000000  0.4058800000000  0.4881750000000 1.0
C      1  0.4582370000000  0.5422700000000  0.5954620000000 1.0
C      1  0.4627340000000  0.5621050000000  0.4271490000000 1.0
C      1  0.5419430000000  0.3997850000000  0.4842960000000 1.0
C      1  0.5373780000000  0.5305150000000  0.5913550000000 1.0
C      1  0.5345670000000  0.5569180000000  0.4201830000000 1.0
C      1  0.5757330000000  0.4758740000000  0.5139020000000 1.0
C      1  0.5780350000000  0.5012610000000  0.4718670000000 1.0
C      1  0.5788150000000  0.5259890000000  0.5151320000000 1.0
C      1  0.4204710000000  0.4756370000000  0.5147010000000 1.0
C      1  0.4215820000000  0.5002170000000  0.4713930000000 1.0
C      1  0.4216870000000  0.5249850000000  0.5136930000000 1.0
C      1  0.5763810000000  0.4766980000000  0.4862390000000 1.0
C      1  0.5769720000000  0.5003310000000  0.5291640000000 1.0
C      1  0.5794670000000  0.5261550000000  0.4861730000000 1.0
C      1  0.4208260000000  0.4758420000000  0.4861570000000 1.0
C      1  0.4215360000000  0.5010040000000  0.5278280000000 1.0
C      1  0.4205160000000  0.5254520000000  0.4851660000000 1.0
C      1  0.4890820000000  0.4675360000000  0.4138700000000 1.0
C      1  0.4844890000000  0.5870550000000  0.5318570000000 1.0
C      1  0.4792150000000  0.4320610000000  0.5596220000000 1.0
C      1  0.5130960000000  0.4836460000000  0.4095450000000 1.0
C      1  0.5126420000000  0.5918530000000  0.5249660000000 1.0
C      1  0.5200550000000  0.4376760000000  0.5588390000000 1.0
C      1  0.4883530000000  0.4712630000000  0.5869320000000 1.0
C      1  0.4855490000000  0.5890440000000  0.4650000000000 1.0
C      1  0.4785380000000  0.4304780000000  0.4409040000000 1.0
C      1  0.5153660000000  0.4818190000000  0.5899130000000 1.0
C      1  0.5128780000000  0.5934400000000  0.4745460000000 1.0
C      1  0.5201530000000  0.4345330000000  0.4416050000000 1.0
C      1  0.5155400000000  0.4148950000000  0.5375400000000 1.0
C      1  0.5131050000000  0.5116670000000  0.4014770000000 1.0
C      1  0.5139570000000  0.5651180000000  0.5634200000000 1.0
C      1  0.4848100000000  0.4110370000000  0.5399610000000 1.0
C      1  0.4870490000000  0.5197070000000  0.4135340000000 1.0
C      1  0.4844010000000  0.5730980000000  0.5598910000000 1.0
C      1  0.5185310000000  0.4157320000000  0.4652930000000 1.0
C      1  0.5155760000000  0.5107040000000  0.5979590000000 1.0
C      1  0.5125820000000  0.5677720000000  0.4360680000000 1.0
C      1  0.4849270000000  0.4158190000000  0.4675600000000 1.0
C      1  0.4879400000000  0.5123640000000  0.5914660000000 1.0
C      1  0.4848610000000  0.5782020000000  0.4375300000000 1.0
C      1  0.4830990000000  0.4811310000000  0.5591470000000 1.0
C      1  0.4850120000000  0.4545050000000  0.4579820000000 1.0
C      1  0.4844560000000  0.5638000000000  0.4821140000000 1.0
C      1  0.5134610000000  0.4878000000000  0.5593840000000 1.0
C      1  0.5186720000000  0.4601600000000  0.4559950000000 1.0
C      1  0.5149380000000  0.5634420000000  0.4818910000000 1.0
C      1  0.4864740000000  0.4800640000000  0.4414470000000 1.0
C      1  0.4852110000000  0.4562330000000  0.5413920000000 1.0
C      1  0.4843960000000  0.5632500000000  0.5142080000000 1.0
C      1  0.5165080000000  0.4837900000000  0.4393280000000 1.0
C      1  0.5168480000000  0.4613510000000  0.5409990000000 1.0
C      1  0.5138320000000  0.5601220000000  0.5188670000000 1.0
C      1  0.5188990000000  0.5148450000000  0.5467610000000 1.0
C      1  0.5231070000000  0.4352450000000  0.4876600000000 1.0
C      1  0.5213270000000  0.5495090000000  0.4576280000000 1.0
C      1  0.4758140000000  0.5198420000000  0.5663430000000 1.0
C      1  0.4831000000000  0.4415010000000  0.4841870000000 1.0
C      1  0.4745440000000  0.5392470000000  0.4632580000000 1.0
C      1  0.5166360000000  0.5202730000000  0.4527180000000 1.0
C      1  0.5128570000000  0.4290890000000  0.5128530000000 1.0
C      1  0.5182310000000  0.5443120000000  0.5436000000000 1.0
C      1  0.4900430000000  0.5247680000000  0.4413910000000 1.0
C      1  0.4758690000000  0.4499050000000  0.5115090000000 1.0
C      1  0.4776450000000  0.5446900000000  0.5494830000000 1.0
C      1  0.5595360000000  0.4535580000000  0.5260540000000 1.0
C      1  0.5675870000000  0.5009800000000  0.4442570000000 1.0
C      1  0.5585640000000  0.5448860000000  0.5289580000000 1.0
C      1  0.4297030000000  0.4514390000000  0.5301060000000 1.0
C      1  0.4383880000000  0.5008950000000  0.4457440000000 1.0
C      1  0.4426840000000  0.5432830000000  0.5226430000000 1.0
C      1  0.5585790000000  0.4578200000000  0.4736900000000 1.0
C      1  0.5667890000000  0.5022470000000  0.5563840000000 1.0
C      1  0.5588940000000  0.5445200000000  0.4717180000000 1.0
C      1  0.4397280000000  0.4539720000000  0.4746230000000 1.0
C      1  0.4419460000000  0.4995270000000  0.5497390000000 1.0
C      1  0.4289800000000  0.5496150000000  0.4717240000000 1.0
C      1  0.4433710000000  0.4284900000000  0.5167430000000 1.0
C      1  0.4414950000000  0.5258530000000  0.4290560000000 1.0
C      1  0.4484350000000  0.5468170000000  0.5543170000000 1.0
C      1  0.5588670000000  0.4248370000000  0.5136720000000 1.0
C      1  0.5587400000000  0.5236980000000  0.4271910000000 1.0
C      1  0.5572730000000  0.5500850000000  0.5609650000000 1.0
C      1  0.4422850000000  0.4251020000000  0.4878840000000 1.0
C      1  0.4464970000000  0.5224700000000  0.5687550000000 1.0
C      1  0.4445140000000  0.5482870000000  0.4468730000000 1.0
C      1  0.5540330000000  0.4281730000000  0.4847400000000 1.0
C      1  0.5598010000000  0.5247150000000  0.5733460000000 1.0
C      1  0.5565540000000  0.5500250000000  0.4388260000000 1.0
C      1  0.5631770000000  0.4547000000000  0.4451030000000 1.0
C      1  0.5681900000000  0.5659070000000  0.4887870000000 1.0
C      1  0.5664670000000  0.4754480000000  0.5611460000000 1.0
C      1  0.4353160000000  0.4550140000000  0.4431430000000 1.0
C      1  0.4334840000000  0.5718600000000  0.4883440000000 1.0
C      1  0.4369410000000  0.4736900000000  0.5635110000000 1.0
C      1  0.5648530000000  0.4528210000000  0.5548740000000 1.0
C      1  0.5680900000000  0.5662090000000  0.5119360000000 1.0
C      1  0.5656570000000  0.4747460000000  0.4341820000000 1.0
C      1  0.4320080000000  0.4517670000000  0.5587860000000 1.0
C      1  0.4389220000000  0.5700700000000  0.5105280000000 1.0
C      1  0.4345970000000  0.4732690000000  0.4307760000000 1.0
C      1  0.5297090000000  0.4737660000000  0.5146240000000 1.0
C      1  0.5248470000000  0.5030110000000  0.4751200000000 1.0
C      1  0.5360900000000  0.5259470000000  0.5121430000000 1.0
C      1  0.4732230000000  0.4784580000000  0.5075550000000 1.0
C      1  0.4667960000000  0.4962220000000  0.4637250000000 1.0
C      1  0.4663300000000  0.5226400000000  0.5109690000000 1.0
C      1  0.5297220000000  0.4753380000000  0.4844310000000 1.0
C      1  0.5248490000000  0.5022860000000  0.5228120000000 1.0
C      1  0.5379540000000  0.5254290000000  0.4868380000000 1.0
C      1  0.4611040000000  0.4753880000000  0.4818960000000 1.0
C      1  0.4679970000000  0.4997250000000  0.5271010000000 1.0
C      1  0.4743980000000  0.5185890000000  0.4837440000000 1.0
C      1  0.4989480000000  0.4440040000000  0.5788230000000 1.0
C      1  0.4978660000000  0.4400980000000  0.4220010000000 1.0
C      1  0.5046770000000  0.6017710000000  0.4997400000000 1.0
END
