TITL C-2441158-471-890 0.000205568320149535 125000 -5462.80958825939 0 0 38 (C3) n - 1
REM
REM in /home/bkarasulu/work/CARBON/AIRSS/Generating-Clusters/ReaxFF-fromJPCA2015/Units_Real/with-SteepDescent/Higher-Symm
REM
REM
REM
REM
REM
REM ./C.cell (1df0a924f5614ab8850e4351716899ee)
REM
REM compiler GCC version 9.2.1 20190827 (Red Hat 9.2.1-1)
REM options -cpp -mtune=generic -march=x86-64 -g -O0 -fpre-include=/usr/include/finclude/math-vector-fortran.h
REM seed -1407663289 -385293933 -1039404036 -1182750640 1077274009 593210667 1096066687 1247407465 -1122372020 -371725075 1045205362 -830072198 -255296463 273802915 528595036 -140282821 1668149218 -166479957 1434912668 -639265275 -1643678888 -796808186 -595475826 647971688 -1199736459 106032509 -786685154 879335979 -331813009 -1956100674 -731137046 -1373004393 484850665
REM
CELL 1.54180   50.00000   50.00000   50.00000   90.00000   90.00000   90.00000
LATT -1
SFAC C  
C      1  0.4584260000000  0.5307070000000  0.4773030000000 1.0
C      1  0.5506190000000  0.5195440000000  0.4773250000000 1.0
C      1  0.4947780000000  0.4451480000000  0.4772300000000 1.0
C      1  0.4708090000000  0.4551830000000  0.4612220000000 1.0
C      1  0.4789710000000  0.5464810000000  0.4611280000000 1.0
C      1  0.5538110000000  0.4937210000000  0.4613990000000 1.0
C      1  0.4480660000000  0.5196340000000  0.5314910000000 1.0
C      1  0.5461830000000  0.5340890000000  0.5314540000000 1.0
C      1  0.5096780000000  0.4415710000000  0.5313470000000 1.0
C      1  0.4620850000000  0.5008530000000  0.4753490000000 1.0
C      1  0.5228640000000  0.5311850000000  0.4754080000000 1.0
C      1  0.5187700000000  0.4633060000000  0.4753690000000 1.0
C      1  0.4524160000000  0.4891420000000  0.5381600000000 1.0
C      1  0.5175420000000  0.5453360000000  0.5381800000000 1.0
C      1  0.5338870000000  0.4606270000000  0.5380860000000 1.0
C      1  0.5442890000000  0.5083280000000  0.5415490000000 1.0
C      1  0.4883590000000  0.4560600000000  0.5415100000000 1.0
C      1  0.4712980000000  0.5309110000000  0.5415140000000 1.0
C      1  0.4534680000000  0.5306710000000  0.5053570000000 1.0
C      1  0.5530430000000  0.5238510000000  0.5053620000000 1.0
C      1  0.4973350000000  0.4407790000000  0.5052670000000 1.0
C      1  0.4734020000000  0.4888930000000  0.4996460000000 1.0
C      1  0.5067810000000  0.5269410000000  0.4995740000000 1.0
C      1  0.5231640000000  0.4790320000000  0.4997530000000 1.0
C      1  0.5033620000000  0.5540110000000  0.5136130000000 1.0
C      1  0.5485610000000  0.4687260000000  0.5136240000000 1.0
C      1  0.4516560000000  0.4724050000000  0.5136740000000 1.0
C      1  0.5045700000000  0.5357850000000  0.4521180000000 1.0
C      1  0.5319360000000  0.4768260000000  0.4521160000000 1.0
C      1  0.4673350000000  0.4826910000000  0.4521110000000 1.0
C      1  0.4970830000000  0.5281520000000  0.5514350000000 1.0
C      1  0.5292210000000  0.4870560000000  0.5512080000000 1.0
C      1  0.4775760000000  0.4797650000000  0.5512510000000 1.0
C      1  0.5147440000000  0.4884540000000  0.4301300000000 1.0
C      1  0.4859490000000  0.4918330000000  0.4301290000000 1.0
C      1  0.5032790000000  0.5150830000000  0.4301310000000 1.0
C      1  0.5011180000000  0.4983210000000  0.5105330000000 1.0
C      1  0.5012610000000  0.4983300000000  0.5446470000000 1.0
END
