TITL C-2441161-5029-672 0.0768984053956916 125000 -23634.1931167587 0 0 173 (C1) n - 1
REM
REM in /home/bkarasulu/work/CARBON/AIRSS/Generating-Clusters/ReaxFF-fromJPCA2015/Units_Real/with-SteepDescent/Higher-Symm
REM
REM
REM
REM
REM
REM ./C.cell (1df0a924f5614ab8850e4351716899ee)
REM
REM compiler GCC version 9.2.1 20190827 (Red Hat 9.2.1-1)
REM options -cpp -mtune=generic -march=x86-64 -g -O0 -fpre-include=/usr/include/finclude/math-vector-fortran.h
REM seed -348890448 1069251981 -2078179949 255079081 -215018041 -1394336791 1725642344 -1800517391 1081236116 772694581 1679088197 -157732873 -1563322664 1165066806 929053449 -1034347091 -338745164 -1763513585 639819075 1953453495 -105367741 -572719432 -334938844 -2012867209 2108080701 1159964295 579417174 386761194 -569935658 -13998703 1472770510 -1663637769 -897787657
REM
CELL 1.54180   50.00000   50.00000   50.00000   90.00000   90.00000   90.00000
LATT -1
SFAC C  
C      1  0.5984350000000  0.4525230000000  0.4670530000000 1.0
C      1  0.5446260000000  0.4406660000000  0.5852480000000 1.0
C      1  0.4429650000000  0.4542330000000  0.5866610000000 1.0
C      1  0.4017970000000  0.4590770000000  0.4730350000000 1.0
C      1  0.4990930000000  0.4539460000000  0.3983160000000 1.0
C      1  0.5413250000000  0.4958340000000  0.4351300000000 1.0
C      1  0.5814570000000  0.4970120000000  0.5227310000000 1.0
C      1  0.5014930000000  0.4941350000000  0.5855350000000 1.0
C      1  0.4215400000000  0.4924980000000  0.5287660000000 1.0
C      1  0.4484430000000  0.4921860000000  0.4300730000000 1.0
C      1  0.5602050000000  0.5039830000000  0.4766340000000 1.0
C      1  0.5449230000000  0.5135070000000  0.5477170000000 1.0
C      1  0.4738800000000  0.5135870000000  0.5551410000000 1.0
C      1  0.4368170000000  0.5063200000000  0.4896880000000 1.0
C      1  0.4899050000000  0.5137380000000  0.4370920000000 1.0
C      1  0.4856680000000  0.4498820000000  0.5972670000000 1.0
C      1  0.4051910000000  0.4536090000000  0.5180080000000 1.0
C      1  0.4537880000000  0.4502740000000  0.4160470000000 1.0
C      1  0.5661410000000  0.4529140000000  0.4312500000000 1.0
C      1  0.5935240000000  0.4532910000000  0.5416300000000 1.0
C      1  0.5004920000000  0.4510080000000  0.5183330000000 1.0
C      1  0.4757660000000  0.4395330000000  0.5212540000000 1.0
C      1  0.4697990000000  0.4513020000000  0.4826350000000 1.0
C      1  0.5084230000000  0.4401340000000  0.4731430000000 1.0
C      1  0.5392720000000  0.4444460000000  0.5001980000000 1.0
C      1  0.4639590000000  0.5036460000000  0.4818260000000 1.0
C      1  0.5071470000000  0.5052440000000  0.4567410000000 1.0
C      1  0.5390230000000  0.5036590000000  0.4984450000000 1.0
C      1  0.5185260000000  0.5078850000000  0.5398820000000 1.0
C      1  0.4702010000000  0.5058750000000  0.5289630000000 1.0
C      1  0.5959910000000  0.4935060000000  0.4464360000000 1.0
C      1  0.5721700000000  0.4893040000000  0.5703530000000 1.0
C      1  0.4532860000000  0.4931230000000  0.5861140000000 1.0
C      1  0.3917850000000  0.4992490000000  0.4791100000000 1.0
C      1  0.4750410000000  0.4941710000000  0.3924300000000 1.0
C      1  0.4503450000000  0.5015770000000  0.4024540000000 1.0
C      1  0.5636700000000  0.4936100000000  0.4166160000000 1.0
C      1  0.6010380000000  0.5036980000000  0.5426370000000 1.0
C      1  0.4857070000000  0.5006880000000  0.6077830000000 1.0
C      1  0.3953010000000  0.4990640000000  0.5194310000000 1.0
C      1  0.5129810000000  0.5214120000000  0.4004590000000 1.0
C      1  0.6010680000000  0.5221700000000  0.4805980000000 1.0
C      1  0.5476390000000  0.5188250000000  0.5876880000000 1.0
C      1  0.4251820000000  0.5188600000000  0.5730800000000 1.0
C      1  0.4132420000000  0.5210830000000  0.4508130000000 1.0
C      1  0.4748580000000  0.5583920000000  0.5623860000000 1.0
C      1  0.4340900000000  0.5553110000000  0.4936440000000 1.0
C      1  0.4848260000000  0.5606060000000  0.4388860000000 1.0
C      1  0.5547700000000  0.5531070000000  0.4668530000000 1.0
C      1  0.5495400000000  0.5601350000000  0.5411860000000 1.0
C      1  0.4968110000000  0.4772970000000  0.4531200000000 1.0
C      1  0.5263030000000  0.4826320000000  0.4835100000000 1.0
C      1  0.5289220000000  0.4830770000000  0.5285480000000 1.0
C      1  0.4770640000000  0.4769200000000  0.5416310000000 1.0
C      1  0.4657760000000  0.4789910000000  0.4978220000000 1.0
C      1  0.5213120000000  0.5583760000000  0.5334940000000 1.0
C      1  0.4734410000000  0.5569150000000  0.5329240000000 1.0
C      1  0.4578270000000  0.5524080000000  0.4786840000000 1.0
C      1  0.5006650000000  0.5529210000000  0.4635410000000 1.0
C      1  0.5376120000000  0.5531720000000  0.4902930000000 1.0
C      1  0.5403630000000  0.5996990000000  0.4824000000000 1.0
C      1  0.5268300000000  0.5968920000000  0.5201100000000 1.0
C      1  0.4904150000000  0.5995990000000  0.5328570000000 1.0
C      1  0.4684580000000  0.5961490000000  0.5002200000000 1.0
C      1  0.4910820000000  0.6012520000000  0.4680770000000 1.0
C      1  0.4541760000000  0.4316130000000  0.5725590000000 1.0
C      1  0.4156330000000  0.4341140000000  0.4777320000000 1.0
C      1  0.4953270000000  0.4302420000000  0.4151270000000 1.0
C      1  0.5800590000000  0.4304130000000  0.4703260000000 1.0
C      1  0.5555970000000  0.4280120000000  0.5631090000000 1.0
C      1  0.4743660000000  0.5822510000000  0.4800530000000 1.0
C      1  0.5189620000000  0.6007400000000  0.4615890000000 1.0
C      1  0.5261580000000  0.5794260000000  0.4972070000000 1.0
C      1  0.5135890000000  0.5862370000000  0.5400310000000 1.0
C      1  0.4692890000000  0.5851380000000  0.5255810000000 1.0
C      1  0.4243390000000  0.4928250000000  0.5580390000000 1.0
C      1  0.4234550000000  0.4948820000000  0.4443260000000 1.0
C      1  0.5223170000000  0.4959090000000  0.4122920000000 1.0
C      1  0.5900100000000  0.4973950000000  0.4939640000000 1.0
C      1  0.5307040000000  0.4939380000000  0.5863280000000 1.0
C      1  0.5913230000000  0.4660570000000  0.4420420000000 1.0
C      1  0.5963260000000  0.4785860000000  0.5581870000000 1.0
C      1  0.4621840000000  0.4697000000000  0.6027100000000 1.0
C      1  0.3900720000000  0.4756430000000  0.4966200000000 1.0
C      1  0.4730680000000  0.4668580000000  0.3978890000000 1.0
C      1  0.4451560000000  0.5195810000000  0.5926200000000 1.0
C      1  0.3969920000000  0.5257500000000  0.4735600000000 1.0
C      1  0.4857150000000  0.5203370000000  0.3918920000000 1.0
C      1  0.5986540000000  0.5200970000000  0.4511630000000 1.0
C      1  0.5737480000000  0.5175140000000  0.5754070000000 1.0
C      1  0.5530910000000  0.4671030000000  0.4088940000000 1.0
C      1  0.6052140000000  0.4579890000000  0.5162620000000 1.0
C      1  0.5116780000000  0.4570050000000  0.6029850000000 1.0
C      1  0.4080090000000  0.4566750000000  0.5459790000000 1.0
C      1  0.4279110000000  0.4558650000000  0.4269470000000 1.0
C      1  0.4601070000000  0.5320430000000  0.4075030000000 1.0
C      1  0.5701310000000  0.5243150000000  0.4307970000000 1.0
C      1  0.5883520000000  0.5305350000000  0.5494570000000 1.0
C      1  0.4820480000000  0.5286070000000  0.6006310000000 1.0
C      1  0.3998460000000  0.5275710000000  0.5127170000000 1.0
C      1  0.5603420000000  0.5339720000000  0.5410260000000 1.0
C      1  0.4794160000000  0.5329550000000  0.5712590000000 1.0
C      1  0.4264350000000  0.5293040000000  0.5011840000000 1.0
C      1  0.4767630000000  0.5350190000000  0.4304310000000 1.0
C      1  0.5590860000000  0.5263330000000  0.4573810000000 1.0
C      1  0.5399130000000  0.4165460000000  0.5054400000000 1.0
C      1  0.4973230000000  0.4071040000000  0.5287570000000 1.0
C      1  0.4690800000000  0.4116880000000  0.5118270000000 1.0
C      1  0.4750490000000  0.4211970000000  0.4819870000000 1.0
C      1  0.5116180000000  0.4116730000000  0.4751390000000 1.0
C      1  0.5285930000000  0.4238460000000  0.5681870000000 1.0
C      1  0.4412230000000  0.4330670000000  0.5453630000000 1.0
C      1  0.4365470000000  0.4313190000000  0.4570340000000 1.0
C      1  0.5207080000000  0.4311560000000  0.4299900000000 1.0
C      1  0.5796460000000  0.4312540000000  0.4999510000000 1.0
C      1  0.5664030000000  0.5875770000000  0.4933590000000 1.0
C      1  0.5212880000000  0.5844930000000  0.5719390000000 1.0
C      1  0.4415390000000  0.5820570000000  0.5430500000000 1.0
C      1  0.4336960000000  0.5835020000000  0.4546980000000 1.0
C      1  0.5259780000000  0.5858650000000  0.4366130000000 1.0
C      1  0.5027720000000  0.4192730000000  0.5553130000000 1.0
C      1  0.4407300000000  0.4165220000000  0.5214430000000 1.0
C      1  0.4618570000000  0.4170870000000  0.4560190000000 1.0
C      1  0.5320400000000  0.4164630000000  0.4524390000000 1.0
C      1  0.5651620000000  0.4154370000000  0.5189740000000 1.0
C      1  0.5579320000000  0.4312570000000  0.4502330000000 1.0
C      1  0.5711960000000  0.4336890000000  0.5403910000000 1.0
C      1  0.4828890000000  0.4304660000000  0.5744520000000 1.0
C      1  0.4203760000000  0.4313550000000  0.5069270000000 1.0
C      1  0.4699200000000  0.4293350000000  0.4296830000000 1.0
C      1  0.4541450000000  0.5750780000000  0.4352780000000 1.0
C      1  0.5490010000000  0.5683630000000  0.4385800000000 1.0
C      1  0.5718250000000  0.5747950000000  0.5196400000000 1.0
C      1  0.4982800000000  0.5716990000000  0.5829200000000 1.0
C      1  0.4247540000000  0.5697680000000  0.5233930000000 1.0
C      1  0.4583240000000  0.4546520000000  0.5351980000000 1.0
C      1  0.4510350000000  0.4607940000000  0.4632090000000 1.0
C      1  0.5128480000000  0.4531520000000  0.4489580000000 1.0
C      1  0.5637800000000  0.4594510000000  0.5028090000000 1.0
C      1  0.5061010000000  0.4687300000000  0.5388600000000 1.0
C      1  0.5370840000000  0.4670900000000  0.5977930000000 1.0
C      1  0.4208410000000  0.4664030000000  0.5700050000000 1.0
C      1  0.4102470000000  0.4691050000000  0.4458330000000 1.0
C      1  0.5242150000000  0.4695840000000  0.4002910000000 1.0
C      1  0.6053830000000  0.4692690000000  0.4904050000000 1.0
C      1  0.4420910000000  0.5525330000000  0.4220020000000 1.0
C      1  0.5538090000000  0.5473300000000  0.4199940000000 1.0
C      1  0.5902730000000  0.5532880000000  0.5229720000000 1.0
C      1  0.5055230000000  0.5499480000000  0.5994020000000 1.0
C      1  0.4084590000000  0.5493580000000  0.5333870000000 1.0
C      1  0.5244690000000  0.5291260000000  0.4980970000000 1.0
C      1  0.5100270000000  0.5325240000000  0.5247130000000 1.0
C      1  0.4791300000000  0.5317880000000  0.5184340000000 1.0
C      1  0.4740190000000  0.5300090000000  0.4881520000000 1.0
C      1  0.5028080000000  0.5265320000000  0.4762660000000 1.0
C      1  0.4772830000000  0.4899100000000  0.5674020000000 1.0
C      1  0.4376990000000  0.4828270000000  0.5061510000000 1.0
C      1  0.4764190000000  0.4891040000000  0.4365620000000 1.0
C      1  0.5447050000000  0.4835700000000  0.4612430000000 1.0
C      1  0.5575180000000  0.4879000000000  0.5404330000000 1.0
C      1  0.5328980000000  0.5459670000000  0.5892560000000 1.0
C      1  0.4226580000000  0.5455360000000  0.5590590000000 1.0
C      1  0.4324970000000  0.5426730000000  0.4487940000000 1.0
C      1  0.5256220000000  0.5465050000000  0.4097920000000 1.0
C      1  0.5960210000000  0.5475760000000  0.4946960000000 1.0
C      1  0.4191580000000  0.5601920000000  0.4678480000000 1.0
C      1  0.5095320000000  0.5679650000000  0.4211950000000 1.0
C      1  0.5800210000000  0.5669450000000  0.4793290000000 1.0
C      1  0.5431780000000  0.5667610000000  0.5715350000000 1.0
C      1  0.4438750000000  0.5644170000000  0.5652030000000 1.0
C      1  0.5132110000000  0.4578960000000  0.4932930000000 1.0
C      1  0.5139560000000  0.4034920000000  0.5056400000000 1.0
C      1  0.4994900000000  0.5673720000000  0.4878990000000 1.0
END
