TITL C-2441168-9922-1084 0.125167068137234 125000 -18512.0045721206 0 0 145 (C1) n - 1
REM
REM in /home/bkarasulu/work/CARBON/AIRSS/Generating-Clusters/ReaxFF-fromJPCA2015/Units_Real/with-SteepDescent/Higher-Symm
REM
REM
REM
REM
REM
REM ./C.cell (1df0a924f5614ab8850e4351716899ee)
REM
REM compiler GCC version 9.2.1 20190827 (Red Hat 9.2.1-1)
REM options -cpp -mtune=generic -march=x86-64 -g -O0 -fpre-include=/usr/include/finclude/math-vector-fortran.h
REM seed -1402322343 46017984 -2064257694 -1559427655 1270753286 1851521258 502833230 -209851855 1416339374 658684499 1801579474 -560020944 -1805128791 2013888875 2124792815 1324169958 -1712705420 673156201 -2027761327 -930740827 1019835289 -1339811910 1362204864 -640502273 1904170968 -1814430998 -1083485724 -1159068248 1319767598 -2094680185 -1170628383 1607609102 913951259
REM
CELL 1.54180   50.00000   50.00000   50.00000   90.00000   90.00000   90.00000
LATT -1
SFAC C  
C      1  0.4613720000000  0.5790180000000  0.4510360000000 1.0
C      1  0.4362420000000  0.5797770000000  0.4950840000000 1.0
C      1  0.4622130000000  0.5695010000000  0.5594920000000 1.0
C      1  0.5138370000000  0.5761900000000  0.5570390000000 1.0
C      1  0.5554380000000  0.5794680000000  0.5331070000000 1.0
C      1  0.5673910000000  0.5737170000000  0.4666840000000 1.0
C      1  0.5094140000000  0.5716590000000  0.4321260000000 1.0
C      1  0.5713970000000  0.4688340000000  0.4379500000000 1.0
C      1  0.4939570000000  0.4668560000000  0.4072470000000 1.0
C      1  0.4266180000000  0.4662650000000  0.4476600000000 1.0
C      1  0.4133630000000  0.4657820000000  0.5240280000000 1.0
C      1  0.4652610000000  0.4663630000000  0.5845790000000 1.0
C      1  0.5431100000000  0.4664670000000  0.5810910000000 1.0
C      1  0.5893080000000  0.4655970000000  0.5185460000000 1.0
C      1  0.5908890000000  0.4916220000000  0.5313710000000 1.0
C      1  0.5814040000000  0.4938610000000  0.4471440000000 1.0
C      1  0.5082940000000  0.4917890000000  0.4043300000000 1.0
C      1  0.4306840000000  0.4910560000000  0.4345370000000 1.0
C      1  0.4084190000000  0.4909870000000  0.5177820000000 1.0
C      1  0.4504070000000  0.4923730000000  0.5840420000000 1.0
C      1  0.5336390000000  0.4911500000000  0.5911780000000 1.0
C      1  0.4794300000000  0.5720740000000  0.4272590000000 1.0
C      1  0.4351850000000  0.5753350000000  0.4631790000000 1.0
C      1  0.4277950000000  0.5732330000000  0.5215170000000 1.0
C      1  0.4894340000000  0.5708340000000  0.5737540000000 1.0
C      1  0.5442150000000  0.5780320000000  0.5587100000000 1.0
C      1  0.5736980000000  0.5771430000000  0.4947770000000 1.0
C      1  0.5448320000000  0.5795900000000  0.4514280000000 1.0
C      1  0.4542080000000  0.5218030000000  0.5834350000000 1.0
C      1  0.5381960000000  0.5197180000000  0.5909630000000 1.0
C      1  0.5920870000000  0.5204440000000  0.5262620000000 1.0
C      1  0.5756120000000  0.5235310000000  0.4442840000000 1.0
C      1  0.5028640000000  0.5216450000000  0.4033300000000 1.0
C      1  0.4272140000000  0.5275950000000  0.4371820000000 1.0
C      1  0.4056120000000  0.5187410000000  0.5188080000000 1.0
C      1  0.4525770000000  0.5247930000000  0.4222860000000 1.0
C      1  0.4002540000000  0.5200940000000  0.4911850000000 1.0
C      1  0.4425480000000  0.5492860000000  0.5671210000000 1.0
C      1  0.5094660000000  0.5230980000000  0.5904870000000 1.0
C      1  0.5825540000000  0.5369190000000  0.5482210000000 1.0
C      1  0.5888880000000  0.5386680000000  0.4658690000000 1.0
C      1  0.5278420000000  0.5342960000000  0.4113010000000 1.0
C      1  0.5903800000000  0.5530960000000  0.4912600000000 1.0
C      1  0.5352740000000  0.5578760000000  0.4267720000000 1.0
C      1  0.4724720000000  0.5487820000000  0.4115980000000 1.0
C      1  0.4207120000000  0.5526100000000  0.4536890000000 1.0
C      1  0.4244890000000  0.5554530000000  0.5442810000000 1.0
C      1  0.4873220000000  0.5476240000000  0.5902130000000 1.0
C      1  0.5639400000000  0.5555740000000  0.5634050000000 1.0
C      1  0.5339390000000  0.4906290000000  0.4165100000000 1.0
C      1  0.4497380000000  0.4940750000000  0.4162090000000 1.0
C      1  0.4042250000000  0.4955340000000  0.4764190000000 1.0
C      1  0.4320110000000  0.4934430000000  0.5623760000000 1.0
C      1  0.5067450000000  0.4942210000000  0.5972840000000 1.0
C      1  0.5728030000000  0.4903990000000  0.5533430000000 1.0
C      1  0.5873680000000  0.4906850000000  0.4744490000000 1.0
C      1  0.4434250000000  0.4232060000000  0.5261950000000 1.0
C      1  0.4855960000000  0.4234550000000  0.5614760000000 1.0
C      1  0.5375800000000  0.4236580000000  0.5491330000000 1.0
C      1  0.5638650000000  0.4244810000000  0.5024130000000 1.0
C      1  0.5402350000000  0.4236180000000  0.4511250000000 1.0
C      1  0.4870690000000  0.4236930000000  0.4376810000000 1.0
C      1  0.4446710000000  0.4244780000000  0.4714630000000 1.0
C      1  0.5836730000000  0.4663330000000  0.4907480000000 1.0
C      1  0.5481470000000  0.4654770000000  0.4228700000000 1.0
C      1  0.4687740000000  0.4695950000000  0.4175750000000 1.0
C      1  0.4212030000000  0.4706800000000  0.4745910000000 1.0
C      1  0.4277240000000  0.4649980000000  0.5494230000000 1.0
C      1  0.4919430000000  0.4719510000000  0.5832380000000 1.0
C      1  0.5612140000000  0.4657430000000  0.5603300000000 1.0
C      1  0.5316320000000  0.5073160000000  0.4847570000000 1.0
C      1  0.5150720000000  0.5015330000000  0.4619720000000 1.0
C      1  0.4856320000000  0.5019080000000  0.4585810000000 1.0
C      1  0.4673800000000  0.5040060000000  0.5050930000000 1.0
C      1  0.4654370000000  0.4987720000000  0.5328100000000 1.0
C      1  0.5118350000000  0.5110050000000  0.5233850000000 1.0
C      1  0.5375390000000  0.5017660000000  0.5127410000000 1.0
C      1  0.4354500000000  0.5299870000000  0.4637520000000 1.0
C      1  0.4310510000000  0.5320170000000  0.5263800000000 1.0
C      1  0.4775080000000  0.5304380000000  0.5680790000000 1.0
C      1  0.5467060000000  0.5322110000000  0.5664390000000 1.0
C      1  0.5743950000000  0.5306430000000  0.5052080000000 1.0
C      1  0.5479630000000  0.5324970000000  0.4476950000000 1.0
C      1  0.4910850000000  0.5336040000000  0.4276190000000 1.0
C      1  0.5628170000000  0.5164080000000  0.5526640000000 1.0
C      1  0.5798690000000  0.5157900000000  0.4820800000000 1.0
C      1  0.5332460000000  0.5149650000000  0.4312810000000 1.0
C      1  0.4726830000000  0.5206490000000  0.4431940000000 1.0
C      1  0.4244300000000  0.5149600000000  0.4816350000000 1.0
C      1  0.4441620000000  0.5131780000000  0.5442450000000 1.0
C      1  0.5029070000000  0.5201770000000  0.5613530000000 1.0
C      1  0.4980310000000  0.4409160000000  0.5804450000000 1.0
C      1  0.5620200000000  0.4386300000000  0.5486380000000 1.0
C      1  0.5782370000000  0.4380960000000  0.4821880000000 1.0
C      1  0.5353040000000  0.4392430000000  0.4280740000000 1.0
C      1  0.4671750000000  0.4403320000000  0.4247040000000 1.0
C      1  0.4226740000000  0.4410840000000  0.4797880000000 1.0
C      1  0.4382020000000  0.4373030000000  0.5502950000000 1.0
C      1  0.5460370000000  0.5412610000000  0.5045090000000 1.0
C      1  0.5334800000000  0.5344760000000  0.4788430000000 1.0
C      1  0.5053620000000  0.5477090000000  0.4777000000000 1.0
C      1  0.4768710000000  0.5429250000000  0.4800180000000 1.0
C      1  0.4635160000000  0.5319950000000  0.5029610000000 1.0
C      1  0.4778950000000  0.5436940000000  0.5250180000000 1.0
C      1  0.5044920000000  0.5340790000000  0.5369400000000 1.0
C      1  0.5071430000000  0.4445790000000  0.4256520000000 1.0
C      1  0.4488860000000  0.4449730000000  0.4489420000000 1.0
C      1  0.4286560000000  0.4433610000000  0.5083260000000 1.0
C      1  0.4622160000000  0.4441950000000  0.5634320000000 1.0
C      1  0.5255780000000  0.4442120000000  0.5693240000000 1.0
C      1  0.5760420000000  0.4405630000000  0.5243400000000 1.0
C      1  0.5641920000000  0.4431180000000  0.4569830000000 1.0
C      1  0.5016250000000  0.4586770000000  0.4506400000000 1.0
C      1  0.4662170000000  0.4609600000000  0.4671000000000 1.0
C      1  0.4533000000000  0.4595900000000  0.5080900000000 1.0
C      1  0.4768830000000  0.4576640000000  0.5399040000000 1.0
C      1  0.5159370000000  0.4637620000000  0.5446590000000 1.0
C      1  0.5358250000000  0.4563860000000  0.5090090000000 1.0
C      1  0.5441620000000  0.4630880000000  0.4686100000000 1.0
C      1  0.4728820000000  0.5715850000000  0.4774400000000 1.0
C      1  0.4633210000000  0.5836550000000  0.5037280000000 1.0
C      1  0.4697650000000  0.5706510000000  0.5300260000000 1.0
C      1  0.5144620000000  0.5608460000000  0.5328140000000 1.0
C      1  0.5476410000000  0.5697350000000  0.5084080000000 1.0
C      1  0.5237350000000  0.5882870000000  0.4691920000000 1.0
C      1  0.5069040000000  0.5699840000000  0.4594650000000 1.0
C      1  0.5215550000000  0.4147490000000  0.5267760000000 1.0
C      1  0.5352480000000  0.4153320000000  0.5001230000000 1.0
C      1  0.5224620000000  0.4156860000000  0.4729360000000 1.0
C      1  0.4926190000000  0.4159570000000  0.4654500000000 1.0
C      1  0.4693090000000  0.4160590000000  0.4844590000000 1.0
C      1  0.4689640000000  0.4154010000000  0.5148770000000 1.0
C      1  0.4920310000000  0.4151630000000  0.5339260000000 1.0
C      1  0.5378470000000  0.4748800000000  0.5297220000000 1.0
C      1  0.5519460000000  0.4710300000000  0.4923980000000 1.0
C      1  0.5216680000000  0.4736940000000  0.4589170000000 1.0
C      1  0.4800610000000  0.4748510000000  0.4500560000000 1.0
C      1  0.4529920000000  0.4787410000000  0.4862680000000 1.0
C      1  0.4560350000000  0.4724210000000  0.5311300000000 1.0
C      1  0.4929630000000  0.4792790000000  0.5509120000000 1.0
C      1  0.4945440000000  0.5015520000000  0.5032170000000 1.0
C      1  0.5133610000000  0.5937940000000  0.4976220000000 1.0
C      1  0.4988100000000  0.4763940000000  0.5005500000000 1.0
C      1  0.5062880000000  0.4486660000000  0.4992350000000 1.0
C      1  0.5063940000000  0.5664360000000  0.5056770000000 1.0
END
