TITL C-2441158-471-1051 0.131904654531939 125000 -7420.19917135082 0 0 77 (C1) n - 1
REM
REM in /home/bkarasulu/work/CARBON/AIRSS/Generating-Clusters/ReaxFF-fromJPCA2015/Units_Real/with-SteepDescent/Higher-Symm
REM
REM
REM
REM
REM
REM ./C.cell (1df0a924f5614ab8850e4351716899ee)
REM
REM compiler GCC version 9.2.1 20190827 (Red Hat 9.2.1-1)
REM options -cpp -mtune=generic -march=x86-64 -g -O0 -fpre-include=/usr/include/finclude/math-vector-fortran.h
REM seed 1153132253 1073913166 519622368 881523455 2040009925 -1809494249 90223485 -266692398 705520889 424881891 -409786490 612958542 -1112382161 -626720003 1976491854 1219840463 -738966920 2117443341 -633230900 -443900595 838175166 2145522221 -199517151 570049307 1456010811 1658556117 1173876379 -1712328067 1912038800 1638708422 -1022387074 -103399214 1528677845
REM
CELL 1.54180   50.00000   50.00000   50.00000   90.00000   90.00000   90.00000
LATT -1
SFAC C  
C      1  0.5361640000000  0.4769850000000  0.4431940000000 1.0
C      1  0.5373270000000  0.5315520000000  0.4467960000000 1.0
C      1  0.5378960000000  0.5608420000000  0.4909920000000 1.0
C      1  0.5383280000000  0.5436930000000  0.5417950000000 1.0
C      1  0.5375570000000  0.4947920000000  0.5596880000000 1.0
C      1  0.5370320000000  0.4490530000000  0.5320520000000 1.0
C      1  0.5375260000000  0.4421300000000  0.4787300000000 1.0
C      1  0.4956110000000  0.5702140000000  0.5269700000000 1.0
C      1  0.4963890000000  0.5220930000000  0.5705660000000 1.0
C      1  0.4958570000000  0.4575940000000  0.5615190000000 1.0
C      1  0.4958920000000  0.4256240000000  0.5047410000000 1.0
C      1  0.4973890000000  0.4495650000000  0.4444250000000 1.0
C      1  0.4960650000000  0.5118290000000  0.4243770000000 1.0
C      1  0.4961650000000  0.5653240000000  0.4616340000000 1.0
C      1  0.4591130000000  0.5120490000000  0.4464200000000 1.0
C      1  0.4591640000000  0.5489670000000  0.4761480000000 1.0
C      1  0.4579470000000  0.5475120000000  0.5234680000000 1.0
C      1  0.4581740000000  0.5104000000000  0.5514170000000 1.0
C      1  0.4584560000000  0.4658560000000  0.5393330000000 1.0
C      1  0.4573240000000  0.4466060000000  0.4976990000000 1.0
C      1  0.4596340000000  0.4659330000000  0.4564800000000 1.0
C      1  0.5249600000000  0.4655570000000  0.5551340000000 1.0
C      1  0.5249480000000  0.4354800000000  0.5064670000000 1.0
C      1  0.5259220000000  0.4513500000000  0.4521010000000 1.0
C      1  0.5244810000000  0.5073260000000  0.4344400000000 1.0
C      1  0.5251530000000  0.5555890000000  0.4638860000000 1.0
C      1  0.5251680000000  0.5619620000000  0.5204860000000 1.0
C      1  0.5257150000000  0.5225100000000  0.5617000000000 1.0
C      1  0.4338070000000  0.4809550000000  0.4685170000000 1.0
C      1  0.4338070000000  0.5117430000000  0.4652580000000 1.0
C      1  0.4340080000000  0.5339960000000  0.4876440000000 1.0
C      1  0.4341140000000  0.5304870000000  0.5180400000000 1.0
C      1  0.4341800000000  0.5029950000000  0.5350960000000 1.0
C      1  0.4342260000000  0.4744850000000  0.5249080000000 1.0
C      1  0.4337750000000  0.4639430000000  0.4940530000000 1.0
C      1  0.4799370000000  0.4788480000000  0.5649650000000 1.0
C      1  0.4796640000000  0.4344990000000  0.5242500000000 1.0
C      1  0.4780600000000  0.4427030000000  0.4639090000000 1.0
C      1  0.4779060000000  0.4917440000000  0.4322360000000 1.0
C      1  0.4777780000000  0.5470130000000  0.4511230000000 1.0
C      1  0.4790220000000  0.5689100000000  0.5052510000000 1.0
C      1  0.4789020000000  0.5379400000000  0.5567500000000 1.0
C      1  0.5087090000000  0.5064130000000  0.5360050000000 1.0
C      1  0.5090090000000  0.4797620000000  0.5303950000000 1.0
C      1  0.5086130000000  0.4627230000000  0.4948700000000 1.0
C      1  0.5095700000000  0.4800940000000  0.4715790000000 1.0
C      1  0.5104970000000  0.5084170000000  0.4644420000000 1.0
C      1  0.5104620000000  0.5319310000000  0.4836790000000 1.0
C      1  0.5106300000000  0.5340980000000  0.5132300000000 1.0
C      1  0.4809960000000  0.5295810000000  0.5157750000000 1.0
C      1  0.4807550000000  0.5055150000000  0.5319020000000 1.0
C      1  0.4816250000000  0.4771060000000  0.5240720000000 1.0
C      1  0.4812280000000  0.4660320000000  0.4976820000000 1.0
C      1  0.4807150000000  0.4816230000000  0.4720350000000 1.0
C      1  0.4816260000000  0.5088770000000  0.4670540000000 1.0
C      1  0.4806020000000  0.5300630000000  0.4864090000000 1.0
C      1  0.4752290000000  0.4646190000000  0.4311750000000 1.0
C      1  0.4743870000000  0.5309930000000  0.4293690000000 1.0
C      1  0.4748860000000  0.5740530000000  0.4798820000000 1.0
C      1  0.4740010000000  0.5603840000000  0.5443690000000 1.0
C      1  0.4745030000000  0.5025690000000  0.5752400000000 1.0
C      1  0.4739820000000  0.4423740000000  0.5488880000000 1.0
C      1  0.4739710000000  0.4260110000000  0.4850000000000 1.0
C      1  0.5501450000000  0.4962330000000  0.5354480000000 1.0
C      1  0.5503250000000  0.4692270000000  0.5188560000000 1.0
C      1  0.5505760000000  0.4653800000000  0.4866300000000 1.0
C      1  0.5507670000000  0.4865210000000  0.4647860000000 1.0
C      1  0.5505830000000  0.5195110000000  0.4684340000000 1.0
C      1  0.5516850000000  0.5372030000000  0.4946470000000 1.0
C      1  0.5517100000000  0.5261930000000  0.5254550000000 1.0
C      1  0.5118030000000  0.4957030000000  0.5015850000000 1.0
C      1  0.4428650000000  0.4997680000000  0.4991790000000 1.0
C      1  0.5709850000000  0.4992680000000  0.4996640000000 1.0
C      1  0.5946250000000  0.5007180000000  0.4989790000000 1.0
C      1  0.4654800000000  0.4997780000000  0.4988440000000 1.0
C      1  0.4159490000000  0.4997660000000  0.4994310000000 1.0
C      1  0.5361210000000  0.5012050000000  0.4980120000000 1.0
END
