TITL C-2441160-1326-655 0.0723515093830116 125000 -25937.3126291314 0 0 186 (C1) n - 1
REM
REM in /home/bkarasulu/work/CARBON/AIRSS/Generating-Clusters/ReaxFF-fromJPCA2015/Units_Real/with-SteepDescent/Higher-Symm
REM
REM
REM
REM
REM
REM ./C.cell (1df0a924f5614ab8850e4351716899ee)
REM
REM compiler GCC version 9.2.1 20190827 (Red Hat 9.2.1-1)
REM options -cpp -mtune=generic -march=x86-64 -g -O0 -fpre-include=/usr/include/finclude/math-vector-fortran.h
REM seed 1820146068 691917389 1968720986 -838791145 -1982198706 -1180440614 -753008561 -1666299989 60389729 1648029813 1792328964 -1515720016 -1547797533 2060771673 344578867 1129861743 -454445352 1943578048 780299539 856737641 -1729724961 1934692606 -1122995538 75336665 -61882949 -1727306803 2080544921 642708571 1657976647 2025527198 697198074 1826133569 -1553230393
REM
CELL 1.54180   50.00000   50.00000   50.00000   90.00000   90.00000   90.00000
LATT -1
SFAC C  
C      1  0.5126560000000  0.4518980000000  0.4059600000000 1.0
C      1  0.4829320000000  0.4116610000000  0.5507780000000 1.0
C      1  0.5106410000000  0.5493290000000  0.5913900000000 1.0
C      1  0.4891870000000  0.5895230000000  0.4529360000000 1.0
C      1  0.4280640000000  0.5004060000000  0.4169750000000 1.0
C      1  0.5674870000000  0.4179690000000  0.4946880000000 1.0
C      1  0.4300800000000  0.4887240000000  0.5852020000000 1.0
C      1  0.5718070000000  0.5837650000000  0.5003400000000 1.0
C      1  0.4624790000000  0.4509100000000  0.4111870000000 1.0
C      1  0.5376460000000  0.4082210000000  0.5495320000000 1.0
C      1  0.4595100000000  0.5447830000000  0.5855970000000 1.0
C      1  0.5371130000000  0.5919300000000  0.4510850000000 1.0
C      1  0.4325340000000  0.5222740000000  0.4356380000000 1.0
C      1  0.5626030000000  0.4373780000000  0.4732650000000 1.0
C      1  0.4283150000000  0.4639570000000  0.5683120000000 1.0
C      1  0.5679550000000  0.5650970000000  0.5218030000000 1.0
C      1  0.4621470000000  0.5253460000000  0.4364630000000 1.0
C      1  0.5330390000000  0.4417210000000  0.4767800000000 1.0
C      1  0.4787250000000  0.4745740000000  0.5637500000000 1.0
C      1  0.5375570000000  0.5639410000000  0.5243600000000 1.0
C      1  0.4778700000000  0.5308060000000  0.4601810000000 1.0
C      1  0.5183290000000  0.4685300000000  0.4691740000000 1.0
C      1  0.4835580000000  0.4691840000000  0.5343510000000 1.0
C      1  0.5205400000000  0.5355570000000  0.5269390000000 1.0
C      1  0.4192250000000  0.5137610000000  0.5734560000000 1.0
C      1  0.5809750000000  0.5773530000000  0.4700710000000 1.0
C      1  0.4187800000000  0.4719510000000  0.4241680000000 1.0
C      1  0.5804490000000  0.4230750000000  0.5230390000000 1.0
C      1  0.4461290000000  0.5584770000000  0.5438890000000 1.0
C      1  0.5501550000000  0.5342770000000  0.4404990000000 1.0
C      1  0.4459460000000  0.4376520000000  0.4551240000000 1.0
C      1  0.5492630000000  0.4641340000000  0.5620160000000 1.0
C      1  0.3778740000000  0.4881020000000  0.4693950000000 1.0
C      1  0.6184520000000  0.4662540000000  0.5151960000000 1.0
C      1  0.3850700000000  0.5109940000000  0.5289160000000 1.0
C      1  0.6186770000000  0.5342100000000  0.4844770000000 1.0
C      1  0.4917400000000  0.4649070000000  0.4503000000000 1.0
C      1  0.5094860000000  0.4504950000000  0.5338580000000 1.0
C      1  0.4997620000000  0.5394990000000  0.5457290000000 1.0
C      1  0.5034550000000  0.5408990000000  0.4527160000000 1.0
C      1  0.4919400000000  0.4834270000000  0.6116530000000 1.0
C      1  0.5133940000000  0.6098320000000  0.5156810000000 1.0
C      1  0.4876450000000  0.5168220000000  0.3929350000000 1.0
C      1  0.5116860000000  0.3859560000000  0.4743270000000 1.0
C      1  0.4059300000000  0.4478840000000  0.4907740000000 1.0
C      1  0.5949610000000  0.4913870000000  0.5559230000000 1.0
C      1  0.4051810000000  0.5554430000000  0.5057920000000 1.0
C      1  0.5943490000000  0.5065400000000  0.4489790000000 1.0
C      1  0.4866090000000  0.4968920000000  0.5226890000000 1.0
C      1  0.5129310000000  0.5205390000000  0.5031670000000 1.0
C      1  0.4921710000000  0.4960580000000  0.4945950000000 1.0
C      1  0.5118930000000  0.4784700000000  0.4933930000000 1.0
C      1  0.3874160000000  0.4604280000000  0.4708100000000 1.0
C      1  0.6078660000000  0.4682190000000  0.5421830000000 1.0
C      1  0.3866020000000  0.5406260000000  0.5251460000000 1.0
C      1  0.6097590000000  0.5311590000000  0.4564240000000 1.0
C      1  0.4841920000000  0.4192960000000  0.5019630000000 1.0
C      1  0.5161780000000  0.5046590000000  0.5816210000000 1.0
C      1  0.4862550000000  0.5797290000000  0.4996070000000 1.0
C      1  0.5234790000000  0.4950320000000  0.4091500000000 1.0
C      1  0.5515150000000  0.4669310000000  0.5034280000000 1.0
C      1  0.4492890000000  0.5060410000000  0.5425570000000 1.0
C      1  0.5459940000000  0.5486410000000  0.4849010000000 1.0
C      1  0.4515110000000  0.4957270000000  0.4625590000000 1.0
C      1  0.5384190000000  0.5539970000000  0.5899830000000 1.0
C      1  0.4615460000000  0.5915910000000  0.4450750000000 1.0
C      1  0.5398430000000  0.4428540000000  0.4090880000000 1.0
C      1  0.4545300000000  0.4190430000000  0.5563440000000 1.0
C      1  0.5308630000000  0.5808410000000  0.5499000000000 1.0
C      1  0.4678420000000  0.5490150000000  0.4181010000000 1.0
C      1  0.5283990000000  0.4254410000000  0.4516200000000 1.0
C      1  0.4733180000000  0.4506340000000  0.5816560000000 1.0
C      1  0.5799850000000  0.4769800000000  0.4198810000000 1.0
C      1  0.4206120000000  0.4201790000000  0.5198370000000 1.0
C      1  0.5773320000000  0.5227840000000  0.5807670000000 1.0
C      1  0.4237540000000  0.5804820000000  0.4762290000000 1.0
C      1  0.4453330000000  0.4297080000000  0.5312330000000 1.0
C      1  0.5542940000000  0.5407350000000  0.5708790000000 1.0
C      1  0.4463510000000  0.5699700000000  0.4599930000000 1.0
C      1  0.5552040000000  0.4612870000000  0.4251940000000 1.0
C      1  0.4763780000000  0.5670260000000  0.5760320000000 1.0
C      1  0.5262900000000  0.5756370000000  0.4304470000000 1.0
C      1  0.4772110000000  0.4285910000000  0.4225310000000 1.0
C      1  0.5248540000000  0.4237990000000  0.5708990000000 1.0
C      1  0.4021290000000  0.5031100000000  0.4646570000000 1.0
C      1  0.5979450000000  0.4579110000000  0.4953140000000 1.0
C      1  0.4047620000000  0.5002870000000  0.5483650000000 1.0
C      1  0.5981620000000  0.5443190000000  0.5028510000000 1.0
C      1  0.6136020000000  0.5073630000000  0.4895520000000 1.0
C      1  0.3796320000000  0.4901880000000  0.4961780000000 1.0
C      1  0.6148700000000  0.4932050000000  0.5101850000000 1.0
C      1  0.3989550000000  0.5040030000000  0.5055320000000 1.0
C      1  0.5339900000000  0.5238270000000  0.4849260000000 1.0
C      1  0.4679300000000  0.4832070000000  0.4818840000000 1.0
C      1  0.5307980000000  0.4844180000000  0.5139190000000 1.0
C      1  0.4675780000000  0.5162560000000  0.5267570000000 1.0
C      1  0.5280770000000  0.5944070000000  0.4804550000000 1.0
C      1  0.4735180000000  0.4805870000000  0.4103580000000 1.0
C      1  0.5250160000000  0.4096180000000  0.5196840000000 1.0
C      1  0.4707950000000  0.5165950000000  0.5910310000000 1.0
C      1  0.4161020000000  0.5292370000000  0.4612070000000 1.0
C      1  0.5828550000000  0.4618930000000  0.4695390000000 1.0
C      1  0.4173760000000  0.4697510000000  0.5407930000000 1.0
C      1  0.5845910000000  0.5377700000000  0.5287810000000 1.0
C      1  0.4391510000000  0.4813490000000  0.5228520000000 1.0
C      1  0.5652160000000  0.5151980000000  0.5243040000000 1.0
C      1  0.4411710000000  0.5203600000000  0.4809780000000 1.0
C      1  0.5596760000000  0.4839500000000  0.4793110000000 1.0
C      1  0.4690290000000  0.4680220000000  0.6072050000000 1.0
C      1  0.5365280000000  0.6047930000000  0.5303050000000 1.0
C      1  0.4626110000000  0.5290010000000  0.3949230000000 1.0
C      1  0.5353090000000  0.3979250000000  0.4664110000000 1.0
C      1  0.4590790000000  0.4562380000000  0.5199430000000 1.0
C      1  0.5432710000000  0.5218810000000  0.5436100000000 1.0
C      1  0.4608340000000  0.5435330000000  0.4792490000000 1.0
C      1  0.5358920000000  0.4898780000000  0.4581050000000 1.0
C      1  0.5721560000000  0.4797740000000  0.5712610000000 1.0
C      1  0.4273720000000  0.5685950000000  0.5220670000000 1.0
C      1  0.5719830000000  0.5164950000000  0.4328910000000 1.0
C      1  0.4248210000000  0.4300980000000  0.4758470000000 1.0
C      1  0.5508430000000  0.6039760000000  0.5039480000000 1.0
C      1  0.4508770000000  0.5023070000000  0.3991030000000 1.0
C      1  0.5448020000000  0.3999940000000  0.4939180000000 1.0
C      1  0.4524560000000  0.4918870000000  0.6041850000000 1.0
C      1  0.5266050000000  0.4632460000000  0.6049480000000 1.0
C      1  0.4703370000000  0.6039300000000  0.5402010000000 1.0
C      1  0.5358000000000  0.5370010000000  0.3995350000000 1.0
C      1  0.4727080000000  0.3933270000000  0.4611060000000 1.0
C      1  0.5019690000000  0.4778620000000  0.3990910000000 1.0
C      1  0.4949000000000  0.4055770000000  0.5250440000000 1.0
C      1  0.5004080000000  0.5221100000000  0.5977370000000 1.0
C      1  0.4983040000000  0.5962630000000  0.4799590000000 1.0
C      1  0.5001900000000  0.5661210000000  0.4382080000000 1.0
C      1  0.5031070000000  0.4402650000000  0.4317850000000 1.0
C      1  0.4986590000000  0.4338010000000  0.5619400000000 1.0
C      1  0.5029170000000  0.5605830000000  0.5652410000000 1.0
C      1  0.5103580000000  0.5243710000000  0.4077020000000 1.0
C      1  0.4942620000000  0.4074780000000  0.4764700000000 1.0
C      1  0.5061650000000  0.4788360000000  0.5870220000000 1.0
C      1  0.4926200000000  0.5926790000000  0.5235220000000 1.0
C      1  0.4085820000000  0.5565660000000  0.4770770000000 1.0
C      1  0.5933480000000  0.4778670000000  0.4448880000000 1.0
C      1  0.4078840000000  0.4459910000000  0.5199560000000 1.0
C      1  0.5923280000000  0.5204820000000  0.5567070000000 1.0
C      1  0.4080580000000  0.4639780000000  0.4502880000000 1.0
C      1  0.5865900000000  0.4481610000000  0.5380580000000 1.0
C      1  0.4065510000000  0.5413850000000  0.5450280000000 1.0
C      1  0.5882980000000  0.5509200000000  0.4597250000000 1.0
C      1  0.4389150000000  0.4512820000000  0.4267990000000 1.0
C      1  0.5623280000000  0.4158800000000  0.5416460000000 1.0
C      1  0.4359870000000  0.5385330000000  0.5713020000000 1.0
C      1  0.5621380000000  0.5805830000000  0.4495340000000 1.0
C      1  0.5769880000000  0.4628620000000  0.5148320000000 1.0
C      1  0.4237070000000  0.5195160000000  0.5347760000000 1.0
C      1  0.5738440000000  0.5396290000000  0.4840180000000 1.0
C      1  0.4231830000000  0.4848280000000  0.4629760000000 1.0
C      1  0.4721710000000  0.4439970000000  0.4982350000000 1.0
C      1  0.5209360000000  0.5053550000000  0.5537750000000 1.0
C      1  0.4753100000000  0.5547280000000  0.5017500000000 1.0
C      1  0.5368120000000  0.4821910000000  0.4311940000000 1.0
C      1  0.5241210000000  0.4385670000000  0.5111300000000 1.0
C      1  0.4660520000000  0.5001410000000  0.5661540000000 1.0
C      1  0.5305850000000  0.5689620000000  0.4956890000000 1.0
C      1  0.4757500000000  0.4871590000000  0.4400830000000 1.0
C      1  0.4280330000000  0.4062940000000  0.4918980000000 1.0
C      1  0.5693320000000  0.4972080000000  0.5954850000000 1.0
C      1  0.4314260000000  0.5921120000000  0.5044350000000 1.0
C      1  0.5716170000000  0.5021540000000  0.4075250000000 1.0
C      1  0.5274230000000  0.5232250000000  0.4554350000000 1.0
C      1  0.4692790000000  0.4557890000000  0.4730560000000 1.0
C      1  0.5280400000000  0.4769000000000  0.5438810000000 1.0
C      1  0.4733420000000  0.5433050000000  0.5294030000000 1.0
C      1  0.5481440000000  0.5704420000000  0.5704180000000 1.0
C      1  0.4514220000000  0.5702180000000  0.4285660000000 1.0
C      1  0.5501710000000  0.4334750000000  0.4341900000000 1.0
C      1  0.4464340000000  0.4416650000000  0.5736110000000 1.0
C      1  0.5394620000000  0.4464320000000  0.5830750000000 1.0
C      1  0.4594760000000  0.5814240000000  0.5566970000000 1.0
C      1  0.5446560000000  0.5553570000000  0.4210530000000 1.0
C      1  0.4616540000000  0.4150010000000  0.4430830000000 1.0
C      1  0.4509530000000  0.6031200000000  0.5202530000000 1.0
C      1  0.5471870000000  0.5109520000000  0.3945090000000 1.0
C      1  0.4500200000000  0.3957490000000  0.4784810000000 1.0
C      1  0.5480440000000  0.4817550000000  0.6054500000000 1.0
C      1  0.5634970000000  0.5093640000000  0.4955390000000 1.0
C      1  0.4295360000000  0.5050800000000  0.5044610000000 1.0
END
