TITL C-2441159-1093-1305 0.0136963824563341 125000 -9384.38027645619 0 0 69 (C1) n - 1
REM
REM in /home/bkarasulu/work/CARBON/AIRSS/Generating-Clusters/ReaxFF-fromJPCA2015/Units_Real/with-SteepDescent/Higher-Symm
REM
REM
REM
REM
REM
REM ./C.cell (1df0a924f5614ab8850e4351716899ee)
REM
REM compiler GCC version 9.2.1 20190827 (Red Hat 9.2.1-1)
REM options -cpp -mtune=generic -march=x86-64 -g -O0 -fpre-include=/usr/include/finclude/math-vector-fortran.h
REM seed 792793985 1701093781 94054488 712304187 -984089119 -1949314124 1784082324 573444224 -1222531899 179488041 -1975962017 -2048598710 -661606817 122250160 2014061211 -234155314 1914714263 -414912837 1828940871 -2102026755 -1424460669 582416073 -1773126025 -1187060084 258261575 1912145684 -641431762 277063744 2010701985 -162736331 296174908 -87670836 -205821149
REM
CELL 1.54180   50.00000   50.00000   50.00000   90.00000   90.00000   90.00000
LATT -1
SFAC C  
C      1  0.5641750000000  0.5212890000000  0.4858050000000 1.0
C      1  0.4330100000000  0.5194530000000  0.5245590000000 1.0
C      1  0.5670690000000  0.4770840000000  0.5198320000000 1.0
C      1  0.4323130000000  0.4819480000000  0.4761840000000 1.0
C      1  0.4747040000000  0.5384450000000  0.5317630000000 1.0
C      1  0.5265330000000  0.4709460000000  0.5431310000000 1.0
C      1  0.4650060000000  0.4558640000000  0.4653930000000 1.0
C      1  0.5263830000000  0.5327140000000  0.4599320000000 1.0
C      1  0.4425610000000  0.4577650000000  0.4822760000000 1.0
C      1  0.5485380000000  0.5131180000000  0.4628050000000 1.0
C      1  0.4483360000000  0.5415730000000  0.5227940000000 1.0
C      1  0.5497900000000  0.4879740000000  0.5389310000000 1.0
C      1  0.4794830000000  0.5664540000000  0.5319170000000 1.0
C      1  0.5157260000000  0.4702050000000  0.5687620000000 1.0
C      1  0.4826510000000  0.4340290000000  0.4694390000000 1.0
C      1  0.5173260000000  0.5315700000000  0.4333210000000 1.0
C      1  0.4518700000000  0.5218190000000  0.4464460000000 1.0
C      1  0.5462800000000  0.5556610000000  0.5220390000000 1.0
C      1  0.4538860000000  0.4805800000000  0.5526300000000 1.0
C      1  0.5452490000000  0.4480060000000  0.4803480000000 1.0
C      1  0.5099500000000  0.4325950000000  0.5420950000000 1.0
C      1  0.4921620000000  0.4610020000000  0.4351870000000 1.0
C      1  0.5086150000000  0.5710480000000  0.4552140000000 1.0
C      1  0.4940930000000  0.5427960000000  0.5674630000000 1.0
C      1  0.4786000000000  0.4517190000000  0.5203020000000 1.0
C      1  0.5390560000000  0.4872380000000  0.4497050000000 1.0
C      1  0.4759600000000  0.5489750000000  0.4800470000000 1.0
C      1  0.5284680000000  0.5164400000000  0.5465220000000 1.0
C      1  0.5116340000000  0.5149470000000  0.5929320000000 1.0
C      1  0.4837400000000  0.4074700000000  0.5120980000000 1.0
C      1  0.5123340000000  0.4864640000000  0.4070520000000 1.0
C      1  0.4856870000000  0.5918520000000  0.4892240000000 1.0
C      1  0.5303850000000  0.5463330000000  0.5453600000000 1.0
C      1  0.4692630000000  0.4554300000000  0.5479770000000 1.0
C      1  0.5327730000000  0.4587530000000  0.4568000000000 1.0
C      1  0.4675180000000  0.5462030000000  0.4522580000000 1.0
C      1  0.5232360000000  0.5622090000000  0.5056070000000 1.0
C      1  0.4776570000000  0.4961530000000  0.5566600000000 1.0
C      1  0.5192770000000  0.4384570000000  0.4909840000000 1.0
C      1  0.4753750000000  0.5072420000000  0.4382630000000 1.0
C      1  0.4713050000000  0.4324190000000  0.4979530000000 1.0
C      1  0.5274340000000  0.5027970000000  0.4275360000000 1.0
C      1  0.4709390000000  0.5691210000000  0.5020160000000 1.0
C      1  0.5263150000000  0.4999260000000  0.5714660000000 1.0
C      1  0.5122720000000  0.5335720000000  0.5045530000000 1.0
C      1  0.4872900000000  0.4973180000000  0.5263400000000 1.0
C      1  0.5041070000000  0.4640530000000  0.4866160000000 1.0
C      1  0.4837860000000  0.5039950000000  0.4677510000000 1.0
C      1  0.5587750000000  0.4709800000000  0.4937800000000 1.0
C      1  0.4385950000000  0.5086270000000  0.4697430000000 1.0
C      1  0.5630300000000  0.5340310000000  0.5111680000000 1.0
C      1  0.4393000000000  0.4924780000000  0.5293920000000 1.0
C      1  0.4625060000000  0.4954660000000  0.5112390000000 1.0
C      1  0.5363340000000  0.4902130000000  0.4978010000000 1.0
C      1  0.4618490000000  0.5072160000000  0.4858860000000 1.0
C      1  0.5400780000000  0.5165320000000  0.5050140000000 1.0
C      1  0.4850310000000  0.4850310000000  0.4206810000000 1.0
C      1  0.5132830000000  0.5798210000000  0.4836240000000 1.0
C      1  0.4849840000000  0.5172800000000  0.5763650000000 1.0
C      1  0.5105290000000  0.4191370000000  0.5151440000000 1.0
C      1  0.5083940000000  0.4570230000000  0.5250480000000 1.0
C      1  0.4889070000000  0.4747100000000  0.4654020000000 1.0
C      1  0.5000730000000  0.5305580000000  0.4782810000000 1.0
C      1  0.4993410000000  0.5217390000000  0.5279770000000 1.0
C      1  0.5039670000000  0.5615330000000  0.5495220000000 1.0
C      1  0.4955500000000  0.4502820000000  0.5615500000000 1.0
C      1  0.5062940000000  0.4418100000000  0.4515510000000 1.0
C      1  0.4950710000000  0.5509860000000  0.4382070000000 1.0
C      1  0.5089860000000  0.4858370000000  0.5031580000000 1.0
END
