TITL C-2441154-10-39 0.164723404297699 125000 -23728.5478219494 0 0 188 (C1) n - 1
REM
REM in /home/bkarasulu/work/CARBON/AIRSS/Generating-Clusters/ReaxFF-fromJPCA2015/Units_Real/with-SteepDescent/Higher-Symm
REM
REM
REM
REM
REM
REM ./C.cell (1df0a924f5614ab8850e4351716899ee)
REM
REM compiler GCC version 9.2.1 20190827 (Red Hat 9.2.1-1)
REM options -cpp -mtune=generic -march=x86-64 -g -O0 -fpre-include=/usr/include/finclude/math-vector-fortran.h
REM seed -1948220506 1404496862 -967565283 -1900822518 -19834086 503816289 1003630591 1787954016 -1313874313 22603198 1265222546 -487784811 1291631285 1086184567 -2127075705 130337206 -187682592 -273858504 -988606180 1156948551 861265356 933859010 1800125374 -2048940663 -1460753066 1835618094 446077244 -938333670 -1443338669 2145310544 1446566242 190350801 1213481274
REM
CELL 1.54180   50.00000   50.00000   50.00000   90.00000   90.00000   90.00000
LATT -1
SFAC C  
C      1  0.5010780000000  0.6029790000000  0.4605080000000 1.0
C      1  0.4900130000000  0.4032150000000  0.5540840000000 1.0
C      1  0.4262080000000  0.5224920000000  0.4217970000000 1.0
C      1  0.5418320000000  0.5070410000000  0.5703390000000 1.0
C      1  0.5436940000000  0.4853390000000  0.5282320000000 1.0
C      1  0.5079190000000  0.4874430000000  0.6018750000000 1.0
C      1  0.4480800000000  0.5908120000000  0.5199610000000 1.0
C      1  0.4506280000000  0.5341400000000  0.4889790000000 1.0
C      1  0.4900560000000  0.5923660000000  0.4365000000000 1.0
C      1  0.4599470000000  0.4833630000000  0.4083190000000 1.0
C      1  0.4420700000000  0.4632210000000  0.5230520000000 1.0
C      1  0.5266240000000  0.5330740000000  0.5974310000000 1.0
C      1  0.4581140000000  0.5688510000000  0.4540850000000 1.0
C      1  0.4952690000000  0.5349300000000  0.4455190000000 1.0
C      1  0.4721880000000  0.5752480000000  0.5726760000000 1.0
C      1  0.5061000000000  0.4157560000000  0.5753530000000 1.0
C      1  0.4962770000000  0.4051120000000  0.4600630000000 1.0
C      1  0.4352900000000  0.4380140000000  0.4514170000000 1.0
C      1  0.6073790000000  0.5073810000000  0.5451530000000 1.0
C      1  0.5320350000000  0.4718310000000  0.4378730000000 1.0
C      1  0.4732550000000  0.5727770000000  0.4784150000000 1.0
C      1  0.5594250000000  0.4296830000000  0.5350840000000 1.0
C      1  0.4063080000000  0.5314350000000  0.5119510000000 1.0
C      1  0.5584850000000  0.4203010000000  0.4856430000000 1.0
C      1  0.5421150000000  0.5531740000000  0.5846100000000 1.0
C      1  0.5067200000000  0.4918080000000  0.4657430000000 1.0
C      1  0.4387800000000  0.4251340000000  0.5489540000000 1.0
C      1  0.5485940000000  0.4578170000000  0.4183690000000 1.0
C      1  0.5815630000000  0.4766710000000  0.5114260000000 1.0
C      1  0.4731320000000  0.5496890000000  0.5871020000000 1.0
C      1  0.5900540000000  0.4615560000000  0.4572580000000 1.0
C      1  0.5064680000000  0.5666460000000  0.4113460000000 1.0
C      1  0.4549670000000  0.4417430000000  0.5685400000000 1.0
C      1  0.5451060000000  0.5555950000000  0.4365030000000 1.0
C      1  0.5542400000000  0.4399880000000  0.5077780000000 1.0
C      1  0.4792750000000  0.5356070000000  0.4885400000000 1.0
C      1  0.4727040000000  0.4419100000000  0.4220360000000 1.0
C      1  0.5807860000000  0.5677130000000  0.5180820000000 1.0
C      1  0.5384010000000  0.4112360000000  0.4384440000000 1.0
C      1  0.5708960000000  0.5201100000000  0.4601150000000 1.0
C      1  0.5313320000000  0.4282230000000  0.5820820000000 1.0
C      1  0.5265750000000  0.5718300000000  0.5679020000000 1.0
C      1  0.4968600000000  0.4622000000000  0.5971710000000 1.0
C      1  0.5721090000000  0.5435320000000  0.5734190000000 1.0
C      1  0.5843590000000  0.5285510000000  0.5039840000000 1.0
C      1  0.5361660000000  0.5747530000000  0.4495510000000 1.0
C      1  0.4486310000000  0.5223610000000  0.4616710000000 1.0
C      1  0.4622110000000  0.4975350000000  0.4678720000000 1.0
C      1  0.4206690000000  0.4790400000000  0.5802850000000 1.0
C      1  0.5722570000000  0.5569540000000  0.4446020000000 1.0
C      1  0.5102070000000  0.4289560000000  0.4935540000000 1.0
C      1  0.5095270000000  0.5418170000000  0.4138620000000 1.0
C      1  0.3959660000000  0.5104580000000  0.4688740000000 1.0
C      1  0.5948330000000  0.4857640000000  0.5614680000000 1.0
C      1  0.4500840000000  0.4588300000000  0.4671140000000 1.0
C      1  0.4242430000000  0.4242490000000  0.4890680000000 1.0
C      1  0.5309340000000  0.4989050000000  0.4022480000000 1.0
C      1  0.4815700000000  0.5095930000000  0.5453810000000 1.0
C      1  0.4046700000000  0.5365830000000  0.4779000000000 1.0
C      1  0.4091080000000  0.4670580000000  0.5552790000000 1.0
C      1  0.5754480000000  0.5291410000000  0.4339240000000 1.0
C      1  0.5309560000000  0.4554070000000  0.5915990000000 1.0
C      1  0.4967360000000  0.5527790000000  0.4743130000000 1.0
C      1  0.5870280000000  0.5289240000000  0.5516860000000 1.0
C      1  0.5140340000000  0.5129690000000  0.5067100000000 1.0
C      1  0.6077570000000  0.5047370000000  0.4617020000000 1.0
C      1  0.3973660000000  0.4843480000000  0.5336420000000 1.0
C      1  0.4819580000000  0.5354330000000  0.5136640000000 1.0
C      1  0.4865700000000  0.4532650000000  0.5430750000000 1.0
C      1  0.5310380000000  0.4633950000000  0.5631050000000 1.0
C      1  0.5137150000000  0.4735450000000  0.5051330000000 1.0
C      1  0.4334850000000  0.5192580000000  0.5084320000000 1.0
C      1  0.4940410000000  0.4540930000000  0.4062610000000 1.0
C      1  0.5895290000000  0.5354560000000  0.4767760000000 1.0
C      1  0.5259640000000  0.4221200000000  0.5567980000000 1.0
C      1  0.4104540000000  0.4400100000000  0.4687510000000 1.0
C      1  0.4625530000000  0.4039500000000  0.5017270000000 1.0
C      1  0.4556140000000  0.5594620000000  0.4147740000000 1.0
C      1  0.5375120000000  0.4592090000000  0.4619250000000 1.0
C      1  0.5274550000000  0.5976120000000  0.5153290000000 1.0
C      1  0.4141840000000  0.5725880000000  0.5023850000000 1.0
C      1  0.5025000000000  0.3893650000000  0.5301930000000 1.0
C      1  0.4323030000000  0.5502410000000  0.4298890000000 1.0
C      1  0.4966260000000  0.4653530000000  0.4652590000000 1.0
C      1  0.5907320000000  0.5430920000000  0.5264230000000 1.0
C      1  0.4576420000000  0.4123200000000  0.5293110000000 1.0
C      1  0.5897070000000  0.4893970000000  0.4414320000000 1.0
C      1  0.5700430000000  0.4299720000000  0.4605160000000 1.0
C      1  0.5244120000000  0.3988200000000  0.4619550000000 1.0
C      1  0.4142180000000  0.5579940000000  0.5258430000000 1.0
C      1  0.5305870000000  0.5050990000000  0.4670370000000 1.0
C      1  0.4102650000000  0.4995480000000  0.4320120000000 1.0
C      1  0.4361330000000  0.4911440000000  0.5035740000000 1.0
C      1  0.5364800000000  0.4986770000000  0.5980050000000 1.0
C      1  0.4666540000000  0.5550080000000  0.5273190000000 1.0
C      1  0.4996480000000  0.5802060000000  0.5647530000000 1.0
C      1  0.5156840000000  0.4432350000000  0.4698630000000 1.0
C      1  0.4655920000000  0.5339420000000  0.4036820000000 1.0
C      1  0.5385250000000  0.3990000000000  0.4875860000000 1.0
C      1  0.5269420000000  0.5560910000000  0.4898560000000 1.0
C      1  0.4859920000000  0.4801720000000  0.3979740000000 1.0
C      1  0.5666820000000  0.4904670000000  0.4228530000000 1.0
C      1  0.5974340000000  0.4451740000000  0.5330710000000 1.0
C      1  0.4394590000000  0.5549220000000  0.5411780000000 1.0
C      1  0.4533940000000  0.5279680000000  0.5862700000000 1.0
C      1  0.4052510000000  0.4648730000000  0.4832400000000 1.0
C      1  0.5279930000000  0.3946960000000  0.5157350000000 1.0
C      1  0.4982180000000  0.5369540000000  0.5987490000000 1.0
C      1  0.4708840000000  0.4743120000000  0.4533900000000 1.0
C      1  0.5583070000000  0.4902540000000  0.5060040000000 1.0
C      1  0.6063580000000  0.4647340000000  0.4816490000000 1.0
C      1  0.4183840000000  0.4886450000000  0.4747360000000 1.0
C      1  0.4914410000000  0.4060200000000  0.4900410000000 1.0
C      1  0.4507530000000  0.5106950000000  0.4127750000000 1.0
C      1  0.5040630000000  0.5015270000000  0.3903520000000 1.0
C      1  0.5455200000000  0.5256550000000  0.5344360000000 1.0
C      1  0.5917100000000  0.4731990000000  0.5353230000000 1.0
C      1  0.4417960000000  0.4133740000000  0.4676950000000 1.0
C      1  0.5223450000000  0.4461100000000  0.4081680000000 1.0
C      1  0.4186800000000  0.5067220000000  0.5799300000000 1.0
C      1  0.4614380000000  0.5051650000000  0.6014190000000 1.0
C      1  0.5184470000000  0.4885260000000  0.5265850000000 1.0
C      1  0.4840200000000  0.5781240000000  0.4194080000000 1.0
C      1  0.5085370000000  0.5365170000000  0.5241990000000 1.0
C      1  0.4955420000000  0.5051830000000  0.4431250000000 1.0
C      1  0.5807550000000  0.5632110000000  0.4717810000000 1.0
C      1  0.5290700000000  0.5945300000000  0.4649180000000 1.0
C      1  0.5582110000000  0.4325310000000  0.4350920000000 1.0
C      1  0.5631770000000  0.4692020000000  0.4674170000000 1.0
C      1  0.4200370000000  0.4448800000000  0.5405610000000 1.0
C      1  0.4557260000000  0.5124170000000  0.5584850000000 1.0
C      1  0.4411690000000  0.6021290000000  0.4917930000000 1.0
C      1  0.4213190000000  0.5545170000000  0.4622110000000 1.0
C      1  0.4505730000000  0.4645730000000  0.5532230000000 1.0
C      1  0.6142810000000  0.4922600000000  0.4896930000000 1.0
C      1  0.3893950000000  0.4739990000000  0.5061500000000 1.0
C      1  0.4468720000000  0.4444020000000  0.4928040000000 1.0
C      1  0.4910720000000  0.6084150000000  0.4879290000000 1.0
C      1  0.5423210000000  0.5891890000000  0.4914520000000 1.0
C      1  0.4651550000000  0.4240150000000  0.4828620000000 1.0
C      1  0.5006210000000  0.5299250000000  0.5512380000000 1.0
C      1  0.5278630000000  0.5264900000000  0.4852710000000 1.0
C      1  0.4783880000000  0.5095560000000  0.5179650000000 1.0
C      1  0.5351690000000  0.5781900000000  0.5364570000000 1.0
C      1  0.4474400000000  0.4589250000000  0.4181400000000 1.0
C      1  0.6151360000000  0.5012980000000  0.5176240000000 1.0
C      1  0.5762890000000  0.4665970000000  0.5754230000000 1.0
C      1  0.5076750000000  0.4711780000000  0.5496340000000 1.0
C      1  0.5254880000000  0.4472060000000  0.5093490000000 1.0
C      1  0.4860040000000  0.4693840000000  0.4995890000000 1.0
C      1  0.5406380000000  0.4087140000000  0.5379270000000 1.0
C      1  0.5180350000000  0.4933530000000  0.4277410000000 1.0
C      1  0.4259950000000  0.4865080000000  0.4482990000000 1.0
C      1  0.5717920000000  0.5671390000000  0.5597810000000 1.0
C      1  0.5559650000000  0.5155960000000  0.4089470000000 1.0
C      1  0.4721070000000  0.4612720000000  0.5213000000000 1.0
C      1  0.5290810000000  0.5284670000000  0.5560170000000 1.0
C      1  0.5664200000000  0.5817040000000  0.5357970000000 1.0
C      1  0.4869330000000  0.5822740000000  0.5351720000000 1.0
C      1  0.3956630000000  0.5126040000000  0.5345820000000 1.0
C      1  0.5571520000000  0.4969830000000  0.4684830000000 1.0
C      1  0.5158430000000  0.4231310000000  0.4239410000000 1.0
C      1  0.4333960000000  0.5281920000000  0.5494220000000 1.0
C      1  0.4221470000000  0.5803280000000  0.4774870000000 1.0
C      1  0.3787250000000  0.4962130000000  0.4894070000000 1.0
C      1  0.4921930000000  0.5271230000000  0.3943120000000 1.0
C      1  0.4061210000000  0.5227370000000  0.5599710000000 1.0
C      1  0.4833120000000  0.4250840000000  0.5361540000000 1.0
C      1  0.5779870000000  0.4419140000000  0.5542960000000 1.0
C      1  0.5704340000000  0.5780080000000  0.4947650000000 1.0
C      1  0.4703570000000  0.4527210000000  0.5919620000000 1.0
C      1  0.5913770000000  0.4508900000000  0.5033580000000 1.0
C      1  0.4511660000000  0.4778980000000  0.5929830000000 1.0
C      1  0.4593200000000  0.5691830000000  0.5048550000000 1.0
C      1  0.4646910000000  0.6110070000000  0.4786080000000 1.0
C      1  0.5494200000000  0.4840640000000  0.5540480000000 1.0
C      1  0.4667000000000  0.5415690000000  0.4490280000000 1.0
C      1  0.4669090000000  0.4932370000000  0.4975040000000 1.0
C      1  0.4605280000000  0.5901880000000  0.5472040000000 1.0
C      1  0.4220770000000  0.4714360000000  0.4265510000000 1.0
C      1  0.5589630000000  0.5196360000000  0.5117400000000 1.0
C      1  0.4892440000000  0.4231090000000  0.4375520000000 1.0
C      1  0.5002040000000  0.5965900000000  0.5128670000000 1.0
C      1  0.4583380000000  0.4851570000000  0.5651910000000 1.0
C      1  0.5254290000000  0.5571560000000  0.5182390000000 1.0
C      1  0.4895810000000  0.5092630000000  0.6016760000000 1.0
C      1  0.5544200000000  0.4741500000000  0.5943060000000 1.0
C      1  0.5370070000000  0.5397890000000  0.4145030000000 1.0
END
