TITL C-2441156-4686-816 0.0381226618007969 125000 -9214.92701100399 0 0 70 (C1) n - 1
REM
REM in /home/bkarasulu/work/CARBON/AIRSS/Generating-Clusters/ReaxFF-fromJPCA2015/Units_Real/with-SteepDescent/Higher-Symm
REM
REM
REM
REM
REM
REM ./C.cell (1df0a924f5614ab8850e4351716899ee)
REM
REM compiler GCC version 9.2.1 20190827 (Red Hat 9.2.1-1)
REM options -cpp -mtune=generic -march=x86-64 -g -O0 -fpre-include=/usr/include/finclude/math-vector-fortran.h
REM seed 256994598 -2116661336 1920259129 -2116975357 1243204554 -379651717 -802130167 653698425 729012721 -1820586372 -558873222 -1807320386 -1767737509 -1830570013 815226889 999202001 411347664 1363992702 -2090662834 -679188600 -86366356 1931607532 539439222 -1984153972 878165768 22163964 -1999885217 -1734314591 1763463926 -1407428434 -1040881506 -1694885491 -186801765
REM
CELL 1.54180   50.00000   50.00000   50.00000   90.00000   90.00000   90.00000
LATT -1
SFAC C  
C      1  0.4604710000000  0.5284380000000  0.5695990000000 1.0
C      1  0.4593260000000  0.5474090000000  0.4411440000000 1.0
C      1  0.4695440000000  0.4306590000000  0.4959220000000 1.0
C      1  0.4900580000000  0.5365330000000  0.5370780000000 1.0
C      1  0.4885320000000  0.5161100000000  0.4516870000000 1.0
C      1  0.4883960000000  0.4426930000000  0.5168230000000 1.0
C      1  0.5675500000000  0.4871770000000  0.5357260000000 1.0
C      1  0.5688100000000  0.5375010000000  0.4907380000000 1.0
C      1  0.5735720000000  0.4742090000000  0.4737220000000 1.0
C      1  0.4669730000000  0.4627010000000  0.5531850000000 1.0
C      1  0.4663750000000  0.5639630000000  0.5066820000000 1.0
C      1  0.4646100000000  0.4761270000000  0.4357300000000 1.0
C      1  0.5533540000000  0.4689960000000  0.4913990000000 1.0
C      1  0.5505050000000  0.5083280000000  0.5310330000000 1.0
C      1  0.5510370000000  0.5240070000000  0.4743820000000 1.0
C      1  0.4774970000000  0.4620610000000  0.4701730000000 1.0
C      1  0.4763180000000  0.5002310000000  0.5429330000000 1.0
C      1  0.4774080000000  0.5381990000000  0.4764700000000 1.0
C      1  0.4444410000000  0.5214650000000  0.4458850000000 1.0
C      1  0.4485890000000  0.4445660000000  0.5112520000000 1.0
C      1  0.4467040000000  0.5372290000000  0.5449760000000 1.0
C      1  0.5370210000000  0.4288890000000  0.5184780000000 1.0
C      1  0.5364050000000  0.5514460000000  0.5530230000000 1.0
C      1  0.5303810000000  0.5065750000000  0.4278710000000 1.0
C      1  0.5517760000000  0.5085370000000  0.4482990000000 1.0
C      1  0.5543410000000  0.4523820000000  0.5171040000000 1.0
C      1  0.5538730000000  0.5382540000000  0.5342490000000 1.0
C      1  0.5369350000000  0.4652970000000  0.4472110000000 1.0
C      1  0.5353050000000  0.4688500000000  0.5556050000000 1.0
C      1  0.5371420000000  0.5632370000000  0.4981840000000 1.0
C      1  0.5261580000000  0.5387500000000  0.4829160000000 1.0
C      1  0.5274080000000  0.4677190000000  0.4752030000000 1.0
C      1  0.5243500000000  0.4941250000000  0.5392140000000 1.0
C      1  0.5069640000000  0.5255810000000  0.4282950000000 1.0
C      1  0.5092680000000  0.4241830000000  0.5173920000000 1.0
C      1  0.5077170000000  0.5508090000000  0.5553830000000 1.0
C      1  0.5631510000000  0.4609230000000  0.5433040000000 1.0
C      1  0.5644530000000  0.5541730000000  0.5123150000000 1.0
C      1  0.5631890000000  0.4817790000000  0.4485090000000 1.0
C      1  0.5029990000000  0.4758620000000  0.5161150000000 1.0
C      1  0.5022540000000  0.5258630000000  0.5117350000000 1.0
C      1  0.5019680000000  0.4977250000000  0.4710200000000 1.0
C      1  0.4515790000000  0.5517330000000  0.4849260000000 1.0
C      1  0.4518230000000  0.4651910000000  0.4594330000000 1.0
C      1  0.4514450000000  0.4871960000000  0.5526500000000 1.0
C      1  0.4902430000000  0.4750680000000  0.5410090000000 1.0
C      1  0.4917420000000  0.5498380000000  0.4993530000000 1.0
C      1  0.4927210000000  0.4750700000000  0.4503870000000 1.0
C      1  0.4863340000000  0.4379900000000  0.4735290000000 1.0
C      1  0.4829940000000  0.5084010000000  0.5702160000000 1.0
C      1  0.4811760000000  0.5595440000000  0.4566380000000 1.0
C      1  0.4651070000000  0.5048630000000  0.4341190000000 1.0
C      1  0.4646590000000  0.4407730000000  0.5354870000000 1.0
C      1  0.4668390000000  0.5554160000000  0.5337500000000 1.0
C      1  0.4362770000000  0.4810250000000  0.4783160000000 1.0
C      1  0.4360220000000  0.4914630000000  0.5272900000000 1.0
C      1  0.4359280000000  0.5284830000000  0.4940820000000 1.0
C      1  0.5156690000000  0.4406110000000  0.4735040000000 1.0
C      1  0.5126270000000  0.5078700000000  0.5625140000000 1.0
C      1  0.5128810000000  0.5528160000000  0.4601860000000 1.0
C      1  0.5237850000000  0.4215960000000  0.4942840000000 1.0
C      1  0.5234600000000  0.5332090000000  0.5708360000000 1.0
C      1  0.5236080000000  0.5466590000000  0.4349020000000 1.0
C      1  0.5138240000000  0.5737770000000  0.5092630000000 1.0
C      1  0.5178730000000  0.4805230000000  0.4326560000000 1.0
C      1  0.5117430000000  0.4555150000000  0.5600220000000 1.0
C      1  0.4380250000000  0.4713990000000  0.5058820000000 1.0
C      1  0.4375760000000  0.5194970000000  0.5218790000000 1.0
C      1  0.4369700000000  0.5094840000000  0.4723510000000 1.0
C      1  0.4976550000000  0.4990250000000  0.4997480000000 1.0
END
