TITL C-2441162-9305-925 0.0237169628991491 125000 -11341.1161081949 0 0 81 (C1) n - 1
REM
REM in /home/bkarasulu/work/CARBON/AIRSS/Generating-Clusters/ReaxFF-fromJPCA2015/Units_Real/with-SteepDescent/Higher-Symm
REM
REM
REM
REM
REM
REM ./C.cell (1df0a924f5614ab8850e4351716899ee)
REM
REM compiler GCC version 9.2.1 20190827 (Red Hat 9.2.1-1)
REM options -cpp -mtune=generic -march=x86-64 -g -O0 -fpre-include=/usr/include/finclude/math-vector-fortran.h
REM seed 922085479 -1934924486 -248773656 -1158121032 385669587 -1868054789 -1471790524 38873850 1492936838 -272970692 1100897608 -330467742 2007495203 -123498566 -897628042 438045076 -1453376564 -374278884 1493716979 141632199 -336802437 -707102019 -64893880 -509616186 -1569230482 -1296256904 1731461231 2892362 -587053653 1072317457 -1433178939 1220350691 1052467534
REM
CELL 1.54180   50.00000   50.00000   50.00000   90.00000   90.00000   90.00000
LATT -1
SFAC C  
C      1  0.5336600000000  0.4519300000000  0.5345230000000 1.0
C      1  0.5134280000000  0.4512740000000  0.4527690000000 1.0
C      1  0.4574880000000  0.4572100000000  0.5100830000000 1.0
C      1  0.4667860000000  0.4528540000000  0.5366680000000 1.0
C      1  0.4853360000000  0.4521180000000  0.4521280000000 1.0
C      1  0.5460700000000  0.4550600000000  0.5097560000000 1.0
C      1  0.4702730000000  0.4930690000000  0.5001300000000 1.0
C      1  0.5142640000000  0.4948050000000  0.5241840000000 1.0
C      1  0.5144540000000  0.4952140000000  0.4751930000000 1.0
C      1  0.5291920000000  0.4948180000000  0.4995380000000 1.0
C      1  0.4857130000000  0.4945580000000  0.5250590000000 1.0
C      1  0.4856820000000  0.4955400000000  0.4760170000000 1.0
C      1  0.5783020000000  0.4715760000000  0.4837740000000 1.0
C      1  0.4466930000000  0.4716050000000  0.4425500000000 1.0
C      1  0.4752740000000  0.4706110000000  0.5764610000000 1.0
C      1  0.4235890000000  0.4714380000000  0.4836970000000 1.0
C      1  0.5534660000000  0.4709790000000  0.4437040000000 1.0
C      1  0.5228380000000  0.4706560000000  0.5746410000000 1.0
C      1  0.5694130000000  0.5000630000000  0.5251040000000 1.0
C      1  0.4865520000000  0.4999490000000  0.4284440000000 1.0
C      1  0.4448160000000  0.4999640000000  0.5483790000000 1.0
C      1  0.4303140000000  0.4999020000000  0.5249230000000 1.0
C      1  0.5138430000000  0.4990530000000  0.4291870000000 1.0
C      1  0.5543540000000  0.4994240000000  0.5481320000000 1.0
C      1  0.5242330000000  0.5207980000000  0.5296180000000 1.0
C      1  0.5139350000000  0.5216540000000  0.4641210000000 1.0
C      1  0.4616370000000  0.5207930000000  0.5051040000000 1.0
C      1  0.4758400000000  0.5208790000000  0.5297320000000 1.0
C      1  0.4857770000000  0.5217590000000  0.4648260000000 1.0
C      1  0.5383920000000  0.5213220000000  0.5052400000000 1.0
C      1  0.5535990000000  0.5578010000000  0.5141580000000 1.0
C      1  0.4856480000000  0.5583030000000  0.4466110000000 1.0
C      1  0.4611930000000  0.5573440000000  0.5390390000000 1.0
C      1  0.4464760000000  0.5576880000000  0.5139340000000 1.0
C      1  0.5145100000000  0.5579200000000  0.4466250000000 1.0
C      1  0.5387810000000  0.5573350000000  0.5389210000000 1.0
C      1  0.5300330000000  0.5699970000000  0.5001710000000 1.0
C      1  0.4850500000000  0.5705880000000  0.4734480000000 1.0
C      1  0.4847380000000  0.5698480000000  0.5256210000000 1.0
C      1  0.4698910000000  0.5699070000000  0.5000960000000 1.0
C      1  0.5147480000000  0.5702750000000  0.4738740000000 1.0
C      1  0.5153570000000  0.5699650000000  0.5259010000000 1.0
C      1  0.5268530000000  0.5276830000000  0.4380600000000 1.0
C      1  0.4325210000000  0.5274720000000  0.5081480000000 1.0
C      1  0.5392100000000  0.5275940000000  0.5541910000000 1.0
C      1  0.4734370000000  0.5279440000000  0.4381780000000 1.0
C      1  0.5677650000000  0.5273530000000  0.5083540000000 1.0
C      1  0.4605860000000  0.5272920000000  0.5544160000000 1.0
C      1  0.4795990000000  0.5212370000000  0.5760720000000 1.0
C      1  0.5837320000000  0.5200400000000  0.4855470000000 1.0
C      1  0.4458730000000  0.5202170000000  0.4349280000000 1.0
C      1  0.5205670000000  0.5211840000000  0.5760230000000 1.0
C      1  0.4162020000000  0.5197890000000  0.4858760000000 1.0
C      1  0.5541190000000  0.5198210000000  0.4368010000000 1.0
C      1  0.5656000000000  0.4945670000000  0.4318190000000 1.0
C      1  0.4071290000000  0.4942300000000  0.4776570000000 1.0
C      1  0.5265220000000  0.4953870000000  0.5893600000000 1.0
C      1  0.4338570000000  0.4948840000000  0.4314370000000 1.0
C      1  0.5937890000000  0.4950880000000  0.4775600000000 1.0
C      1  0.4721560000000  0.4961750000000  0.5897660000000 1.0
C      1  0.5276410000000  0.4376960000000  0.4696590000000 1.0
C      1  0.4570450000000  0.4390820000000  0.4895910000000 1.0
C      1  0.5122500000000  0.4383480000000  0.5387670000000 1.0
C      1  0.4651060000000  0.4383870000000  0.4653020000000 1.0
C      1  0.5455090000000  0.4404050000000  0.4844220000000 1.0
C      1  0.4905530000000  0.4395680000000  0.5475620000000 1.0
C      1  0.4331940000000  0.4751270000000  0.5093570000000 1.0
C      1  0.5411820000000  0.4736230000000  0.5535120000000 1.0
C      1  0.5258910000000  0.4738330000000  0.4383600000000 1.0
C      1  0.5670980000000  0.4746690000000  0.5098680000000 1.0
C      1  0.4574170000000  0.4736630000000  0.5541530000000 1.0
C      1  0.4741560000000  0.4743240000000  0.4368710000000 1.0
C      1  0.5139140000000  0.5164750000000  0.6025260000000 1.0
C      1  0.5811690000000  0.5176860000000  0.4375410000000 1.0
C      1  0.4051750000000  0.5176310000000  0.4611640000000 1.0
C      1  0.4864790000000  0.5169340000000  0.6036620000000 1.0
C      1  0.4187880000000  0.5180760000000  0.4379490000000 1.0
C      1  0.5950610000000  0.5177810000000  0.4606590000000 1.0
C      1  0.5639390000000  0.4537640000000  0.4658690000000 1.0
C      1  0.4389010000000  0.4513890000000  0.4642810000000 1.0
C      1  0.4983790000000  0.4529370000000  0.5726460000000 1.0
END
