TITL C-2441156-4686-354 0.00140312499685571 125000 -5714.90008934026 0 0 40 (C1) n - 1
REM
REM in /home/bkarasulu/work/CARBON/AIRSS/Generating-Clusters/ReaxFF-fromJPCA2015/Units_Real/with-SteepDescent/Higher-Symm
REM
REM
REM
REM
REM
REM ./C.cell (1df0a924f5614ab8850e4351716899ee)
REM
REM compiler GCC version 9.2.1 20190827 (Red Hat 9.2.1-1)
REM options -cpp -mtune=generic -march=x86-64 -g -O0 -fpre-include=/usr/include/finclude/math-vector-fortran.h
REM seed -76312415 347375597 -1150609373 -700195054 312540739 -1268883503 -1701335555 1611430033 -827456008 -1978070632 183137746 -852167493 -1618978261 408872357 -800701456 531177686 -802436364 -484516017 1534961266 873542507 155833406 1257935612 -1663085734 1179615097 -1735574748 1891539081 323311110 427753862 1573589564 694830211 2049179395 382803112 -1475049787
REM
CELL 1.54180   50.00000   50.00000   50.00000   90.00000   90.00000   90.00000
LATT -1
SFAC C  
C      1  0.5244920000000  0.5270040000000  0.4534380000000 1.0
C      1  0.4551770000000  0.5227080000000  0.5279840000000 1.0
C      1  0.5271990000000  0.4511490000000  0.5240300000000 1.0
C      1  0.4813260000000  0.5234120000000  0.5368370000000 1.0
C      1  0.5170280000000  0.4753770000000  0.5367330000000 1.0
C      1  0.4805770000000  0.4740290000000  0.4619980000000 1.0
C      1  0.5371050000000  0.5170600000000  0.4755890000000 1.0
C      1  0.4543740000000  0.4748660000000  0.4703340000000 1.0
C      1  0.5454460000000  0.4737450000000  0.5290560000000 1.0
C      1  0.4703070000000  0.4522210000000  0.4756030000000 1.0
C      1  0.5291340000000  0.5435420000000  0.4756470000000 1.0
C      1  0.4715400000000  0.5450920000000  0.5230340000000 1.0
C      1  0.4983290000000  0.5147180000000  0.5593180000000 1.0
C      1  0.5596420000000  0.4959850000000  0.5147210000000 1.0
C      1  0.5149700000000  0.5577920000000  0.4972740000000 1.0
C      1  0.5004620000000  0.5149580000000  0.4411730000000 1.0
C      1  0.4986570000000  0.4837040000000  0.4408480000000 1.0
C      1  0.5003840000000  0.4840080000000  0.5597480000000 1.0
C      1  0.4402510000000  0.4970390000000  0.4839030000000 1.0
C      1  0.5588720000000  0.4989270000000  0.4837580000000 1.0
C      1  0.4415400000000  0.5004710000000  0.5146530000000 1.0
C      1  0.4836850000000  0.5578400000000  0.4994850000000 1.0
C      1  0.5139620000000  0.4392910000000  0.4998350000000 1.0
C      1  0.4829910000000  0.4389400000000  0.4984090000000 1.0
C      1  0.5220280000000  0.4677390000000  0.4355630000000 1.0
C      1  0.4344470000000  0.5204620000000  0.4679240000000 1.0
C      1  0.4680500000000  0.4367200000000  0.5232540000000 1.0
C      1  0.4767700000000  0.4674870000000  0.5630240000000 1.0
C      1  0.5222540000000  0.5306490000000  0.5629030000000 1.0
C      1  0.4776790000000  0.5275650000000  0.4485510000000 1.0
C      1  0.5509050000000  0.5176520000000  0.5277610000000 1.0
C      1  0.4397570000000  0.4763380000000  0.5307140000000 1.0
C      1  0.5631430000000  0.4759820000000  0.4667900000000 1.0
C      1  0.5276060000000  0.4477410000000  0.4783940000000 1.0
C      1  0.4674310000000  0.5601780000000  0.4755830000000 1.0
C      1  0.5300440000000  0.5604890000000  0.5216380000000 1.0
C      1  0.5416770000000  0.4564990000000  0.4564740000000 1.0
C      1  0.4544550000000  0.5404160000000  0.4560710000000 1.0
C      1  0.4566430000000  0.4554030000000  0.5439070000000 1.0
C      1  0.5417780000000  0.5402440000000  0.5413690000000 1.0
END
