TITL C-2441157-2117-360 0.0193498316613533 125000 -13886.3738169789 0 0 98 (C1) n - 1
REM
REM in /home/bkarasulu/work/CARBON/AIRSS/Generating-Clusters/ReaxFF-fromJPCA2015/Units_Real/with-SteepDescent/Higher-Symm
REM
REM
REM
REM
REM
REM ./C.cell (1df0a924f5614ab8850e4351716899ee)
REM
REM compiler GCC version 9.2.1 20190827 (Red Hat 9.2.1-1)
REM options -cpp -mtune=generic -march=x86-64 -g -O0 -fpre-include=/usr/include/finclude/math-vector-fortran.h
REM seed -2046909374 247875021 -983772155 1388306792 1363092613 -1483506855 908865440 -1543458247 -1171661597 1826282022 771051311 -910598487 -1141477258 415648466 1501865258 251753708 1170163375 1021635797 306027109 -615363644 2071047053 -434442702 27011695 -1066422013 829185490 630830695 -1546696239 1184001680 -1952064924 -997784817 284016382 1641255164 -260512089
REM
CELL 1.54180   50.00000   50.00000   50.00000   90.00000   90.00000   90.00000
LATT -1
SFAC C  
C      1  0.5125280000000  0.5643440000000  0.5452380000000 1.0
C      1  0.5724250000000  0.4965630000000  0.5418970000000 1.0
C      1  0.5303750000000  0.4344660000000  0.5478150000000 1.0
C      1  0.4513640000000  0.4563670000000  0.5530940000000 1.0
C      1  0.4421820000000  0.5313880000000  0.5509650000000 1.0
C      1  0.5138270000000  0.4356440000000  0.4641260000000 1.0
C      1  0.5664970000000  0.4947830000000  0.4522950000000 1.0
C      1  0.5266610000000  0.5620830000000  0.4586220000000 1.0
C      1  0.4412060000000  0.5412510000000  0.4578170000000 1.0
C      1  0.4419300000000  0.4657780000000  0.4548710000000 1.0
C      1  0.4974640000000  0.5199790000000  0.5784000000000 1.0
C      1  0.5226050000000  0.5038460000000  0.5888100000000 1.0
C      1  0.5128320000000  0.4770940000000  0.5885080000000 1.0
C      1  0.4836380000000  0.4785290000000  0.5891400000000 1.0
C      1  0.4719030000000  0.5047890000000  0.5847880000000 1.0
C      1  0.5019270000000  0.4748690000000  0.4116230000000 1.0
C      1  0.5226290000000  0.4950040000000  0.4096570000000 1.0
C      1  0.5101230000000  0.5208820000000  0.4080660000000 1.0
C      1  0.4813330000000  0.5157670000000  0.4080310000000 1.0
C      1  0.4758080000000  0.4872350000000  0.4111500000000 1.0
C      1  0.4513460000000  0.5667360000000  0.4712390000000 1.0
C      1  0.5477570000000  0.5592530000000  0.4777430000000 1.0
C      1  0.5766590000000  0.4768360000000  0.4736450000000 1.0
C      1  0.4925450000000  0.4222650000000  0.4784530000000 1.0
C      1  0.4203020000000  0.4735140000000  0.4723980000000 1.0
C      1  0.4506620000000  0.4347540000000  0.5309720000000 1.0
C      1  0.5480920000000  0.4321430000000  0.5251690000000 1.0
C      1  0.5786730000000  0.5238210000000  0.5288610000000 1.0
C      1  0.4978910000000  0.5816900000000  0.5247700000000 1.0
C      1  0.4255050000000  0.5273440000000  0.5257370000000 1.0
C      1  0.4682630000000  0.5458110000000  0.5531420000000 1.0
C      1  0.5344960000000  0.5336320000000  0.5591680000000 1.0
C      1  0.5471020000000  0.4854330000000  0.5522420000000 1.0
C      1  0.4983790000000  0.4572740000000  0.5545710000000 1.0
C      1  0.4519030000000  0.4844550000000  0.5459890000000 1.0
C      1  0.4807230000000  0.4660390000000  0.4451020000000 1.0
C      1  0.5331240000000  0.4659250000000  0.4439540000000 1.0
C      1  0.5380990000000  0.5219310000000  0.4388060000000 1.0
C      1  0.4936790000000  0.5470790000000  0.4397290000000 1.0
C      1  0.4547760000000  0.5165760000000  0.4476230000000 1.0
C      1  0.4276970000000  0.4749660000000  0.5129900000000 1.0
C      1  0.4589460000000  0.5534860000000  0.5135180000000 1.0
C      1  0.5410210000000  0.5626160000000  0.5304720000000 1.0
C      1  0.5795290000000  0.4781990000000  0.5208670000000 1.0
C      1  0.5040480000000  0.4283100000000  0.5249870000000 1.0
C      1  0.4223390000000  0.5297590000000  0.4764050000000 1.0
C      1  0.4591180000000  0.4570430000000  0.4762130000000 1.0
C      1  0.5402000000000  0.4339830000000  0.4764800000000 1.0
C      1  0.5565040000000  0.5117860000000  0.4736690000000 1.0
C      1  0.5059930000000  0.5797370000000  0.4707750000000 1.0
C      1  0.4781440000000  0.5241280000000  0.5353060000000 1.0
C      1  0.5229620000000  0.5179320000000  0.5377480000000 1.0
C      1  0.5294360000000  0.4902130000000  0.5284020000000 1.0
C      1  0.5002160000000  0.4738930000000  0.5280860000000 1.0
C      1  0.4707760000000  0.4844470000000  0.5232090000000 1.0
C      1  0.4839160000000  0.4850760000000  0.4664320000000 1.0
C      1  0.5303380000000  0.4733780000000  0.4716480000000 1.0
C      1  0.5173520000000  0.5160660000000  0.4567180000000 1.0
C      1  0.4936960000000  0.5317400000000  0.4657040000000 1.0
C      1  0.4707720000000  0.5110190000000  0.4720390000000 1.0
C      1  0.4408130000000  0.4327080000000  0.5022210000000 1.0
C      1  0.4216990000000  0.5441260000000  0.5023240000000 1.0
C      1  0.5133870000000  0.5856760000000  0.4994470000000 1.0
C      1  0.5855710000000  0.5222440000000  0.5000460000000 1.0
C      1  0.5367910000000  0.4183550000000  0.5006510000000 1.0
C      1  0.4390850000000  0.5669300000000  0.4991580000000 1.0
C      1  0.4202030000000  0.4532890000000  0.4948070000000 1.0
C      1  0.5087150000000  0.4102550000000  0.5004800000000 1.0
C      1  0.5866350000000  0.4925810000000  0.4964100000000 1.0
C      1  0.5393160000000  0.5743460000000  0.5025930000000 1.0
C      1  0.4752050000000  0.4245680000000  0.5232710000000 1.0
C      1  0.4172120000000  0.5026490000000  0.5116360000000 1.0
C      1  0.4712850000000  0.5754550000000  0.5202260000000 1.0
C      1  0.5614880000000  0.5451360000000  0.5253710000000 1.0
C      1  0.5654630000000  0.4530930000000  0.5133520000000 1.0
C      1  0.4779870000000  0.5745130000000  0.4702280000000 1.0
C      1  0.4168440000000  0.5014800000000  0.4826340000000 1.0
C      1  0.4634960000000  0.4306620000000  0.4836020000000 1.0
C      1  0.5627830000000  0.4529750000000  0.4847180000000 1.0
C      1  0.5684900000000  0.5370670000000  0.4803730000000 1.0
C      1  0.5456490000000  0.5101120000000  0.5715300000000 1.0
C      1  0.5260820000000  0.4580630000000  0.5657940000000 1.0
C      1  0.4743210000000  0.4566050000000  0.5709140000000 1.0
C      1  0.4502580000000  0.5072050000000  0.5655150000000 1.0
C      1  0.4957780000000  0.5499220000000  0.5637120000000 1.0
C      1  0.5459630000000  0.4900700000000  0.4294980000000 1.0
C      1  0.5208030000000  0.5436620000000  0.4279590000000 1.0
C      1  0.4702540000000  0.5339140000000  0.4283930000000 1.0
C      1  0.4570400000000  0.4805910000000  0.4339080000000 1.0
C      1  0.5066660000000  0.4546080000000  0.4339570000000 1.0
C      1  0.4997640000000  0.5334450000000  0.4970850000000 1.0
C      1  0.5063090000000  0.4548170000000  0.5063570000000 1.0
C      1  0.4554110000000  0.4752890000000  0.5021330000000 1.0
C      1  0.4726310000000  0.5275690000000  0.5070790000000 1.0
C      1  0.5388850000000  0.4945130000000  0.4925310000000 1.0
C      1  0.5109010000000  0.4913430000000  0.4640000000000 1.0
C      1  0.4979910000000  0.5123350000000  0.5493340000000 1.0
C      1  0.5187470000000  0.5143140000000  0.4968580000000 1.0
END
