TITL C-2441166-8118-1499 0.122597544469711 125000 -25390.3732028017 0 0 190 (C1) n - 1
REM
REM in /home/bkarasulu/work/CARBON/AIRSS/Generating-Clusters/ReaxFF-fromJPCA2015/Units_Real/with-SteepDescent/Higher-Symm
REM
REM
REM
REM
REM
REM ./C.cell (1df0a924f5614ab8850e4351716899ee)
REM
REM compiler GCC version 9.2.1 20190827 (Red Hat 9.2.1-1)
REM options -cpp -mtune=generic -march=x86-64 -g -O0 -fpre-include=/usr/include/finclude/math-vector-fortran.h
REM seed -549228961 -1909835316 255401793 -1255458605 -693425584 780287889 -122049234 -1105569113 1577026899 925935985 -653335581 680847875 -1367721277 -2088411228 1839842157 1474348265 1447569614 798860262 400439044 243921876 252606439 -1487131532 600533651 1353176474 745265592 1887535138 -1948558483 1115304855 -1953979415 -1556244390 -348597560 172980077 157012669
REM
CELL 1.54180   50.00000   50.00000   50.00000   90.00000   90.00000   90.00000
LATT -1
SFAC C  
C      1  0.4409050000000  0.5159000000000  0.5333210000000 1.0
C      1  0.4382670000000  0.4869690000000  0.5340410000000 1.0
C      1  0.5162410000000  0.4317060000000  0.5983270000000 1.0
C      1  0.5147130000000  0.5682860000000  0.6008710000000 1.0
C      1  0.5598730000000  0.4846460000000  0.4089190000000 1.0
C      1  0.5596920000000  0.5134610000000  0.4141250000000 1.0
C      1  0.5022850000000  0.4494720000000  0.5423860000000 1.0
C      1  0.4995140000000  0.5502530000000  0.5435950000000 1.0
C      1  0.4761980000000  0.4787410000000  0.5535070000000 1.0
C      1  0.4751450000000  0.5202900000000  0.5548980000000 1.0
C      1  0.5542820000000  0.5593280000000  0.4750940000000 1.0
C      1  0.5508390000000  0.4374480000000  0.4744770000000 1.0
C      1  0.4663800000000  0.4443870000000  0.5111120000000 1.0
C      1  0.4635470000000  0.5575210000000  0.5144370000000 1.0
C      1  0.5136200000000  0.4225830000000  0.4116790000000 1.0
C      1  0.5130250000000  0.5730980000000  0.4084000000000 1.0
C      1  0.5215240000000  0.4132990000000  0.4409610000000 1.0
C      1  0.5194370000000  0.5831230000000  0.4386800000000 1.0
C      1  0.3976300000000  0.5548010000000  0.5166240000000 1.0
C      1  0.3981920000000  0.4471450000000  0.5141660000000 1.0
C      1  0.4897260000000  0.4898090000000  0.5068890000000 1.0
C      1  0.5016350000000  0.5157020000000  0.5094990000000 1.0
C      1  0.5065060000000  0.4946200000000  0.3984390000000 1.0
C      1  0.5044120000000  0.5236160000000  0.3972480000000 1.0
C      1  0.4541990000000  0.5484380000000  0.4588810000000 1.0
C      1  0.4588360000000  0.4603480000000  0.4517280000000 1.0
C      1  0.5468900000000  0.5322890000000  0.5947820000000 1.0
C      1  0.5474540000000  0.4675420000000  0.5931920000000 1.0
C      1  0.4749080000000  0.4786110000000  0.5988230000000 1.0
C      1  0.4745370000000  0.5203540000000  0.5997620000000 1.0
C      1  0.6051760000000  0.5138710000000  0.4681450000000 1.0
C      1  0.6047840000000  0.4847690000000  0.4678950000000 1.0
C      1  0.3852550000000  0.5304770000000  0.5082800000000 1.0
C      1  0.3847920000000  0.4715790000000  0.5072750000000 1.0
C      1  0.4655290000000  0.5171240000000  0.4910740000000 1.0
C      1  0.4652860000000  0.4880390000000  0.4944750000000 1.0
C      1  0.4924780000000  0.4219640000000  0.5538830000000 1.0
C      1  0.4907540000000  0.5775130000000  0.5548520000000 1.0
C      1  0.4313600000000  0.5941460000000  0.5092220000000 1.0
C      1  0.4334820000000  0.4036600000000  0.5097160000000 1.0
C      1  0.5964590000000  0.5670350000000  0.5235050000000 1.0
C      1  0.5911310000000  0.4318800000000  0.5234940000000 1.0
C      1  0.5320610000000  0.3982080000000  0.5246600000000 1.0
C      1  0.5285450000000  0.6031370000000  0.5252770000000 1.0
C      1  0.4741260000000  0.5852870000000  0.5137890000000 1.0
C      1  0.4770500000000  0.4102160000000  0.5109570000000 1.0
C      1  0.5506830000000  0.5789080000000  0.4370030000000 1.0
C      1  0.5516820000000  0.4146480000000  0.4398550000000 1.0
C      1  0.5235120000000  0.4402710000000  0.4628760000000 1.0
C      1  0.5155850000000  0.5577540000000  0.4531880000000 1.0
C      1  0.5242740000000  0.5113360000000  0.5271780000000 1.0
C      1  0.5309180000000  0.4849920000000  0.5225980000000 1.0
C      1  0.5196540000000  0.5898880000000  0.5499420000000 1.0
C      1  0.5212550000000  0.4108340000000  0.5492900000000 1.0
C      1  0.4973790000000  0.5947460000000  0.4889370000000 1.0
C      1  0.4973810000000  0.4034270000000  0.4899990000000 1.0
C      1  0.5989800000000  0.5523070000000  0.4968360000000 1.0
C      1  0.5950360000000  0.4472140000000  0.4970040000000 1.0
C      1  0.4559440000000  0.6055490000000  0.5193120000000 1.0
C      1  0.4580550000000  0.3929540000000  0.5193360000000 1.0
C      1  0.5428840000000  0.5073240000000  0.4599500000000 1.0
C      1  0.5487850000000  0.4838510000000  0.4760450000000 1.0
C      1  0.5497510000000  0.4768600000000  0.5443360000000 1.0
C      1  0.5458200000000  0.5249250000000  0.5464530000000 1.0
C      1  0.4437940000000  0.5802120000000  0.4342730000000 1.0
C      1  0.4424600000000  0.4209610000000  0.4445220000000 1.0
C      1  0.5860890000000  0.4500720000000  0.5454680000000 1.0
C      1  0.5879940000000  0.5508410000000  0.5464740000000 1.0
C      1  0.4417700000000  0.5253030000000  0.5054060000000 1.0
C      1  0.4414840000000  0.4776000000000  0.5069760000000 1.0
C      1  0.4228170000000  0.5143030000000  0.4865340000000 1.0
C      1  0.4227550000000  0.4860510000000  0.4871970000000 1.0
C      1  0.4091050000000  0.4477250000000  0.5435300000000 1.0
C      1  0.4104650000000  0.5525750000000  0.5449990000000 1.0
C      1  0.4158260000000  0.5311290000000  0.4341840000000 1.0
C      1  0.4159250000000  0.4703530000000  0.4363230000000 1.0
C      1  0.4748560000000  0.5385280000000  0.5331580000000 1.0
C      1  0.4768620000000  0.4587510000000  0.5342760000000 1.0
C      1  0.5891280000000  0.5326310000000  0.4528930000000 1.0
C      1  0.5860760000000  0.4681000000000  0.4527550000000 1.0
C      1  0.4769690000000  0.5322710000000  0.3989160000000 1.0
C      1  0.4834950000000  0.4759760000000  0.3981040000000 1.0
C      1  0.4331720000000  0.4492510000000  0.4478330000000 1.0
C      1  0.4300160000000  0.5562340000000  0.4424330000000 1.0
C      1  0.5104300000000  0.5247010000000  0.4821750000000 1.0
C      1  0.5019770000000  0.4730980000000  0.4876880000000 1.0
C      1  0.4983900000000  0.5146550000000  0.4564090000000 1.0
C      1  0.4986650000000  0.4837120000000  0.4563760000000 1.0
C      1  0.5216740000000  0.5446130000000  0.4108730000000 1.0
C      1  0.5271570000000  0.4485280000000  0.4176930000000 1.0
C      1  0.4315800000000  0.4855740000000  0.4172940000000 1.0
C      1  0.4309280000000  0.5143390000000  0.4158770000000 1.0
C      1  0.6105440000000  0.4711570000000  0.4938020000000 1.0
C      1  0.6116160000000  0.5270850000000  0.4942300000000 1.0
C      1  0.4789130000000  0.4441950000000  0.4394860000000 1.0
C      1  0.4759750000000  0.5564550000000  0.4395990000000 1.0
C      1  0.3990850000000  0.5310070000000  0.4801390000000 1.0
C      1  0.3973290000000  0.4724800000000  0.4800930000000 1.0
C      1  0.5057650000000  0.5690320000000  0.4967490000000 1.0
C      1  0.5068440000000  0.4329250000000  0.4903530000000 1.0
C      1  0.5308230000000  0.5137470000000  0.6096150000000 1.0
C      1  0.5310940000000  0.4852150000000  0.6090250000000 1.0
C      1  0.4673160000000  0.5155150000000  0.4613690000000 1.0
C      1  0.4688440000000  0.4846020000000  0.4609160000000 1.0
C      1  0.3933410000000  0.5150170000000  0.5318100000000 1.0
C      1  0.3919310000000  0.4866690000000  0.5317430000000 1.0
C      1  0.4685120000000  0.5855590000000  0.4487680000000 1.0
C      1  0.4716440000000  0.4161620000000  0.4483040000000 1.0
C      1  0.5291410000000  0.4843400000000  0.4145530000000 1.0
C      1  0.5359430000000  0.5086080000000  0.4320360000000 1.0
C      1  0.5522050000000  0.5536800000000  0.4230340000000 1.0
C      1  0.5544220000000  0.4406680000000  0.4259700000000 1.0
C      1  0.4935750000000  0.4312320000000  0.6035880000000 1.0
C      1  0.4921950000000  0.5686090000000  0.6064300000000 1.0
C      1  0.5528960000000  0.4140090000000  0.5102430000000 1.0
C      1  0.5515380000000  0.5877300000000  0.5142640000000 1.0
C      1  0.4869840000000  0.5765800000000  0.4008710000000 1.0
C      1  0.4886990000000  0.4252080000000  0.4002100000000 1.0
C      1  0.5083250000000  0.4573420000000  0.4431520000000 1.0
C      1  0.5025100000000  0.5386940000000  0.4378810000000 1.0
C      1  0.3983470000000  0.4866350000000  0.4535370000000 1.0
C      1  0.3993670000000  0.5159110000000  0.4526720000000 1.0
C      1  0.4392250000000  0.4325940000000  0.5159860000000 1.0
C      1  0.4391100000000  0.5691600000000  0.5221040000000 1.0
C      1  0.5974740000000  0.4759990000000  0.5398020000000 1.0
C      1  0.5973680000000  0.5247020000000  0.5404280000000 1.0
C      1  0.4166320000000  0.5247430000000  0.5472450000000 1.0
C      1  0.4145600000000  0.4760570000000  0.5481950000000 1.0
C      1  0.5551760000000  0.5527300000000  0.5453550000000 1.0
C      1  0.5558260000000  0.4498210000000  0.5425870000000 1.0
C      1  0.5066180000000  0.3967020000000  0.4615300000000 1.0
C      1  0.5057650000000  0.6006880000000  0.4609580000000 1.0
C      1  0.4275630000000  0.5808010000000  0.4834020000000 1.0
C      1  0.4276990000000  0.4132440000000  0.4825250000000 1.0
C      1  0.5448510000000  0.5591070000000  0.5194750000000 1.0
C      1  0.5447580000000  0.4435590000000  0.5154460000000 1.0
C      1  0.5401820000000  0.5740560000000  0.5625350000000 1.0
C      1  0.5442340000000  0.4250570000000  0.5599550000000 1.0
C      1  0.5391250000000  0.5617110000000  0.5888840000000 1.0
C      1  0.5406660000000  0.4381890000000  0.5866590000000 1.0
C      1  0.5516210000000  0.5142790000000  0.5730990000000 1.0
C      1  0.5523630000000  0.4864470000000  0.5724470000000 1.0
C      1  0.5775760000000  0.4498810000000  0.4740790000000 1.0
C      1  0.5826750000000  0.5535300000000  0.4726440000000 1.0
C      1  0.5688520000000  0.4906070000000  0.4959370000000 1.0
C      1  0.5622090000000  0.5165800000000  0.4998380000000 1.0
C      1  0.5725310000000  0.4874640000000  0.5280170000000 1.0
C      1  0.5695660000000  0.5161910000000  0.5298040000000 1.0
C      1  0.4565130000000  0.4835380000000  0.5762780000000 1.0
C      1  0.4559180000000  0.5155550000000  0.5772910000000 1.0
C      1  0.5193020000000  0.3872680000000  0.5000570000000 1.0
C      1  0.5185570000000  0.6115930000000  0.4987870000000 1.0
C      1  0.4551110000000  0.5750460000000  0.4731080000000 1.0
C      1  0.4524390000000  0.4068220000000  0.4678040000000 1.0
C      1  0.5032400000000  0.4854220000000  0.5617230000000 1.0
C      1  0.5022140000000  0.5146020000000  0.5629000000000 1.0
C      1  0.4436500000000  0.4519520000000  0.5677230000000 1.0
C      1  0.4433660000000  0.5479480000000  0.5690280000000 1.0
C      1  0.5752100000000  0.5848050000000  0.5287180000000 1.0
C      1  0.5705650000000  0.4142310000000  0.5327380000000 1.0
C      1  0.5743060000000  0.5353770000000  0.4272380000000 1.0
C      1  0.5714600000000  0.4647380000000  0.4272970000000 1.0
C      1  0.5312760000000  0.6079140000000  0.4726010000000 1.0
C      1  0.5317750000000  0.3899680000000  0.4742350000000 1.0
C      1  0.4742370000000  0.5492260000000  0.5984140000000 1.0
C      1  0.4749270000000  0.4497600000000  0.5967490000000 1.0
C      1  0.4727430000000  0.5958190000000  0.5406410000000 1.0
C      1  0.4753750000000  0.4033730000000  0.5389910000000 1.0
C      1  0.4340410000000  0.5680410000000  0.5509550000000 1.0
C      1  0.4340610000000  0.4340790000000  0.5480070000000 1.0
C      1  0.5065750000000  0.5521300000000  0.4778090000000 1.0
C      1  0.4839010000000  0.4498340000000  0.4891250000000 1.0
C      1  0.5432350000000  0.5296430000000  0.4806030000000 1.0
C      1  0.5304870000000  0.4728530000000  0.4962060000000 1.0
C      1  0.4069900000000  0.5613010000000  0.4899830000000 1.0
C      1  0.4185180000000  0.4392120000000  0.4944630000000 1.0
C      1  0.4588400000000  0.5146780000000  0.4104080000000 1.0
C      1  0.4611280000000  0.4868370000000  0.4128340000000 1.0
C      1  0.5030010000000  0.5142040000000  0.5937600000000 1.0
C      1  0.5035550000000  0.4844950000000  0.5931170000000 1.0
C      1  0.5163140000000  0.5567970000000  0.5203800000000 1.0
C      1  0.5166760000000  0.4416170000000  0.5182580000000 1.0
C      1  0.4661520000000  0.4361380000000  0.5749270000000 1.0
C      1  0.4659150000000  0.5632680000000  0.5768140000000 1.0
C      1  0.5544370000000  0.4086670000000  0.4688980000000 1.0
C      1  0.5511010000000  0.5863600000000  0.4654180000000 1.0
C      1  0.4757510000000  0.4491070000000  0.4070460000000 1.0
C      1  0.4671090000000  0.5583810000000  0.4093090000000 1.0
C      1  0.6157880000000  0.5140570000000  0.5203960000000 1.0
C      1  0.6161710000000  0.4848080000000  0.5194530000000 1.0
END
