TITL C-2441168-9922-488 0.161996862493156 125000 -21053.1748695983 0 0 168 (C1) n - 1
REM
REM in /home/bkarasulu/work/CARBON/AIRSS/Generating-Clusters/ReaxFF-fromJPCA2015/Units_Real/with-SteepDescent/Higher-Symm
REM
REM
REM
REM
REM
REM ./C.cell (1df0a924f5614ab8850e4351716899ee)
REM
REM compiler GCC version 9.2.1 20190827 (Red Hat 9.2.1-1)
REM options -cpp -mtune=generic -march=x86-64 -g -O0 -fpre-include=/usr/include/finclude/math-vector-fortran.h
REM seed -1991537242 1188010756 -372137519 590879009 -1655031008 -245696841 222261214 -1644806556 331971973 1520931 -381059773 -738046029 -36248221 -1833582643 -68976030 1832739313 -1072244878 -1554719415 513699156 -771162696 -576851096 891568993 -474053382 -1608997610 329393908 1224749354 -114202259 -186288877 -120903808 149082150 2105401798 82691682 1400067852
REM
CELL 1.54180   50.00000   50.00000   50.00000   90.00000   90.00000   90.00000
LATT -1
SFAC C  
C      1  0.5668950000000  0.4837130000000  0.4261000000000 1.0
C      1  0.5546990000000  0.5670760000000  0.4547430000000 1.0
C      1  0.5510490000000  0.5670610000000  0.5475790000000 1.0
C      1  0.5533830000000  0.4761410000000  0.5815400000000 1.0
C      1  0.5613400000000  0.4192740000000  0.4976700000000 1.0
C      1  0.4358410000000  0.4802970000000  0.4256910000000 1.0
C      1  0.4362780000000  0.5623630000000  0.4658130000000 1.0
C      1  0.4465690000000  0.5653330000000  0.5481970000000 1.0
C      1  0.4346030000000  0.4733280000000  0.5706100000000 1.0
C      1  0.4233660000000  0.4201430000000  0.4967000000000 1.0
C      1  0.5483780000000  0.4742860000000  0.5045500000000 1.0
C      1  0.5549920000000  0.4926920000000  0.4633680000000 1.0
C      1  0.5552400000000  0.5297630000000  0.4915040000000 1.0
C      1  0.5540690000000  0.5211600000000  0.5244470000000 1.0
C      1  0.5536210000000  0.4878000000000  0.5302780000000 1.0
C      1  0.4441220000000  0.4685940000000  0.4882230000000 1.0
C      1  0.4467280000000  0.4990860000000  0.4612430000000 1.0
C      1  0.4429660000000  0.5285790000000  0.4982190000000 1.0
C      1  0.4467520000000  0.5168140000000  0.5259200000000 1.0
C      1  0.4520070000000  0.4841210000000  0.5282570000000 1.0
C      1  0.4236690000000  0.5806140000000  0.4843170000000 1.0
C      1  0.4304070000000  0.5427350000000  0.5610710000000 1.0
C      1  0.4246650000000  0.4508170000000  0.5567450000000 1.0
C      1  0.4201440000000  0.4289460000000  0.4710920000000 1.0
C      1  0.4246830000000  0.5074240000000  0.4248060000000 1.0
C      1  0.5716930000000  0.5803310000000  0.4801230000000 1.0
C      1  0.5693100000000  0.5455790000000  0.5684640000000 1.0
C      1  0.5684800000000  0.4570100000000  0.5631820000000 1.0
C      1  0.5785460000000  0.4272970000000  0.4749060000000 1.0
C      1  0.5751400000000  0.5103620000000  0.4194360000000 1.0
C      1  0.5156640000000  0.5537750000000  0.4746140000000 1.0
C      1  0.5103560000000  0.5446970000000  0.5453380000000 1.0
C      1  0.5152930000000  0.4555710000000  0.5523660000000 1.0
C      1  0.5171810000000  0.4308530000000  0.4920970000000 1.0
C      1  0.5176190000000  0.4999280000000  0.4209990000000 1.0
C      1  0.4807030000000  0.5717260000000  0.4777100000000 1.0
C      1  0.4862270000000  0.5344630000000  0.5587000000000 1.0
C      1  0.4865930000000  0.4668380000000  0.5634490000000 1.0
C      1  0.4774350000000  0.4323060000000  0.4942130000000 1.0
C      1  0.4818490000000  0.4994620000000  0.4216260000000 1.0
C      1  0.5137960000000  0.6017510000000  0.5091340000000 1.0
C      1  0.5105660000000  0.5186940000000  0.6029120000000 1.0
C      1  0.5137430000000  0.4058330000000  0.5514370000000 1.0
C      1  0.5182100000000  0.4304790000000  0.4220420000000 1.0
C      1  0.5092610000000  0.5452210000000  0.4060370000000 1.0
C      1  0.4894120000000  0.6026910000000  0.5196250000000 1.0
C      1  0.4826170000000  0.5225600000000  0.6063710000000 1.0
C      1  0.4857620000000  0.4059010000000  0.5537540000000 1.0
C      1  0.4717620000000  0.4307800000000  0.4266070000000 1.0
C      1  0.4851270000000  0.5400980000000  0.4025700000000 1.0
C      1  0.4188690000000  0.4613330000000  0.4742240000000 1.0
C      1  0.4205730000000  0.5126240000000  0.4542300000000 1.0
C      1  0.4163210000000  0.5393600000000  0.4959880000000 1.0
C      1  0.4209710000000  0.5192760000000  0.5441610000000 1.0
C      1  0.4228830000000  0.4641000000000  0.5303100000000 1.0
C      1  0.5867890000000  0.4549930000000  0.4712810000000 1.0
C      1  0.5809460000000  0.5038300000000  0.4609370000000 1.0
C      1  0.5838170000000  0.5374380000000  0.4912660000000 1.0
C      1  0.5819600000000  0.5215220000000  0.5326110000000 1.0
C      1  0.5796690000000  0.4706760000000  0.5366190000000 1.0
C      1  0.5540040000000  0.4457750000000  0.4359500000000 1.0
C      1  0.5630430000000  0.5451160000000  0.4378860000000 1.0
C      1  0.5617150000000  0.5748730000000  0.5199070000000 1.0
C      1  0.5590920000000  0.5061740000000  0.5760130000000 1.0
C      1  0.5633730000000  0.4307430000000  0.5248770000000 1.0
C      1  0.4431390000000  0.4399170000000  0.4346490000000 1.0
C      1  0.4496560000000  0.5495110000000  0.4285830000000 1.0
C      1  0.4342920000000  0.5760590000000  0.5237620000000 1.0
C      1  0.4515560000000  0.5074330000000  0.5848220000000 1.0
C      1  0.4474720000000  0.4194090000000  0.5288240000000 1.0
C      1  0.3980470000000  0.5031510000000  0.4748400000000 1.0
C      1  0.3946250000000  0.5197670000000  0.4983470000000 1.0
C      1  0.3988510000000  0.5083860000000  0.5249220000000 1.0
C      1  0.4008920000000  0.4809980000000  0.5182670000000 1.0
C      1  0.3979710000000  0.4788240000000  0.4888500000000 1.0
C      1  0.6035570000000  0.4972680000000  0.4770900000000 1.0
C      1  0.6064810000000  0.5202450000000  0.4937250000000 1.0
C      1  0.6039280000000  0.5085930000000  0.5194530000000 1.0
C      1  0.6019940000000  0.4799700000000  0.5184670000000 1.0
C      1  0.6011270000000  0.4720800000000  0.4903610000000 1.0
C      1  0.5122160000000  0.4774880000000  0.5197550000000 1.0
C      1  0.5187310000000  0.4652570000000  0.4829070000000 1.0
C      1  0.5167390000000  0.5094350000000  0.4672530000000 1.0
C      1  0.5130480000000  0.5393520000000  0.4978540000000 1.0
C      1  0.5168300000000  0.5024970000000  0.5260230000000 1.0
C      1  0.4773200000000  0.4699360000000  0.5137180000000 1.0
C      1  0.4911250000000  0.4697870000000  0.4879600000000 1.0
C      1  0.4906830000000  0.5009240000000  0.4636900000000 1.0
C      1  0.4879810000000  0.5304590000000  0.4933610000000 1.0
C      1  0.4905950000000  0.5090820000000  0.5249660000000 1.0
C      1  0.5801750000000  0.5193580000000  0.5609110000000 1.0
C      1  0.5705060000000  0.4559410000000  0.5120770000000 1.0
C      1  0.5758970000000  0.4622100000000  0.4436570000000 1.0
C      1  0.5831350000000  0.5255030000000  0.4428880000000 1.0
C      1  0.5833830000000  0.5644350000000  0.5018210000000 1.0
C      1  0.4276480000000  0.5017330000000  0.5697210000000 1.0
C      1  0.4244480000000  0.4339880000000  0.5191500000000 1.0
C      1  0.4242410000000  0.4599690000000  0.4425010000000 1.0
C      1  0.4266560000000  0.5444330000000  0.4452470000000 1.0
C      1  0.4147800000000  0.5654720000000  0.5063880000000 1.0
C      1  0.4480420000000  0.4262580000000  0.4598910000000 1.0
C      1  0.4448890000000  0.5255450000000  0.4127880000000 1.0
C      1  0.4440680000000  0.5931500000000  0.5018750000000 1.0
C      1  0.4468480000000  0.5350190000000  0.5830070000000 1.0
C      1  0.4457970000000  0.4305260000000  0.5547850000000 1.0
C      1  0.5539400000000  0.4254390000000  0.4574780000000 1.0
C      1  0.5548690000000  0.5313300000000  0.4136350000000 1.0
C      1  0.5526730000000  0.5930840000000  0.4976500000000 1.0
C      1  0.5517070000000  0.5327020000000  0.5881690000000 1.0
C      1  0.5558490000000  0.4338830000000  0.5537800000000 1.0
C      1  0.4707470000000  0.4260090000000  0.5685090000000 1.0
C      1  0.4879590000000  0.4178850000000  0.4537940000000 1.0
C      1  0.4714200000000  0.5170440000000  0.4035360000000 1.0
C      1  0.4727650000000  0.5940880000000  0.4966000000000 1.0
C      1  0.4732620000000  0.5437950000000  0.5889450000000 1.0
C      1  0.5263270000000  0.4294710000000  0.5649580000000 1.0
C      1  0.5150600000000  0.4192570000000  0.4489150000000 1.0
C      1  0.5277570000000  0.5239970000000  0.4067760000000 1.0
C      1  0.5255500000000  0.5998320000000  0.4853140000000 1.0
C      1  0.5248080000000  0.5419750000000  0.5923180000000 1.0
C      1  0.4797700000000  0.5282470000000  0.4577160000000 1.0
C      1  0.4782710000000  0.5524070000000  0.5142780000000 1.0
C      1  0.4905220000000  0.5052610000000  0.5558920000000 1.0
C      1  0.4842390000000  0.4431360000000  0.5193280000000 1.0
C      1  0.4870300000000  0.4719270000000  0.4595010000000 1.0
C      1  0.5088450000000  0.5339420000000  0.4541040000000 1.0
C      1  0.5066620000000  0.5552540000000  0.5199430000000 1.0
C      1  0.5200620000000  0.5027630000000  0.5559940000000 1.0
C      1  0.5142820000000  0.4478940000000  0.5229550000000 1.0
C      1  0.5172520000000  0.4670830000000  0.4542680000000 1.0
C      1  0.5386720000000  0.4839980000000  0.4410930000000 1.0
C      1  0.5432000000000  0.5520350000000  0.4763900000000 1.0
C      1  0.5387190000000  0.5398890000000  0.5430030000000 1.0
C      1  0.5354580000000  0.4778380000000  0.5541930000000 1.0
C      1  0.5403240000000  0.4321140000000  0.4825700000000 1.0
C      1  0.4621570000000  0.4868350000000  0.4402160000000 1.0
C      1  0.4602550000000  0.5483870000000  0.4740530000000 1.0
C      1  0.4641820000000  0.5411050000000  0.5374710000000 1.0
C      1  0.4596430000000  0.4734890000000  0.5538840000000 1.0
C      1  0.4582670000000  0.4454070000000  0.4801610000000 1.0
C      1  0.5179300000000  0.3967250000000  0.5131960000000 1.0
C      1  0.5336540000000  0.4535490000000  0.4139280000000 1.0
C      1  0.5275720000000  0.5783550000000  0.4413500000000 1.0
C      1  0.5242230000000  0.5811180000000  0.5580310000000 1.0
C      1  0.5251150000000  0.4687180000000  0.5956200000000 1.0
C      1  0.4685020000000  0.4005660000000  0.5163580000000 1.0
C      1  0.4764810000000  0.4544540000000  0.4057230000000 1.0
C      1  0.4764220000000  0.5671920000000  0.4304140000000 1.0
C      1  0.4732180000000  0.5804840000000  0.5599420000000 1.0
C      1  0.4758200000000  0.4957990000000  0.5986620000000 1.0
C      1  0.5138630000000  0.4432950000000  0.5907400000000 1.0
C      1  0.5128910000000  0.4032580000000  0.4857760000000 1.0
C      1  0.5173290000000  0.4759930000000  0.4037960000000 1.0
C      1  0.5121620000000  0.5942280000000  0.4577610000000 1.0
C      1  0.5142330000000  0.5677700000000  0.5813540000000 1.0
C      1  0.4854530000000  0.4464490000000  0.5842160000000 1.0
C      1  0.4828310000000  0.4059950000000  0.4816690000000 1.0
C      1  0.4874900000000  0.4804350000000  0.4004700000000 1.0
C      1  0.4834990000000  0.5859600000000  0.4517170000000 1.0
C      1  0.4848000000000  0.5703360000000  0.5832770000000 1.0
C      1  0.5068590000000  0.5649060000000  0.4254810000000 1.0
C      1  0.4995440000000  0.4047420000000  0.5274890000000 1.0
C      1  0.5051860000000  0.4900730000000  0.5975410000000 1.0
C      1  0.4940170000000  0.4453540000000  0.4225870000000 1.0
C      1  0.4974690000000  0.5891550000000  0.5466050000000 1.0
C      1  0.5404220000000  0.5024060000000  0.4852910000000 1.0
C      1  0.4547880000000  0.4972630000000  0.4891110000000 1.0
C      1  0.4794750000000  0.5080140000000  0.5012880000000 1.0
END
