TITL C-2441155-8282-129 0.0792200746724806 125000 -13385.9218194898 0 0 108 (C1) n - 1
REM
REM in /home/bkarasulu/work/CARBON/AIRSS/Generating-Clusters/ReaxFF-fromJPCA2015/Units_Real/with-SteepDescent/Higher-Symm
REM
REM
REM
REM
REM
REM ./C.cell (1df0a924f5614ab8850e4351716899ee)
REM
REM compiler GCC version 9.2.1 20190827 (Red Hat 9.2.1-1)
REM options -cpp -mtune=generic -march=x86-64 -g -O0 -fpre-include=/usr/include/finclude/math-vector-fortran.h
REM seed 500960773 -711024088 843625025 655867051 1269610230 -233039619 1756179692 -1808515341 -1056922794 -1570256268 932756669 1360040096 -684091868 1891877363 1379685142 2040136316 1971200556 194050674 -1786843657 -104020794 -1671913186 -267294186 -1150868115 -948144022 -905468525 -731189532 -1181039240 1779957104 1499814115 -963464245 1424149140 -1700559800 751377818
REM
CELL 1.54180   50.00000   50.00000   50.00000   90.00000   90.00000   90.00000
LATT -1
SFAC C  
C      1  0.4211490000000  0.5315620000000  0.4616450000000 1.0
C      1  0.4218200000000  0.5181480000000  0.5460860000000 1.0
C      1  0.4233120000000  0.4528780000000  0.4930000000000 1.0
C      1  0.4631860000000  0.4958100000000  0.4121400000000 1.0
C      1  0.4612460000000  0.5756550000000  0.5387100000000 1.0
C      1  0.4621010000000  0.4268400000000  0.5475500000000 1.0
C      1  0.4635660000000  0.5262290000000  0.4453890000000 1.0
C      1  0.4628050000000  0.5307540000000  0.5483580000000 1.0
C      1  0.4622260000000  0.4427090000000  0.5048250000000 1.0
C      1  0.5224760000000  0.4632690000000  0.4496380000000 1.0
C      1  0.5239070000000  0.5647950000000  0.4937460000000 1.0
C      1  0.5239420000000  0.4703840000000  0.5608230000000 1.0
C      1  0.5171980000000  0.5162060000000  0.5808560000000 1.0
C      1  0.5184820000000  0.4232050000000  0.4718240000000 1.0
C      1  0.5187300000000  0.5626510000000  0.4473760000000 1.0
C      1  0.4879050000000  0.5444510000000  0.5108170000000 1.0
C      1  0.4878690000000  0.4672950000000  0.5338400000000 1.0
C      1  0.4879310000000  0.4861190000000  0.4546230000000 1.0
C      1  0.5344480000000  0.5630970000000  0.5233620000000 1.0
C      1  0.5331850000000  0.4465340000000  0.5439770000000 1.0
C      1  0.5343080000000  0.4896580000000  0.4347840000000 1.0
C      1  0.4188530000000  0.5310330000000  0.4909740000000 1.0
C      1  0.4175550000000  0.4933590000000  0.5329800000000 1.0
C      1  0.4190820000000  0.4770100000000  0.4780720000000 1.0
C      1  0.5701800000000  0.5210620000000  0.5472990000000 1.0
C      1  0.5695000000000  0.4455360000000  0.4890130000000 1.0
C      1  0.5703380000000  0.5397210000000  0.4572330000000 1.0
C      1  0.4355580000000  0.5487120000000  0.5059640000000 1.0
C      1  0.4336130000000  0.4701660000000  0.5419720000000 1.0
C      1  0.4336870000000  0.4808380000000  0.4526730000000 1.0
C      1  0.5530740000000  0.5783480000000  0.5292820000000 1.0
C      1  0.5561060000000  0.4409560000000  0.5564040000000 1.0
C      1  0.5530980000000  0.4856980000000  0.4182250000000 1.0
C      1  0.5701270000000  0.4627840000000  0.4649960000000 1.0
C      1  0.5724820000000  0.5518090000000  0.4843070000000 1.0
C      1  0.5691910000000  0.4916450000000  0.5493290000000 1.0
C      1  0.5370240000000  0.4394490000000  0.5121270000000 1.0
C      1  0.5368850000000  0.5191370000000  0.4468840000000 1.0
C      1  0.5401050000000  0.5376120000000  0.5449750000000 1.0
C      1  0.4964760000000  0.4197480000000  0.5232160000000 1.0
C      1  0.4985120000000  0.5187020000000  0.4191440000000 1.0
C      1  0.4970140000000  0.5596620000000  0.5561350000000 1.0
C      1  0.4525040000000  0.5662960000000  0.4886380000000 1.0
C      1  0.4524740000000  0.4752650000000  0.5649750000000 1.0
C      1  0.4519930000000  0.4575230000000  0.4459050000000 1.0
C      1  0.4703780000000  0.5430480000000  0.4881450000000 1.0
C      1  0.4692000000000  0.4876850000000  0.5439850000000 1.0
C      1  0.4688910000000  0.4689800000000  0.4673120000000 1.0
C      1  0.4412180000000  0.5093370000000  0.4548820000000 1.0
C      1  0.4453640000000  0.5260000000000  0.5245970000000 1.0
C      1  0.4450790000000  0.4664580000000  0.5143630000000 1.0
C      1  0.5540120000000  0.5339170000000  0.4988900000000 1.0
C      1  0.5568520000000  0.4805240000000  0.5247330000000 1.0
C      1  0.5585610000000  0.4897500000000  0.4705900000000 1.0
C      1  0.5747150000000  0.5131810000000  0.4675930000000 1.0
C      1  0.5716890000000  0.5215740000000  0.5186650000000 1.0
C      1  0.5754240000000  0.4669590000000  0.5073150000000 1.0
C      1  0.4903530000000  0.4903760000000  0.4260180000000 1.0
C      1  0.4891390000000  0.5684630000000  0.5283500000000 1.0
C      1  0.4899090000000  0.4394820000000  0.5450380000000 1.0
C      1  0.4769270000000  0.5812090000000  0.4795610000000 1.0
C      1  0.4764920000000  0.4787310000000  0.5822000000000 1.0
C      1  0.4769020000000  0.4431300000000  0.4378830000000 1.0
C      1  0.5345680000000  0.5263250000000  0.4757010000000 1.0
C      1  0.5327480000000  0.5098060000000  0.5402290000000 1.0
C      1  0.5319610000000  0.4605760000000  0.4929500000000 1.0
C      1  0.4947890000000  0.5045550000000  0.4760480000000 1.0
C      1  0.5042220000000  0.5222310000000  0.5155190000000 1.0
C      1  0.4988390000000  0.4752630000000  0.5090270000000 1.0
C      1  0.5434940000000  0.5058430000000  0.5786940000000 1.0
C      1  0.5467060000000  0.4286260000000  0.4705880000000 1.0
C      1  0.5468950000000  0.5625800000000  0.4528870000000 1.0
C      1  0.5047660000000  0.4863750000000  0.5777260000000 1.0
C      1  0.5044580000000  0.4399580000000  0.4488530000000 1.0
C      1  0.5048530000000  0.5752140000000  0.4727700000000 1.0
C      1  0.4672370000000  0.4169030000000  0.5190370000000 1.0
C      1  0.4698920000000  0.5251970000000  0.4163950000000 1.0
C      1  0.4677860000000  0.5564210000000  0.5616370000000 1.0
C      1  0.5497330000000  0.5712820000000  0.4805010000000 1.0
C      1  0.5505100000000  0.4792260000000  0.5701100000000 1.0
C      1  0.5481170000000  0.4489640000000  0.4505350000000 1.0
C      1  0.4800610000000  0.4469970000000  0.4826600000000 1.0
C      1  0.4825080000000  0.5399670000000  0.4628050000000 1.0
C      1  0.4816530000000  0.5102180000000  0.5549260000000 1.0
C      1  0.5052960000000  0.4615480000000  0.4846800000000 1.0
C      1  0.5070470000000  0.5340970000000  0.4764950000000 1.0
C      1  0.5051120000000  0.5088200000000  0.5390970000000 1.0
C      1  0.5165260000000  0.4215750000000  0.5016450000000 1.0
C      1  0.5176100000000  0.5362080000000  0.4333470000000 1.0
C      1  0.5173200000000  0.5404050000000  0.5641510000000 1.0
C      1  0.3608470000000  0.5000040000000  0.5000660000000 1.0
C      1  0.5412270000000  0.4878450000000  0.4967500000000 1.0
C      1  0.3356650000000  0.4999060000000  0.4999520000000 1.0
C      1  0.2614780000000  0.5000320000000  0.4999250000000 1.0
C      1  0.4530660000000  0.4981220000000  0.5073890000000 1.0
C      1  0.6573830000000  0.5002140000000  0.4999100000000 1.0
C      1  0.4714370000000  0.5014620000000  0.4934770000000 1.0
C      1  0.6329110000000  0.5004400000000  0.5001220000000 1.0
C      1  0.7063280000000  0.4999960000000  0.4999270000000 1.0
C      1  0.3112360000000  0.4999360000000  0.4999160000000 1.0
C      1  0.7304300000000  0.4999960000000  0.4999350000000 1.0
C      1  0.4111830000000  0.5004420000000  0.5007120000000 1.0
C      1  0.3843250000000  0.5002090000000  0.5003670000000 1.0
C      1  0.2857810000000  0.4999910000000  0.4999220000000 1.0
C      1  0.6093090000000  0.4999330000000  0.5004550000000 1.0
C      1  0.6809100000000  0.5000560000000  0.4998930000000 1.0
C      1  0.5846720000000  0.4993990000000  0.5008020000000 1.0
C      1  0.5112860000000  0.4992440000000  0.5001490000000 1.0
END
