TITL C-2441166-8118-1053 -3.6608077598536e-08 125000 -908.819375085629 0 0 7 (D(inf)h) n - 1
REM
REM in /home/bkarasulu/work/CARBON/AIRSS/Generating-Clusters/ReaxFF-fromJPCA2015/Units_Real/with-SteepDescent/Higher-Symm
REM
REM
REM
REM
REM
REM ./C.cell (1df0a924f5614ab8850e4351716899ee)
REM
REM compiler GCC version 9.2.1 20190827 (Red Hat 9.2.1-1)
REM options -cpp -mtune=generic -march=x86-64 -g -O0 -fpre-include=/usr/include/finclude/math-vector-fortran.h
REM seed 765032892 287142176 207867100 1913427690 -1798262633 -1596837059 -1280182481 1659041631 -1100336734 1684722586 879673031 -323089509 -1174321035 1966313318 1700926357 995207061 -1052501044 -46205209 -1581253325 694203058 177819262 886145346 338762427 -75288351 -1048753100 -191045394 -538637857 -646888934 -1760626858 1596834877 -359115020 -1149213574 1475415210
REM
CELL 1.54180   50.00000   50.00000   50.00000   90.00000   90.00000   90.00000
LATT -1
SFAC C  
C      1  0.5000000000000  0.4991270000000  0.5009610000000 1.0
C      1  0.4245620000000  0.4991270000000  0.5009610000000 1.0
C      1  0.4747240000000  0.4991270000000  0.5009610000000 1.0
C      1  0.4489770000000  0.4991270000000  0.5009610000000 1.0
C      1  0.5754380000000  0.4991270000000  0.5009610000000 1.0
C      1  0.5252760000000  0.4991270000000  0.5009610000000 1.0
C      1  0.5510230000000  0.4991270000000  0.5009610000000 1.0
END
