TITL C-2441167-4473-262 0.137471823213004 125000 -20416.0612398077 0 0 156 (C1) n - 1
REM
REM in /home/bkarasulu/work/CARBON/AIRSS/Generating-Clusters/ReaxFF-fromJPCA2015/Units_Real/with-SteepDescent/Higher-Symm
REM
REM
REM
REM
REM
REM ./C.cell (1df0a924f5614ab8850e4351716899ee)
REM
REM compiler GCC version 9.2.1 20190827 (Red Hat 9.2.1-1)
REM options -cpp -mtune=generic -march=x86-64 -g -O0 -fpre-include=/usr/include/finclude/math-vector-fortran.h
REM seed -1950032494 -591130246 -1279441917 485344642 1502747452 -1806200548 1968462580 128625879 -990534360 614981650 1913353347 -1357255716 -660733909 639406093 -1601391982 -1120848599 -166045408 924031641 1418525667 -646813340 -1015595428 958843975 -802027607 1726045159 562120299 922806640 -2141120724 -1104272808 -1639931124 -778663554 1226049822 1492011310 1004613020
REM
CELL 1.54180   50.00000   50.00000   50.00000   90.00000   90.00000   90.00000
LATT -1
SFAC C  
C      1  0.5914800000000  0.4982340000000  0.4441070000000 1.0
C      1  0.5926210000000  0.5005890000000  0.5560140000000 1.0
C      1  0.4071320000000  0.4984260000000  0.4460550000000 1.0
C      1  0.4075430000000  0.5010490000000  0.5541020000000 1.0
C      1  0.5648840000000  0.5609740000000  0.5348910000000 1.0
C      1  0.5641310000000  0.4416670000000  0.4647510000000 1.0
C      1  0.4360410000000  0.5614970000000  0.5344840000000 1.0
C      1  0.4368000000000  0.4380680000000  0.4655970000000 1.0
C      1  0.5457290000000  0.5742450000000  0.5520090000000 1.0
C      1  0.5462820000000  0.4258850000000  0.4477500000000 1.0
C      1  0.4547400000000  0.5744690000000  0.5523160000000 1.0
C      1  0.4549340000000  0.4257280000000  0.4469950000000 1.0
C      1  0.5795800000000  0.5222970000000  0.4348050000000 1.0
C      1  0.5791740000000  0.4763460000000  0.5644290000000 1.0
C      1  0.4197040000000  0.5226160000000  0.4361260000000 1.0
C      1  0.4201260000000  0.4770400000000  0.5645400000000 1.0
C      1  0.4781200000000  0.4602740000000  0.4407250000000 1.0
C      1  0.4779670000000  0.5413600000000  0.5607370000000 1.0
C      1  0.5220130000000  0.4612990000000  0.4386980000000 1.0
C      1  0.5222830000000  0.5393080000000  0.5599300000000 1.0
C      1  0.5617720000000  0.4904420000000  0.4781570000000 1.0
C      1  0.5655180000000  0.5075650000000  0.5211080000000 1.0
C      1  0.4348630000000  0.4917740000000  0.4790900000000 1.0
C      1  0.4358370000000  0.5082520000000  0.5209900000000 1.0
C      1  0.5137190000000  0.5633260000000  0.5099890000000 1.0
C      1  0.5161900000000  0.4421930000000  0.4829150000000 1.0
C      1  0.4858780000000  0.5648290000000  0.5088080000000 1.0
C      1  0.4841080000000  0.4368510000000  0.4902760000000 1.0
C      1  0.4747600000000  0.4848820000000  0.5426540000000 1.0
C      1  0.4751340000000  0.5157450000000  0.4572230000000 1.0
C      1  0.5258850000000  0.4855140000000  0.5448950000000 1.0
C      1  0.5261940000000  0.5119570000000  0.4578940000000 1.0
C      1  0.5970450000000  0.4740640000000  0.5165450000000 1.0
C      1  0.5959190000000  0.5282970000000  0.4836000000000 1.0
C      1  0.4037050000000  0.4719620000000  0.5161470000000 1.0
C      1  0.4030630000000  0.5276190000000  0.4845010000000 1.0
C      1  0.5168560000000  0.5384790000000  0.4670910000000 1.0
C      1  0.5199880000000  0.4586470000000  0.5341500000000 1.0
C      1  0.4830550000000  0.5408480000000  0.4673560000000 1.0
C      1  0.4818490000000  0.4595220000000  0.5321660000000 1.0
C      1  0.5201330000000  0.4644900000000  0.4654930000000 1.0
C      1  0.5271650000000  0.5307320000000  0.5348670000000 1.0
C      1  0.4725340000000  0.4706680000000  0.4651320000000 1.0
C      1  0.4740600000000  0.5326810000000  0.5354330000000 1.0
C      1  0.5160020000000  0.4924280000000  0.4018430000000 1.0
C      1  0.5153220000000  0.5082590000000  0.5994050000000 1.0
C      1  0.4859280000000  0.4910190000000  0.4011910000000 1.0
C      1  0.4849800000000  0.5092780000000  0.5993500000000 1.0
C      1  0.5126040000000  0.4110960000000  0.5317180000000 1.0
C      1  0.5150840000000  0.5881850000000  0.4678030000000 1.0
C      1  0.4831170000000  0.4108180000000  0.5319890000000 1.0
C      1  0.4844630000000  0.5887800000000  0.4670410000000 1.0
C      1  0.5588270000000  0.4696600000000  0.4201600000000 1.0
C      1  0.5580650000000  0.5297880000000  0.5790890000000 1.0
C      1  0.4417100000000  0.4703180000000  0.4209840000000 1.0
C      1  0.4414760000000  0.5297490000000  0.5789250000000 1.0
C      1  0.4502510000000  0.5235760000000  0.5001750000000 1.0
C      1  0.4464390000000  0.4755340000000  0.4997990000000 1.0
C      1  0.5548410000000  0.5243970000000  0.5006240000000 1.0
C      1  0.5506530000000  0.4749180000000  0.5002380000000 1.0
C      1  0.4852180000000  0.4943670000000  0.4739440000000 1.0
C      1  0.4861670000000  0.5076170000000  0.5288170000000 1.0
C      1  0.5130180000000  0.4908590000000  0.4728880000000 1.0
C      1  0.5129040000000  0.5106360000000  0.5191300000000 1.0
C      1  0.5465750000000  0.5437450000000  0.5189890000000 1.0
C      1  0.5585770000000  0.4484120000000  0.4920190000000 1.0
C      1  0.4542870000000  0.5444740000000  0.5194200000000 1.0
C      1  0.4570370000000  0.4545770000000  0.4827020000000 1.0
C      1  0.4846970000000  0.5400490000000  0.4950370000000 1.0
C      1  0.4888810000000  0.4604890000000  0.5065080000000 1.0
C      1  0.5117310000000  0.5353790000000  0.4971950000000 1.0
C      1  0.5155840000000  0.4623880000000  0.5072520000000 1.0
C      1  0.5705540000000  0.4264640000000  0.5075720000000 1.0
C      1  0.5753070000000  0.5693070000000  0.4939050000000 1.0
C      1  0.4241150000000  0.4313350000000  0.5056750000000 1.0
C      1  0.4246980000000  0.5681440000000  0.4945730000000 1.0
C      1  0.4762550000000  0.5808830000000  0.5333490000000 1.0
C      1  0.4773810000000  0.4196220000000  0.4657830000000 1.0
C      1  0.5237560000000  0.5802070000000  0.5326470000000 1.0
C      1  0.5247980000000  0.4185340000000  0.4660200000000 1.0
C      1  0.5678880000000  0.5613830000000  0.4669760000000 1.0
C      1  0.5673340000000  0.4388830000000  0.5342910000000 1.0
C      1  0.4319940000000  0.5608980000000  0.4673280000000 1.0
C      1  0.4314550000000  0.4382530000000  0.5330670000000 1.0
C      1  0.5395170000000  0.4389420000000  0.5413310000000 1.0
C      1  0.5371530000000  0.5609040000000  0.4617270000000 1.0
C      1  0.4621000000000  0.4383990000000  0.5383820000000 1.0
C      1  0.4624350000000  0.5619620000000  0.4609520000000 1.0
C      1  0.5504950000000  0.5154300000000  0.4740640000000 1.0
C      1  0.5497610000000  0.4851910000000  0.5283830000000 1.0
C      1  0.4501320000000  0.5148400000000  0.4725170000000 1.0
C      1  0.4494250000000  0.4841570000000  0.5261700000000 1.0
C      1  0.4183620000000  0.4727410000000  0.4394160000000 1.0
C      1  0.4182230000000  0.5270620000000  0.5608360000000 1.0
C      1  0.5826120000000  0.4719460000000  0.4375760000000 1.0
C      1  0.5811380000000  0.5266350000000  0.5610560000000 1.0
C      1  0.4858820000000  0.5232540000000  0.4241640000000 1.0
C      1  0.4858570000000  0.4754230000000  0.5732730000000 1.0
C      1  0.5107460000000  0.5324380000000  0.4196620000000 1.0
C      1  0.5140270000000  0.4754180000000  0.5717880000000 1.0
C      1  0.4687880000000  0.3993890000000  0.5061250000000 1.0
C      1  0.4695860000000  0.6000100000000  0.4928290000000 1.0
C      1  0.5263070000000  0.3957380000000  0.5076850000000 1.0
C      1  0.5297140000000  0.6001300000000  0.4927690000000 1.0
C      1  0.5558420000000  0.5191470000000  0.4178930000000 1.0
C      1  0.5554810000000  0.4797740000000  0.5820110000000 1.0
C      1  0.4437510000000  0.5190560000000  0.4187840000000 1.0
C      1  0.4444090000000  0.4803680000000  0.5816960000000 1.0
C      1  0.4069470000000  0.5000940000000  0.4757350000000 1.0
C      1  0.4077530000000  0.4996000000000  0.5244680000000 1.0
C      1  0.5911750000000  0.4975070000000  0.4752900000000 1.0
C      1  0.5945160000000  0.5016900000000  0.5262840000000 1.0
C      1  0.4652360000000  0.5656330000000  0.4315590000000 1.0
C      1  0.4645500000000  0.4339690000000  0.5679120000000 1.0
C      1  0.5350670000000  0.5661710000000  0.4326940000000 1.0
C      1  0.5348360000000  0.4339920000000  0.5686650000000 1.0
C      1  0.5876470000000  0.4572230000000  0.4628090000000 1.0
C      1  0.5877900000000  0.5427330000000  0.5366630000000 1.0
C      1  0.4138820000000  0.4551720000000  0.4629170000000 1.0
C      1  0.4126710000000  0.5444140000000  0.5372920000000 1.0
C      1  0.5496310000000  0.4080590000000  0.5053670000000 1.0
C      1  0.5533890000000  0.5862520000000  0.4965990000000 1.0
C      1  0.4459350000000  0.4138820000000  0.5028320000000 1.0
C      1  0.4464170000000  0.5858230000000  0.4969310000000 1.0
C      1  0.4877820000000  0.5194300000000  0.5733290000000 1.0
C      1  0.4886070000000  0.4818120000000  0.4278930000000 1.0
C      1  0.5117540000000  0.5174990000000  0.5727140000000 1.0
C      1  0.5136910000000  0.4874520000000  0.4307550000000 1.0
C      1  0.5426900000000  0.5545680000000  0.5735060000000 1.0
C      1  0.5427240000000  0.4457260000000  0.4261770000000 1.0
C      1  0.4564560000000  0.5550450000000  0.5742070000000 1.0
C      1  0.4577230000000  0.4458270000000  0.4259080000000 1.0
C      1  0.4633120000000  0.5409160000000  0.4163050000000 1.0
C      1  0.4647700000000  0.4586450000000  0.5838380000000 1.0
C      1  0.5359300000000  0.5417410000000  0.4151500000000 1.0
C      1  0.5349410000000  0.4588210000000  0.5838970000000 1.0
C      1  0.4144620000000  0.5394530000000  0.4595200000000 1.0
C      1  0.4143290000000  0.4598280000000  0.5414470000000 1.0
C      1  0.5854460000000  0.5396630000000  0.4591300000000 1.0
C      1  0.5849910000000  0.4602800000000  0.5401430000000 1.0
C      1  0.4854170000000  0.5862030000000  0.4366710000000 1.0
C      1  0.4846720000000  0.4137910000000  0.5630130000000 1.0
C      1  0.5145530000000  0.5866410000000  0.4374310000000 1.0
C      1  0.5139010000000  0.4151660000000  0.5614130000000 1.0
C      1  0.4555860000000  0.5064080000000  0.5903950000000 1.0
C      1  0.4558400000000  0.4936300000000  0.4107880000000 1.0
C      1  0.5445280000000  0.5059670000000  0.5906510000000 1.0
C      1  0.5453680000000  0.4934550000000  0.4084480000000 1.0
C      1  0.5962760000000  0.4709310000000  0.4873410000000 1.0
C      1  0.5904050000000  0.5442960000000  0.5066650000000 1.0
C      1  0.4104930000000  0.4555800000000  0.4926060000000 1.0
C      1  0.4102750000000  0.5441150000000  0.5078330000000 1.0
C      1  0.4852250000000  0.6040940000000  0.5181540000000 1.0
C      1  0.4841380000000  0.3954060000000  0.4803280000000 1.0
C      1  0.5145690000000  0.6041090000000  0.5181930000000 1.0
C      1  0.5134750000000  0.3955130000000  0.4800860000000 1.0
END
