TITL C-2441155-8282-216 0.0210476905066643 125000 -11099.6534420237 0 0 78 (C1) n - 1
REM
REM in /home/bkarasulu/work/CARBON/AIRSS/Generating-Clusters/ReaxFF-fromJPCA2015/Units_Real/with-SteepDescent/Higher-Symm
REM
REM
REM
REM
REM
REM ./C.cell (1df0a924f5614ab8850e4351716899ee)
REM
REM compiler GCC version 9.2.1 20190827 (Red Hat 9.2.1-1)
REM options -cpp -mtune=generic -march=x86-64 -g -O0 -fpre-include=/usr/include/finclude/math-vector-fortran.h
REM seed -1447282231 -1615810101 1151025079 -2002761882 1223782642 1139315347 -362085334 -1090707993 530728288 -1954121035 -1941554356 1017493655 394348109 712774974 -1565331721 -585008708 851838763 -76573660 1769200561 -1801288726 -579440131 670436106 -344459165 -1842511645 -2054424295 295290583 -160594510 -189283985 2109490544 1055373390 -1387592117 816869895 616726849
REM
CELL 1.54180   50.00000   50.00000   50.00000   90.00000   90.00000   90.00000
LATT -1
SFAC C  
C      1  0.4272560000000  0.5386920000000  0.4522370000000 1.0
C      1  0.4304500000000  0.4615250000000  0.4674490000000 1.0
C      1  0.4883280000000  0.4207940000000  0.4658810000000 1.0
C      1  0.5537890000000  0.4396800000000  0.4544900000000 1.0
C      1  0.5816650000000  0.5046380000000  0.4643280000000 1.0
C      1  0.5443950000000  0.5668600000000  0.4593820000000 1.0
C      1  0.4751280000000  0.5775220000000  0.4553430000000 1.0
C      1  0.5334190000000  0.5102980000000  0.5553630000000 1.0
C      1  0.5167810000000  0.5339580000000  0.5594280000000 1.0
C      1  0.4879050000000  0.5342010000000  0.5605840000000 1.0
C      1  0.4615570000000  0.4944610000000  0.5616750000000 1.0
C      1  0.4737200000000  0.4690010000000  0.5574140000000 1.0
C      1  0.5026860000000  0.4645430000000  0.5531490000000 1.0
C      1  0.5263820000000  0.4811990000000  0.5554950000000 1.0
C      1  0.5636820000000  0.4843990000000  0.4482320000000 1.0
C      1  0.5481940000000  0.5398460000000  0.4487260000000 1.0
C      1  0.4951420000000  0.5618150000000  0.4397040000000 1.0
C      1  0.4490220000000  0.5373890000000  0.4367040000000 1.0
C      1  0.4387970000000  0.4864970000000  0.4551530000000 1.0
C      1  0.4740420000000  0.4419780000000  0.4509570000000 1.0
C      1  0.5261940000000  0.4435700000000  0.4447980000000 1.0
C      1  0.5271520000000  0.4397180000000  0.4924280000000 1.0
C      1  0.5621240000000  0.4803140000000  0.4942130000000 1.0
C      1  0.5646270000000  0.5445010000000  0.4928520000000 1.0
C      1  0.5039830000000  0.5645740000000  0.4947610000000 1.0
C      1  0.4503230000000  0.5425940000000  0.4922730000000 1.0
C      1  0.4201460000000  0.4909590000000  0.4971020000000 1.0
C      1  0.4575720000000  0.4305510000000  0.4952680000000 1.0
C      1  0.4899080000000  0.4792960000000  0.4972030000000 1.0
C      1  0.5138610000000  0.4693970000000  0.4924260000000 1.0
C      1  0.5317290000000  0.4919790000000  0.4851320000000 1.0
C      1  0.5237760000000  0.5176130000000  0.4985030000000 1.0
C      1  0.5010900000000  0.5320990000000  0.4924740000000 1.0
C      1  0.4748000000000  0.5213770000000  0.4837840000000 1.0
C      1  0.4694630000000  0.4954750000000  0.4990570000000 1.0
C      1  0.5268670000000  0.5214650000000  0.4429070000000 1.0
C      1  0.4996860000000  0.5325750000000  0.4403380000000 1.0
C      1  0.4739720000000  0.5188910000000  0.4497920000000 1.0
C      1  0.4656860000000  0.4907140000000  0.4451760000000 1.0
C      1  0.4848510000000  0.4682770000000  0.4427120000000 1.0
C      1  0.5139760000000  0.4699310000000  0.4413850000000 1.0
C      1  0.5318790000000  0.4926670000000  0.4508060000000 1.0
C      1  0.4256690000000  0.5318910000000  0.4788500000000 1.0
C      1  0.4192600000000  0.4629320000000  0.4946090000000 1.0
C      1  0.4810680000000  0.4146570000000  0.4939840000000 1.0
C      1  0.5531720000000  0.4386560000000  0.4819950000000 1.0
C      1  0.5812630000000  0.4988060000000  0.4911090000000 1.0
C      1  0.5536570000000  0.5690280000000  0.4863360000000 1.0
C      1  0.4803510000000  0.5809860000000  0.4838620000000 1.0
C      1  0.5162860000000  0.4260450000000  0.4659930000000 1.0
C      1  0.5690750000000  0.4594240000000  0.4721980000000 1.0
C      1  0.5698400000000  0.5310470000000  0.4674130000000 1.0
C      1  0.5278750000000  0.5757450000000  0.4810730000000 1.0
C      1  0.4562650000000  0.5682210000000  0.4774060000000 1.0
C      1  0.4235200000000  0.5043970000000  0.4731270000000 1.0
C      1  0.4515330000000  0.4419560000000  0.4688430000000 1.0
C      1  0.5562500000000  0.5200020000000  0.5395980000000 1.0
C      1  0.5233840000000  0.5601630000000  0.5436120000000 1.0
C      1  0.4677740000000  0.5523070000000  0.5439340000000 1.0
C      1  0.4392670000000  0.5033200000000  0.5430300000000 1.0
C      1  0.4558880000000  0.4538430000000  0.5408340000000 1.0
C      1  0.5065360000000  0.4388910000000  0.5396060000000 1.0
C      1  0.5509250000000  0.4679050000000  0.5456020000000 1.0
C      1  0.5023360000000  0.5718590000000  0.5254840000000 1.0
C      1  0.4483680000000  0.5428350000000  0.5244610000000 1.0
C      1  0.4426180000000  0.4911580000000  0.5158930000000 1.0
C      1  0.4668790000000  0.4407870000000  0.5205190000000 1.0
C      1  0.5294120000000  0.4303690000000  0.5238000000000 1.0
C      1  0.5673230000000  0.4786340000000  0.5238100000000 1.0
C      1  0.5473290000000  0.5335660000000  0.5139750000000 1.0
C      1  0.4762940000000  0.5805980000000  0.5375670000000 1.0
C      1  0.4260890000000  0.5300260000000  0.5405300000000 1.0
C      1  0.4299540000000  0.4588970000000  0.5239860000000 1.0
C      1  0.4888980000000  0.4235210000000  0.5218700000000 1.0
C      1  0.5534210000000  0.4380940000000  0.5393190000000 1.0
C      1  0.5818860000000  0.5060740000000  0.5285310000000 1.0
C      1  0.5460870000000  0.5646070000000  0.5277000000000 1.0
C      1  0.4845270000000  0.5082150000000  0.5629500000000 1.0
END
