TITL C-2441154-10-195 0.0518839461203181 125000 -14530.7127343723 0 0 106 (C1) n - 1
REM
REM in /home/bkarasulu/work/CARBON/AIRSS/Generating-Clusters/ReaxFF-fromJPCA2015/Units_Real/with-SteepDescent/Higher-Symm
REM
REM
REM
REM
REM
REM ./C.cell (1df0a924f5614ab8850e4351716899ee)
REM
REM compiler GCC version 9.2.1 20190827 (Red Hat 9.2.1-1)
REM options -cpp -mtune=generic -march=x86-64 -g -O0 -fpre-include=/usr/include/finclude/math-vector-fortran.h
REM seed 1413115943 -580164625 2072364669 1845756975 -13011823 527669457 1365364348 119812801 859697008 -1651778950 1262112891 1388027486 1784351495 -1690294535 1714175172 -2029376697 1007419608 -609419820 -2099042055 1438498008 624588626 406946873 862107644 1712831674 136397331 1943954154 -1135158848 2117722237 43866837 -2128895558 1308308072 1202690257 372179172
REM
CELL 1.54180   50.00000   50.00000   50.00000   90.00000   90.00000   90.00000
LATT -1
SFAC C  
C      1  0.5422170000000  0.4726380000000  0.4284660000000 1.0
C      1  0.5422120000000  0.4507090000000  0.5588840000000 1.0
C      1  0.5438180000000  0.5778890000000  0.5156310000000 1.0
C      1  0.5812280000000  0.5014790000000  0.5260130000000 1.0
C      1  0.5859840000000  0.5208450000000  0.4863630000000 1.0
C      1  0.5844600000000  0.4860220000000  0.4883250000000 1.0
C      1  0.4148780000000  0.4745350000000  0.5069720000000 1.0
C      1  0.4155350000000  0.5174860000000  0.5193120000000 1.0
C      1  0.4169740000000  0.5065310000000  0.4740470000000 1.0
C      1  0.4583750000000  0.5537390000000  0.4444790000000 1.0
C      1  0.4572310000000  0.4261490000000  0.4841370000000 1.0
C      1  0.4563560000000  0.5216830000000  0.5735150000000 1.0
C      1  0.4977430000000  0.5325450000000  0.4179270000000 1.0
C      1  0.4964990000000  0.4128470000000  0.5134030000000 1.0
C      1  0.4960660000000  0.5522910000000  0.5678240000000 1.0
C      1  0.4862720000000  0.5536790000000  0.4357580000000 1.0
C      1  0.4831790000000  0.4163880000000  0.4877110000000 1.0
C      1  0.4825290000000  0.5292630000000  0.5804440000000 1.0
C      1  0.5012340000000  0.5528920000000  0.5379840000000 1.0
C      1  0.5027340000000  0.5042590000000  0.4219700000000 1.0
C      1  0.5022710000000  0.4304640000000  0.5349350000000 1.0
C      1  0.4537280000000  0.4404400000000  0.4595750000000 1.0
C      1  0.4542970000000  0.4934320000000  0.5716100000000 1.0
C      1  0.4553660000000  0.5649460000000  0.4713490000000 1.0
C      1  0.4631300000000  0.4627420000000  0.5094260000000 1.0
C      1  0.4582160000000  0.5271100000000  0.5298740000000 1.0
C      1  0.4627710000000  0.5119160000000  0.4626870000000 1.0
C      1  0.5002520000000  0.5682260000000  0.4558770000000 1.0
C      1  0.4967590000000  0.4255170000000  0.4636150000000 1.0
C      1  0.4976130000000  0.5048460000000  0.5841600000000 1.0
C      1  0.5598940000000  0.5208020000000  0.5177480000000 1.0
C      1  0.5492500000000  0.5015450000000  0.4658690000000 1.0
C      1  0.5461590000000  0.4742410000000  0.5149160000000 1.0
C      1  0.4162000000000  0.5256560000000  0.5470720000000 1.0
C      1  0.4184770000000  0.5268960000000  0.4548160000000 1.0
C      1  0.4180940000000  0.4471430000000  0.5002170000000 1.0
C      1  0.4866810000000  0.4371770000000  0.5586730000000 1.0
C      1  0.4876520000000  0.5783660000000  0.5259530000000 1.0
C      1  0.4861450000000  0.4808850000000  0.4167870000000 1.0
C      1  0.5303410000000  0.4362620000000  0.5347590000000 1.0
C      1  0.5312000000000  0.5582140000000  0.5373400000000 1.0
C      1  0.5309010000000  0.5002580000000  0.4245800000000 1.0
C      1  0.5229390000000  0.5583430000000  0.4750900000000 1.0
C      1  0.5161680000000  0.4469600000000  0.4632060000000 1.0
C      1  0.5193310000000  0.4950250000000  0.5668960000000 1.0
C      1  0.5815000000000  0.5395790000000  0.5083480000000 1.0
C      1  0.5758440000000  0.4902880000000  0.4608120000000 1.0
C      1  0.5737600000000  0.4731650000000  0.5265650000000 1.0
C      1  0.5224980000000  0.4027120000000  0.5126760000000 1.0
C      1  0.5202820000000  0.5602060000000  0.5777890000000 1.0
C      1  0.5230880000000  0.5371220000000  0.4087510000000 1.0
C      1  0.5656740000000  0.4662180000000  0.5543270000000 1.0
C      1  0.5672960000000  0.5639680000000  0.5098200000000 1.0
C      1  0.5664910000000  0.4684730000000  0.4431390000000 1.0
C      1  0.5463160000000  0.5259050000000  0.4043320000000 1.0
C      1  0.5464590000000  0.4068410000000  0.5237300000000 1.0
C      1  0.5440090000000  0.5682060000000  0.5679370000000 1.0
C      1  0.5443270000000  0.5321400000000  0.5393390000000 1.0
C      1  0.5382480000000  0.5175680000000  0.4460170000000 1.0
C      1  0.5369760000000  0.4484090000000  0.5065720000000 1.0
C      1  0.5680790000000  0.4459730000000  0.4616000000000 1.0
C      1  0.5602620000000  0.4912150000000  0.5692990000000 1.0
C      1  0.5539450000000  0.5580180000000  0.4680850000000 1.0
C      1  0.5277510000000  0.5140600000000  0.4991130000000 1.0
C      1  0.5271350000000  0.4920100000000  0.4799380000000 1.0
C      1  0.5255110000000  0.4945900000000  0.5207690000000 1.0
C      1  0.4431940000000  0.4978020000000  0.4778990000000 1.0
C      1  0.4440680000000  0.4862930000000  0.5053870000000 1.0
C      1  0.4423100000000  0.5118350000000  0.5147050000000 1.0
C      1  0.4418350000000  0.4564300000000  0.5422720000000 1.0
C      1  0.4420670000000  0.5569730000000  0.5180300000000 1.0
C      1  0.4418710000000  0.4830930000000  0.4419610000000 1.0
C      1  0.4629250000000  0.4820580000000  0.4299800000000 1.0
C      1  0.4629540000000  0.4467930000000  0.5505490000000 1.0
C      1  0.4643530000000  0.5681980000000  0.5216950000000 1.0
C      1  0.4787400000000  0.4382190000000  0.4444630000000 1.0
C      1  0.4794170000000  0.4823390000000  0.5819230000000 1.0
C      1  0.4817000000000  0.5780650000000  0.4754240000000 1.0
C      1  0.4460300000000  0.4389410000000  0.5062500000000 1.0
C      1  0.4429230000000  0.5360180000000  0.5531970000000 1.0
C      1  0.4457060000000  0.5276950000000  0.4448220000000 1.0
C      1  0.4350450000000  0.5549020000000  0.4894580000000 1.0
C      1  0.4327900000000  0.4604040000000  0.4578730000000 1.0
C      1  0.4340820000000  0.4817570000000  0.5542600000000 1.0
C      1  0.5785460000000  0.5084820000000  0.5543130000000 1.0
C      1  0.5771250000000  0.5399090000000  0.4664080000000 1.0
C      1  0.5797350000000  0.4569800000000  0.4861170000000 1.0
C      1  0.5060860000000  0.4987500000000  0.5405840000000 1.0
C      1  0.5096700000000  0.5333740000000  0.4864810000000 1.0
C      1  0.5087390000000  0.4701570000000  0.4796030000000 1.0
C      1  0.4119010000000  0.4666230000000  0.4785330000000 1.0
C      1  0.4124870000000  0.4971790000000  0.5410910000000 1.0
C      1  0.4144990000000  0.5348240000000  0.4827500000000 1.0
C      1  0.5231690000000  0.4662510000000  0.5742320000000 1.0
C      1  0.5241730000000  0.5826720000000  0.4946880000000 1.0
C      1  0.5222900000000  0.4526980000000  0.4348260000000 1.0
C      1  0.4947910000000  0.4541050000000  0.4264400000000 1.0
C      1  0.4955840000000  0.4586410000000  0.5774340000000 1.0
C      1  0.4966680000000  0.5878390000000  0.4989450000000 1.0
C      1  0.5534190000000  0.5197080000000  0.5627480000000 1.0
C      1  0.5546710000000  0.5410270000000  0.4454450000000 1.0
C      1  0.5556440000000  0.4385880000000  0.4874230000000 1.0
C      1  0.4893070000000  0.5209820000000  0.5292910000000 1.0
C      1  0.4862510000000  0.5192930000000  0.4794700000000 1.0
C      1  0.4876370000000  0.4744440000000  0.4998520000000 1.0
C      1  0.4878540000000  0.5036970000000  0.5042440000000 1.0
END
