TITL C-2441154-10-479 0.271940679373916 125000 -22844.5657307732 0 0 190 (C1) n - 1
REM
REM in /home/bkarasulu/work/CARBON/AIRSS/Generating-Clusters/ReaxFF-fromJPCA2015/Units_Real/with-SteepDescent/Higher-Symm
REM
REM
REM
REM
REM
REM ./C.cell (1df0a924f5614ab8850e4351716899ee)
REM
REM compiler GCC version 9.2.1 20190827 (Red Hat 9.2.1-1)
REM options -cpp -mtune=generic -march=x86-64 -g -O0 -fpre-include=/usr/include/finclude/math-vector-fortran.h
REM seed -1287181878 -1061723584 -933299268 -702247428 946308076 397050379 1301693746 1819172438 -1250199023 1395799747 381695464 -1706540436 -1271663423 1732561400 59079493 -1543591929 1043051287 -809578022 -915192883 1948520441 111848520 810663522 2050697978 -659605408 1901947688 -1760118295 1843019124 571434312 -1443781369 -434434795 -354217798 481054135 -1747794981
REM
CELL 1.54180   50.00000   50.00000   50.00000   90.00000   90.00000   90.00000
LATT -1
SFAC C  
C      1  0.5131930000000  0.4763160000000  0.3924470000000 1.0
C      1  0.4750900000000  0.3925430000000  0.5134880000000 1.0
C      1  0.3940720000000  0.5143930000000  0.4750110000000 1.0
C      1  0.4867780000000  0.4751140000000  0.6063120000000 1.0
C      1  0.4867100000000  0.5241240000000  0.3933730000000 1.0
C      1  0.5133670000000  0.5235600000000  0.6073330000000 1.0
C      1  0.5232500000000  0.3916920000000  0.4864500000000 1.0
C      1  0.5240970000000  0.6064970000000  0.5155090000000 1.0
C      1  0.4752440000000  0.6062480000000  0.4856360000000 1.0
C      1  0.6062280000000  0.5126820000000  0.5244690000000 1.0
C      1  0.6066670000000  0.4856670000000  0.4769160000000 1.0
C      1  0.3926450000000  0.4846280000000  0.5242680000000 1.0
C      1  0.5486290000000  0.5453170000000  0.4220530000000 1.0
C      1  0.5390570000000  0.4289120000000  0.5418180000000 1.0
C      1  0.4216620000000  0.5466920000000  0.5450540000000 1.0
C      1  0.4573130000000  0.5399960000000  0.5724340000000 1.0
C      1  0.4572600000000  0.4609440000000  0.4285390000000 1.0
C      1  0.5475510000000  0.4543170000000  0.5783370000000 1.0
C      1  0.4516940000000  0.4196200000000  0.4505370000000 1.0
C      1  0.4549960000000  0.5762920000000  0.5471110000000 1.0
C      1  0.5450820000000  0.5771090000000  0.4532270000000 1.0
C      1  0.5711900000000  0.5409410000000  0.4616550000000 1.0
C      1  0.5755560000000  0.4527070000000  0.5442000000000 1.0
C      1  0.4218710000000  0.4516700000000  0.4541040000000 1.0
C      1  0.5530610000000  0.5280320000000  0.3993620000000 1.0
C      1  0.5304010000000  0.4026330000000  0.5529410000000 1.0
C      1  0.3993900000000  0.5505560000000  0.5276640000000 1.0
C      1  0.4460190000000  0.5300070000000  0.5981980000000 1.0
C      1  0.4460150000000  0.4693070000000  0.4026700000000 1.0
C      1  0.5523550000000  0.4718520000000  0.6009200000000 1.0
C      1  0.4718540000000  0.3993950000000  0.4468980000000 1.0
C      1  0.4708610000000  0.6002430000000  0.5515540000000 1.0
C      1  0.5277800000000  0.5995470000000  0.4496680000000 1.0
C      1  0.5974970000000  0.5536070000000  0.4692030000000 1.0
C      1  0.5998360000000  0.4469390000000  0.5292320000000 1.0
C      1  0.3997000000000  0.4489420000000  0.4724810000000 1.0
C      1  0.4975100000000  0.4206280000000  0.5309560000000 1.0
C      1  0.4212840000000  0.5340990000000  0.4975580000000 1.0
C      1  0.5348270000000  0.4961530000000  0.4201830000000 1.0
C      1  0.5032460000000  0.4212570000000  0.4651650000000 1.0
C      1  0.5003140000000  0.5763620000000  0.5362480000000 1.0
C      1  0.4973400000000  0.5789820000000  0.4661450000000 1.0
C      1  0.5791610000000  0.5324350000000  0.5018360000000 1.0
C      1  0.5770480000000  0.4627010000000  0.4987770000000 1.0
C      1  0.4225670000000  0.4658260000000  0.5030240000000 1.0
C      1  0.4672160000000  0.4985510000000  0.5793340000000 1.0
C      1  0.4681790000000  0.5009570000000  0.4208010000000 1.0
C      1  0.5353090000000  0.5033580000000  0.5783290000000 1.0
C      1  0.4554910000000  0.4172240000000  0.5524620000000 1.0
C      1  0.4181950000000  0.5525180000000  0.4544350000000 1.0
C      1  0.5524570000000  0.4542940000000  0.4178920000000 1.0
C      1  0.5455390000000  0.4178240000000  0.4477610000000 1.0
C      1  0.5449870000000  0.5812180000000  0.5522710000000 1.0
C      1  0.4544270000000  0.5816960000000  0.4472670000000 1.0
C      1  0.5824110000000  0.5521610000000  0.5443460000000 1.0
C      1  0.5819530000000  0.4472500000000  0.4547980000000 1.0
C      1  0.4178720000000  0.4468240000000  0.5459040000000 1.0
C      1  0.4478790000000  0.4553380000000  0.5822540000000 1.0
C      1  0.4477600000000  0.5437120000000  0.4175780000000 1.0
C      1  0.5525710000000  0.5456260000000  0.5818980000000 1.0
C      1  0.4637560000000  0.4324920000000  0.5746670000000 1.0
C      1  0.4325470000000  0.5746450000000  0.4640420000000 1.0
C      1  0.5747210000000  0.4639070000000  0.4326390000000 1.0
C      1  0.5357740000000  0.4326600000000  0.4257010000000 1.0
C      1  0.5353750000000  0.5671300000000  0.5747490000000 1.0
C      1  0.4632230000000  0.5665980000000  0.4251490000000 1.0
C      1  0.5673330000000  0.5744450000000  0.5353490000000 1.0
C      1  0.5674370000000  0.4249100000000  0.4645730000000 1.0
C      1  0.4327660000000  0.4247360000000  0.5368740000000 1.0
C      1  0.4249260000000  0.4639110000000  0.5679930000000 1.0
C      1  0.4252550000000  0.5355200000000  0.4325010000000 1.0
C      1  0.5747020000000  0.5361550000000  0.5669150000000 1.0
C      1  0.5005170000000  0.5382080000000  0.5848810000000 1.0
C      1  0.5386140000000  0.5840570000000  0.5016700000000 1.0
C      1  0.5826270000000  0.5013160000000  0.5395850000000 1.0
C      1  0.4978170000000  0.5400440000000  0.4161860000000 1.0
C      1  0.4967380000000  0.4595520000000  0.5833150000000 1.0
C      1  0.5005760000000  0.4620300000000  0.4154090000000 1.0
C      1  0.4609150000000  0.5832160000000  0.4993020000000 1.0
C      1  0.4595670000000  0.4157100000000  0.5026400000000 1.0
C      1  0.5377570000000  0.4147920000000  0.4985590000000 1.0
C      1  0.4176500000000  0.5011650000000  0.4617910000000 1.0
C      1  0.4145810000000  0.4982050000000  0.5393210000000 1.0
C      1  0.5845240000000  0.4989530000000  0.4616090000000 1.0
C      1  0.4556180000000  0.5140890000000  0.5156620000000 1.0
C      1  0.5160510000000  0.5168410000000  0.4545840000000 1.0
C      1  0.5124600000000  0.4569060000000  0.5108930000000 1.0
C      1  0.5417300000000  0.5090070000000  0.4893780000000 1.0
C      1  0.5410860000000  0.4903920000000  0.5104040000000 1.0
C      1  0.4608190000000  0.4827390000000  0.4861650000000 1.0
C      1  0.4866660000000  0.5141480000000  0.5422520000000 1.0
C      1  0.4906170000000  0.4868700000000  0.4603260000000 1.0
C      1  0.5148090000000  0.4832500000000  0.5441820000000 1.0
C      1  0.4734820000000  0.4533670000000  0.4784830000000 1.0
C      1  0.4891260000000  0.5416900000000  0.5094910000000 1.0
C      1  0.5118080000000  0.5423000000000  0.4891320000000 1.0
C      1  0.5139920000000  0.5846330000000  0.4272780000000 1.0
C      1  0.5828490000000  0.4259900000000  0.5157240000000 1.0
C      1  0.4250370000000  0.5152760000000  0.5840570000000 1.0
C      1  0.4846960000000  0.5839270000000  0.5736920000000 1.0
C      1  0.4849540000000  0.4178180000000  0.4273910000000 1.0
C      1  0.5153820000000  0.4157850000000  0.5742210000000 1.0
C      1  0.4151480000000  0.4271430000000  0.4857610000000 1.0
C      1  0.4146120000000  0.5731660000000  0.5141480000000 1.0
C      1  0.5837120000000  0.5744650000000  0.4842590000000 1.0
C      1  0.5736890000000  0.5146690000000  0.4165690000000 1.0
C      1  0.5738010000000  0.4853470000000  0.5848340000000 1.0
C      1  0.4250530000000  0.4847390000000  0.4161130000000 1.0
C      1  0.4724910000000  0.4768100000000  0.4092460000000 1.0
C      1  0.4824800000000  0.4042110000000  0.4748960000000 1.0
C      1  0.4055920000000  0.4762980000000  0.4830810000000 1.0
C      1  0.5250480000000  0.4832710000000  0.5947350000000 1.0
C      1  0.5250950000000  0.5172520000000  0.4037300000000 1.0
C      1  0.4722450000000  0.5227910000000  0.5906270000000 1.0
C      1  0.5226190000000  0.4095640000000  0.5266260000000 1.0
C      1  0.5175060000000  0.5953900000000  0.4771520000000 1.0
C      1  0.4819890000000  0.5954050000000  0.5242620000000 1.0
C      1  0.5958490000000  0.4745430000000  0.5175430000000 1.0
C      1  0.5908690000000  0.5272760000000  0.4771410000000 1.0
C      1  0.4043720000000  0.5235580000000  0.5172070000000 1.0
C      1  0.4919560000000  0.5522860000000  0.4712370000000 1.0
C      1  0.5510450000000  0.4703710000000  0.4909050000000 1.0
C      1  0.4709640000000  0.4926940000000  0.5519610000000 1.0
C      1  0.5075740000000  0.5508750000000  0.5288400000000 1.0
C      1  0.5035700000000  0.4492300000000  0.4692160000000 1.0
C      1  0.4918110000000  0.4473450000000  0.5259640000000 1.0
C      1  0.4484910000000  0.4712790000000  0.5088960000000 1.0
C      1  0.4486040000000  0.5281580000000  0.4922860000000 1.0
C      1  0.5521140000000  0.5290370000000  0.5084190000000 1.0
C      1  0.5300990000000  0.4926400000000  0.4476570000000 1.0
C      1  0.5298100000000  0.5063260000000  0.5518070000000 1.0
C      1  0.4714150000000  0.5054040000000  0.4489690000000 1.0
C      1  0.5072040000000  0.5674810000000  0.5826920000000 1.0
C      1  0.5678360000000  0.5826100000000  0.5073670000000 1.0
C      1  0.5822360000000  0.5078170000000  0.5684500000000 1.0
C      1  0.4914650000000  0.5687990000000  0.4174720000000 1.0
C      1  0.4917140000000  0.4308920000000  0.5824620000000 1.0
C      1  0.5077390000000  0.4329080000000  0.4179030000000 1.0
C      1  0.4316690000000  0.5819060000000  0.4924990000000 1.0
C      1  0.4308090000000  0.4174800000000  0.5084060000000 1.0
C      1  0.5670760000000  0.4169050000000  0.4924890000000 1.0
C      1  0.4174660000000  0.5074840000000  0.4326410000000 1.0
C      1  0.4167840000000  0.4920270000000  0.5685240000000 1.0
C      1  0.5824120000000  0.4918730000000  0.4323950000000 1.0
C      1  0.4763280000000  0.5964220000000  0.4586470000000 1.0
C      1  0.5954030000000  0.4591560000000  0.4770070000000 1.0
C      1  0.4596320000000  0.4777570000000  0.5968690000000 1.0
C      1  0.5220080000000  0.5945500000000  0.5415820000000 1.0
C      1  0.5240610000000  0.4031480000000  0.4598270000000 1.0
C      1  0.4774820000000  0.4028410000000  0.5404520000000 1.0
C      1  0.4040670000000  0.4582330000000  0.5230750000000 1.0
C      1  0.4038290000000  0.5412680000000  0.4765600000000 1.0
C      1  0.5974850000000  0.5404360000000  0.5221750000000 1.0
C      1  0.5403860000000  0.4752800000000  0.4023090000000 1.0
C      1  0.5403990000000  0.5240910000000  0.5965920000000 1.0
C      1  0.4597120000000  0.5214220000000  0.4033730000000 1.0
C      1  0.5637780000000  0.4700050000000  0.5626240000000 1.0
C      1  0.4729830000000  0.5607710000000  0.5600700000000 1.0
C      1  0.5593330000000  0.5639390000000  0.4720420000000 1.0
C      1  0.4347460000000  0.4717430000000  0.4404460000000 1.0
C      1  0.4348670000000  0.5287340000000  0.5600030000000 1.0
C      1  0.5637440000000  0.5304610000000  0.4374490000000 1.0
C      1  0.5294140000000  0.5614220000000  0.4361260000000 1.0
C      1  0.5282740000000  0.4403590000000  0.5652860000000 1.0
C      1  0.4703470000000  0.4389680000000  0.4416530000000 1.0
C      1  0.4371390000000  0.5636490000000  0.5301050000000 1.0
C      1  0.4390890000000  0.4358190000000  0.4704620000000 1.0
C      1  0.5596860000000  0.4403530000000  0.5262140000000 1.0
C      1  0.4694180000000  0.5530790000000  0.4916410000000 1.0
C      1  0.5540370000000  0.4910040000000  0.4688270000000 1.0
C      1  0.4920990000000  0.4679900000000  0.5531930000000 1.0
C      1  0.5312670000000  0.5531450000000  0.5091000000000 1.0
C      1  0.5287860000000  0.4464670000000  0.4901820000000 1.0
C      1  0.4684210000000  0.4455780000000  0.5068150000000 1.0
C      1  0.4463750000000  0.4920480000000  0.5304140000000 1.0
C      1  0.4477750000000  0.5052110000000  0.4701900000000 1.0
C      1  0.5529480000000  0.5086290000000  0.5313360000000 1.0
C      1  0.5083550000000  0.4698520000000  0.4468080000000 1.0
C      1  0.5081430000000  0.5296880000000  0.5528260000000 1.0
C      1  0.4924960000000  0.5309180000000  0.4457550000000 1.0
C      1  0.5054480000000  0.5032210000000  0.3853610000000 1.0
C      1  0.4961010000000  0.3854230000000  0.4939850000000 1.0
C      1  0.3862760000000  0.4999750000000  0.4998900000000 1.0
C      1  0.5056020000000  0.4961890000000  0.6136370000000 1.0
C      1  0.4996150000000  0.6138000000000  0.5005960000000 1.0
C      1  0.6141110000000  0.4941260000000  0.5034010000000 1.0
C      1  0.5158820000000  0.5161280000000  0.4824010000000 1.0
C      1  0.5155370000000  0.4829070000000  0.5162650000000 1.0
C      1  0.4828270000000  0.5159400000000  0.5152730000000 1.0
C      1  0.4907780000000  0.4911650000000  0.4891920000000 1.0
END
