TITL C-2441165-58-529 0.00636647672881446 125000 -8837.15934196227 0 0 64 (C1) n - 1
REM
REM in /home/bkarasulu/work/CARBON/AIRSS/Generating-Clusters/ReaxFF-fromJPCA2015/Units_Real/with-SteepDescent/Higher-Symm
REM
REM
REM
REM
REM
REM ./C.cell (1df0a924f5614ab8850e4351716899ee)
REM
REM compiler GCC version 9.2.1 20190827 (Red Hat 9.2.1-1)
REM options -cpp -mtune=generic -march=x86-64 -g -O0 -fpre-include=/usr/include/finclude/math-vector-fortran.h
REM seed 630020644 -239542805 -280815811 593413238 308562953 -394540330 -1995336940 2068527096 367568256 -1989667079 -1300741095 -863580599 1837429480 1703622890 -1679629292 -1402032836 182095333 -659926078 171082628 1557353245 103278428 -1409073086 602660054 -1722303314 -220064619 -1154836212 -1031028852 -261487880 1444728487 230134446 1584206281 -793312481 -801197365
REM
CELL 1.54180   50.00000   50.00000   50.00000   90.00000   90.00000   90.00000
LATT -1
SFAC C  
C      1  0.5606270000000  0.5324480000000  0.5067490000000 1.0
C      1  0.5603640000000  0.4679980000000  0.4936700000000 1.0
C      1  0.4391780000000  0.4659800000000  0.5105310000000 1.0
C      1  0.4393810000000  0.5342900000000  0.4900740000000 1.0
C      1  0.5520930000000  0.4718310000000  0.5395500000000 1.0
C      1  0.5522970000000  0.5288640000000  0.4611080000000 1.0
C      1  0.4467530000000  0.5210330000000  0.5332580000000 1.0
C      1  0.4461050000000  0.4786770000000  0.4674210000000 1.0
C      1  0.5060710000000  0.4773840000000  0.4797100000000 1.0
C      1  0.5059980000000  0.5221430000000  0.5193620000000 1.0
C      1  0.4937880000000  0.5213820000000  0.4791820000000 1.0
C      1  0.4945220000000  0.4789770000000  0.5199180000000 1.0
C      1  0.4998570000000  0.5163520000000  0.4242230000000 1.0
C      1  0.4984750000000  0.4841380000000  0.5759290000000 1.0
C      1  0.4978500000000  0.4846600000000  0.4257160000000 1.0
C      1  0.4973940000000  0.5156840000000  0.5751450000000 1.0
C      1  0.4756730000000  0.5552300000000  0.4650420000000 1.0
C      1  0.4744290000000  0.4444440000000  0.5363560000000 1.0
C      1  0.5246560000000  0.4434790000000  0.4653000000000 1.0
C      1  0.5239490000000  0.5560960000000  0.5342930000000 1.0
C      1  0.5335420000000  0.5122730000000  0.5382940000000 1.0
C      1  0.5345760000000  0.4880050000000  0.4607120000000 1.0
C      1  0.4721040000000  0.4914310000000  0.5353980000000 1.0
C      1  0.4711230000000  0.5085300000000  0.4642650000000 1.0
C      1  0.5353220000000  0.4842170000000  0.5503650000000 1.0
C      1  0.5361710000000  0.5163670000000  0.4492790000000 1.0
C      1  0.4647500000000  0.5150380000000  0.5477320000000 1.0
C      1  0.4643300000000  0.4852260000000  0.4521050000000 1.0
C      1  0.5383950000000  0.4467690000000  0.4914920000000 1.0
C      1  0.5382570000000  0.5537640000000  0.5082070000000 1.0
C      1  0.4618910000000  0.5554950000000  0.4913180000000 1.0
C      1  0.4609560000000  0.4447730000000  0.5101150000000 1.0
C      1  0.5220160000000  0.4714090000000  0.4238800000000 1.0
C      1  0.5216990000000  0.5282610000000  0.5748920000000 1.0
C      1  0.4760790000000  0.5283570000000  0.4295780000000 1.0
C      1  0.4773170000000  0.4717550000000  0.5696400000000 1.0
C      1  0.4346620000000  0.5136720000000  0.5087550000000 1.0
C      1  0.4347010000000  0.4867430000000  0.4912850000000 1.0
C      1  0.5681160000000  0.4807180000000  0.5189280000000 1.0
C      1  0.5682040000000  0.5195450000000  0.4816840000000 1.0
C      1  0.5599500000000  0.5097020000000  0.5242190000000 1.0
C      1  0.5600640000000  0.4905780000000  0.4758900000000 1.0
C      1  0.4447480000000  0.4794240000000  0.5359740000000 1.0
C      1  0.4441890000000  0.5200490000000  0.4650700000000 1.0
C      1  0.4579340000000  0.5409030000000  0.4461680000000 1.0
C      1  0.4599920000000  0.4607660000000  0.5538420000000 1.0
C      1  0.5368400000000  0.4615830000000  0.4452170000000 1.0
C      1  0.5368930000000  0.5384200000000  0.5541210000000 1.0
C      1  0.4814720000000  0.5132040000000  0.5041090000000 1.0
C      1  0.4816240000000  0.4856850000000  0.4952270000000 1.0
C      1  0.5206750000000  0.4854130000000  0.5037040000000 1.0
C      1  0.5203240000000  0.5141260000000  0.4955050000000 1.0
C      1  0.5061320000000  0.5554400000000  0.4617070000000 1.0
C      1  0.5047680000000  0.4452800000000  0.5381400000000 1.0
C      1  0.4938420000000  0.4454590000000  0.4630280000000 1.0
C      1  0.4932420000000  0.5552600000000  0.5370260000000 1.0
C      1  0.5222030000000  0.4407420000000  0.5152120000000 1.0
C      1  0.5223570000000  0.5572000000000  0.4849230000000 1.0
C      1  0.4775060000000  0.5573080000000  0.5142850000000 1.0
C      1  0.4767440000000  0.4395950000000  0.4860810000000 1.0
C      1  0.4811720000000  0.4680860000000  0.4435230000000 1.0
C      1  0.4801350000000  0.5319560000000  0.5561640000000 1.0
C      1  0.5172080000000  0.5333380000000  0.4411900000000 1.0
C      1  0.5163150000000  0.4670480000000  0.5592100000000 1.0
END
