TITL C-2441166-8118-1482 0.0531509855869127 125000 -20476.487832034 0 0 146 (C1) n - 1
REM
REM in /home/bkarasulu/work/CARBON/AIRSS/Generating-Clusters/ReaxFF-fromJPCA2015/Units_Real/with-SteepDescent/Higher-Symm
REM
REM
REM
REM
REM
REM ./C.cell (1df0a924f5614ab8850e4351716899ee)
REM
REM compiler GCC version 9.2.1 20190827 (Red Hat 9.2.1-1)
REM options -cpp -mtune=generic -march=x86-64 -g -O0 -fpre-include=/usr/include/finclude/math-vector-fortran.h
REM seed 504108325 -952369105 -2036439584 25547097 2095920555 -779469159 1370129831 -1395758154 1004799353 -1765798058 -670900278 1266590718 -1462921232 1884212876 -1587621525 1670521601 1976367009 144170430 -1114392138 1181347510 393535234 921357852 -632083462 -1170710177 -274883965 1696371434 1922442608 1577815786 1793600031 -615061369 1306780445 2040888041 -1919062298
REM
CELL 1.54180   50.00000   50.00000   50.00000   90.00000   90.00000   90.00000
LATT -1
SFAC C  
C      1  0.4953630000000  0.4146170000000  0.5739580000000 1.0
C      1  0.4567040000000  0.4231790000000  0.5464470000000 1.0
C      1  0.4382540000000  0.4236560000000  0.5058930000000 1.0
C      1  0.4468700000000  0.4219130000000  0.4656420000000 1.0
C      1  0.4792890000000  0.4170020000000  0.4270760000000 1.0
C      1  0.5235350000000  0.4227680000000  0.4427930000000 1.0
C      1  0.5517050000000  0.4157540000000  0.4766800000000 1.0
C      1  0.5646630000000  0.4087450000000  0.5192310000000 1.0
C      1  0.5319090000000  0.4139430000000  0.5429810000000 1.0
C      1  0.5927590000000  0.5193870000000  0.5488940000000 1.0
C      1  0.5411430000000  0.5182290000000  0.5890080000000 1.0
C      1  0.4669260000000  0.5186670000000  0.5935070000000 1.0
C      1  0.4165830000000  0.5308660000000  0.5453440000000 1.0
C      1  0.4081770000000  0.5200110000000  0.4722240000000 1.0
C      1  0.4301020000000  0.5180410000000  0.4235230000000 1.0
C      1  0.4997350000000  0.5198930000000  0.3976050000000 1.0
C      1  0.5626710000000  0.5274960000000  0.4197580000000 1.0
C      1  0.5974350000000  0.5306320000000  0.4809100000000 1.0
C      1  0.5563430000000  0.4611110000000  0.4253440000000 1.0
C      1  0.5825130000000  0.4538210000000  0.4675170000000 1.0
C      1  0.5825280000000  0.4528880000000  0.5201730000000 1.0
C      1  0.5551730000000  0.4556590000000  0.5677040000000 1.0
C      1  0.5069130000000  0.4573820000000  0.5921280000000 1.0
C      1  0.4277620000000  0.4684530000000  0.5527100000000 1.0
C      1  0.4019710000000  0.4590160000000  0.5148470000000 1.0
C      1  0.4425840000000  0.4608110000000  0.4486910000000 1.0
C      1  0.4679890000000  0.4587130000000  0.4072580000000 1.0
C      1  0.4723650000000  0.5731220000000  0.5634110000000 1.0
C      1  0.4329920000000  0.5660800000000  0.5323560000000 1.0
C      1  0.4334980000000  0.5692590000000  0.4848850000000 1.0
C      1  0.4601610000000  0.5695270000000  0.4465730000000 1.0
C      1  0.5049590000000  0.5708030000000  0.4307010000000 1.0
C      1  0.5490930000000  0.5690460000000  0.4481810000000 1.0
C      1  0.5693460000000  0.5703400000000  0.4911370000000 1.0
C      1  0.5573970000000  0.5735510000000  0.5369220000000 1.0
C      1  0.5193720000000  0.5720660000000  0.5683200000000 1.0
C      1  0.4012070000000  0.4939740000000  0.4633660000000 1.0
C      1  0.4360740000000  0.5000150000000  0.4036860000000 1.0
C      1  0.5147730000000  0.4997730000000  0.3937430000000 1.0
C      1  0.5831160000000  0.5115240000000  0.4223570000000 1.0
C      1  0.6117760000000  0.5165570000000  0.4921860000000 1.0
C      1  0.5856800000000  0.4995520000000  0.5706000000000 1.0
C      1  0.5244730000000  0.5060820000000  0.6074650000000 1.0
C      1  0.4492580000000  0.4981300000000  0.5964200000000 1.0
C      1  0.3990840000000  0.5097250000000  0.5380460000000 1.0
C      1  0.5318560000000  0.5395960000000  0.5190870000000 1.0
C      1  0.5120940000000  0.5564850000000  0.5300340000000 1.0
C      1  0.4902190000000  0.5413420000000  0.5347470000000 1.0
C      1  0.4698630000000  0.5521300000000  0.5200190000000 1.0
C      1  0.4607050000000  0.5342790000000  0.5006480000000 1.0
C      1  0.4714390000000  0.5353510000000  0.4748950000000 1.0
C      1  0.4965010000000  0.5378450000000  0.4657140000000 1.0
C      1  0.5139270000000  0.5540220000000  0.4793830000000 1.0
C      1  0.5320490000000  0.5382610000000  0.4934410000000 1.0
C      1  0.5685350000000  0.4786130000000  0.5751290000000 1.0
C      1  0.5083630000000  0.4839890000000  0.6029290000000 1.0
C      1  0.4338960000000  0.4765680000000  0.5799020000000 1.0
C      1  0.4009280000000  0.4884660000000  0.5160810000000 1.0
C      1  0.4191080000000  0.4754130000000  0.4487590000000 1.0
C      1  0.4596300000000  0.4857000000000  0.4010920000000 1.0
C      1  0.5414480000000  0.4751330000000  0.4100540000000 1.0
C      1  0.5883900000000  0.4812800000000  0.4668640000000 1.0
C      1  0.5902950000000  0.4794240000000  0.5195050000000 1.0
C      1  0.4691480000000  0.4906900000000  0.5264410000000 1.0
C      1  0.4536030000000  0.4874810000000  0.5016250000000 1.0
C      1  0.4657720000000  0.4922940000000  0.4752340000000 1.0
C      1  0.4959620000000  0.4789820000000  0.4693590000000 1.0
C      1  0.5229250000000  0.4914120000000  0.4646420000000 1.0
C      1  0.5401680000000  0.4929120000000  0.4864770000000 1.0
C      1  0.5360150000000  0.4787720000000  0.5116850000000 1.0
C      1  0.5186130000000  0.4902600000000  0.5316890000000 1.0
C      1  0.4945220000000  0.4770390000000  0.5244900000000 1.0
C      1  0.4144170000000  0.4465650000000  0.5382960000000 1.0
C      1  0.4058960000000  0.4471830000000  0.4886910000000 1.0
C      1  0.4483870000000  0.4453920000000  0.4253520000000 1.0
C      1  0.4956310000000  0.4515840000000  0.4089310000000 1.0
C      1  0.5687300000000  0.4432660000000  0.4430680000000 1.0
C      1  0.5844380000000  0.4405760000000  0.4936390000000 1.0
C      1  0.5694350000000  0.4419190000000  0.5437370000000 1.0
C      1  0.5300090000000  0.4443450000000  0.5800880000000 1.0
C      1  0.4786180000000  0.4491440000000  0.5883680000000 1.0
C      1  0.4215460000000  0.5545120000000  0.5083690000000 1.0
C      1  0.4367010000000  0.5587740000000  0.4579410000000 1.0
C      1  0.4782270000000  0.5602890000000  0.4260790000000 1.0
C      1  0.5324320000000  0.5572900000000  0.4274940000000 1.0
C      1  0.5705490000000  0.5576030000000  0.4644230000000 1.0
C      1  0.5768520000000  0.5615150000000  0.5183880000000 1.0
C      1  0.5437450000000  0.5601230000000  0.5604990000000 1.0
C      1  0.4942730000000  0.5624120000000  0.5801520000000 1.0
C      1  0.4462120000000  0.5580680000000  0.5568020000000 1.0
C      1  0.5219350000000  0.5078480000000  0.4421390000000 1.0
C      1  0.5524000000000  0.5187410000000  0.4907170000000 1.0
C      1  0.5524000000000  0.5240480000000  0.5312060000000 1.0
C      1  0.5176380000000  0.5084800000000  0.5533910000000 1.0
C      1  0.4905090000000  0.5205020000000  0.5559040000000 1.0
C      1  0.4651860000000  0.5092590000000  0.5465950000000 1.0
C      1  0.4410920000000  0.5137620000000  0.5049190000000 1.0
C      1  0.4566320000000  0.5150670000000  0.4615790000000 1.0
C      1  0.4981370000000  0.5228530000000  0.4422070000000 1.0
C      1  0.4558380000000  0.5869910000000  0.4910100000000 1.0
C      1  0.4759360000000  0.5870640000000  0.4685940000000 1.0
C      1  0.5041190000000  0.5885040000000  0.4535990000000 1.0
C      1  0.5308920000000  0.5850300000000  0.4660560000000 1.0
C      1  0.5457330000000  0.5873850000000  0.4935580000000 1.0
C      1  0.5391810000000  0.5890510000000  0.5211910000000 1.0
C      1  0.5124130000000  0.5845780000000  0.5398990000000 1.0
C      1  0.4820650000000  0.5883640000000  0.5418070000000 1.0
C      1  0.4613880000000  0.5812230000000  0.5208720000000 1.0
C      1  0.4707490000000  0.4390950000000  0.5269010000000 1.0
C      1  0.4560290000000  0.4467090000000  0.5026430000000 1.0
C      1  0.4616770000000  0.4465710000000  0.4721080000000 1.0
C      1  0.4896680000000  0.4514550000000  0.4645660000000 1.0
C      1  0.5122990000000  0.4351590000000  0.4653540000000 1.0
C      1  0.5324310000000  0.4353700000000  0.4846730000000 1.0
C      1  0.5329000000000  0.4507550000000  0.5094180000000 1.0
C      1  0.5198330000000  0.4362900000000  0.5306350000000 1.0
C      1  0.4957550000000  0.4503930000000  0.5351700000000 1.0
C      1  0.5362450000000  0.5281720000000  0.4263370000000 1.0
C      1  0.5706460000000  0.5271430000000  0.4675510000000 1.0
C      1  0.5794680000000  0.5336240000000  0.5279280000000 1.0
C      1  0.5436810000000  0.5293630000000  0.5611780000000 1.0
C      1  0.4872440000000  0.5343500000000  0.5853530000000 1.0
C      1  0.4435920000000  0.5285120000000  0.5537220000000 1.0
C      1  0.4147930000000  0.5256920000000  0.5001040000000 1.0
C      1  0.4299570000000  0.5280990000000  0.4518970000000 1.0
C      1  0.4814320000000  0.5306670000000  0.4178970000000 1.0
C      1  0.5601810000000  0.4153000000000  0.5414350000000 1.0
C      1  0.5230890000000  0.4167940000000  0.5717250000000 1.0
C      1  0.4693830000000  0.4237120000000  0.5740880000000 1.0
C      1  0.4303300000000  0.4223640000000  0.5345640000000 1.0
C      1  0.4225330000000  0.4241260000000  0.4812510000000 1.0
C      1  0.4530130000000  0.4175990000000  0.4371580000000 1.0
C      1  0.5049880000000  0.4251810000000  0.4192240000000 1.0
C      1  0.5518170000000  0.4195510000000  0.4479000000000 1.0
C      1  0.5729780000000  0.4150130000000  0.4948990000000 1.0
C      1  0.5818630000000  0.4953960000000  0.5413310000000 1.0
C      1  0.5271740000000  0.4937270000000  0.5818330000000 1.0
C      1  0.4612050000000  0.4722650000000  0.5858220000000 1.0
C      1  0.4227740000000  0.4915600000000  0.5349360000000 1.0
C      1  0.4107130000000  0.4711870000000  0.4750990000000 1.0
C      1  0.4566280000000  0.5057900000000  0.4222920000000 1.0
C      1  0.5160300000000  0.4727880000000  0.4011690000000 1.0
C      1  0.5782270000000  0.5014240000000  0.4476100000000 1.0
C      1  0.5983300000000  0.4909710000000  0.4934470000000 1.0
C      1  0.4950210000000  0.5746920000000  0.4915700000000 1.0
C      1  0.4963830000000  0.4738290000000  0.4979120000000 1.0
END
