TITL C-2441159-1093-991 0.0099981231985234 125000 -7407.27763288493 0 0 54 (C1) n - 1
REM
REM in /home/bkarasulu/work/CARBON/AIRSS/Generating-Clusters/ReaxFF-fromJPCA2015/Units_Real/with-SteepDescent/Higher-Symm
REM
REM
REM
REM
REM
REM ./C.cell (1df0a924f5614ab8850e4351716899ee)
REM
REM compiler GCC version 9.2.1 20190827 (Red Hat 9.2.1-1)
REM options -cpp -mtune=generic -march=x86-64 -g -O0 -fpre-include=/usr/include/finclude/math-vector-fortran.h
REM seed 2014413127 -762908702 1048366202 -379714968 871970832 -1625790549 -986084423 102390290 -1137481908 1015645548 1898166971 -408371829 1549436456 10780301 1072689411 -2017165204 -1327660890 1428810481 -1750962788 -1064084501 1404481723 767156152 729267714 1036971464 -1279227687 -41507275 -1518941878 1131233524 166136645 1555076288 -522923637 -1144037424 -1768452232
REM
CELL 1.54180   50.00000   50.00000   50.00000   90.00000   90.00000   90.00000
LATT -1
SFAC C  
C      1  0.5377130000000  0.5173690000000  0.4509110000000 1.0
C      1  0.4582310000000  0.4698210000000  0.4529370000000 1.0
C      1  0.5450960000000  0.4538750000000  0.4815990000000 1.0
C      1  0.5204140000000  0.4636100000000  0.4773100000000 1.0
C      1  0.4819770000000  0.5029710000000  0.4646320000000 1.0
C      1  0.4852030000000  0.4661950000000  0.5438210000000 1.0
C      1  0.4556230000000  0.4547330000000  0.4764230000000 1.0
C      1  0.4876040000000  0.4757120000000  0.5156830000000 1.0
C      1  0.5540270000000  0.4768710000000  0.5204850000000 1.0
C      1  0.5148550000000  0.5120020000000  0.4918730000000 1.0
C      1  0.4391700000000  0.4690550000000  0.5277990000000 1.0
C      1  0.5031500000000  0.5714460000000  0.4825420000000 1.0
C      1  0.4849860000000  0.4840320000000  0.4265380000000 1.0
C      1  0.5267520000000  0.5653010000000  0.4675440000000 1.0
C      1  0.4477080000000  0.5157300000000  0.5130580000000 1.0
C      1  0.4696300000000  0.5171380000000  0.4880730000000 1.0
C      1  0.5219340000000  0.4757040000000  0.5615120000000 1.0
C      1  0.5010830000000  0.4939550000000  0.5743090000000 1.0
C      1  0.5544330000000  0.4975680000000  0.4604340000000 1.0
C      1  0.5289030000000  0.5731580000000  0.4972330000000 1.0
C      1  0.4390840000000  0.4724540000000  0.4966890000000 1.0
C      1  0.4912230000000  0.5425040000000  0.4441490000000 1.0
C      1  0.5110280000000  0.4521300000000  0.5472350000000 1.0
C      1  0.5200680000000  0.4612500000000  0.4510370000000 1.0
C      1  0.5200970000000  0.4404440000000  0.5220840000000 1.0
C      1  0.5413060000000  0.4893980000000  0.5436160000000 1.0
C      1  0.5303460000000  0.5155800000000  0.5372190000000 1.0
C      1  0.5024180000000  0.5225230000000  0.5409110000000 1.0
C      1  0.5157440000000  0.5664310000000  0.5206920000000 1.0
C      1  0.4779650000000  0.4371940000000  0.4845820000000 1.0
C      1  0.4716550000000  0.5480170000000  0.4610170000000 1.0
C      1  0.5076460000000  0.4842120000000  0.4972540000000 1.0
C      1  0.5085810000000  0.5176920000000  0.4622560000000 1.0
C      1  0.4360590000000  0.5138310000000  0.5614200000000 1.0
C      1  0.5051170000000  0.4708140000000  0.4335540000000 1.0
C      1  0.5641740000000  0.4762350000000  0.4751090000000 1.0
C      1  0.4589550000000  0.5307580000000  0.5544090000000 1.0
C      1  0.4573410000000  0.4531480000000  0.5445600000000 1.0
C      1  0.4609700000000  0.5424560000000  0.4848060000000 1.0
C      1  0.4866330000000  0.5165880000000  0.5635470000000 1.0
C      1  0.4296050000000  0.4981260000000  0.4904180000000 1.0
C      1  0.5437130000000  0.4518430000000  0.5099970000000 1.0
C      1  0.4600020000000  0.5404760000000  0.5254970000000 1.0
C      1  0.5353340000000  0.5239330000000  0.5097490000000 1.0
C      1  0.5637200000000  0.5223590000000  0.5012090000000 1.0
C      1  0.4871840000000  0.5385390000000  0.5225420000000 1.0
C      1  0.5463960000000  0.5448850000000  0.4596710000000 1.0
C      1  0.4900060000000  0.5637220000000  0.5099470000000 1.0
C      1  0.5686650000000  0.5424110000000  0.4796460000000 1.0
C      1  0.4786490000000  0.4483980000000  0.5090040000000 1.0
C      1  0.5675610000000  0.4925780000000  0.4996490000000 1.0
C      1  0.4637840000000  0.4952900000000  0.4416550000000 1.0
C      1  0.4418290000000  0.4969790000000  0.5358840000000 1.0
C      1  0.4986490000000  0.4305580000000  0.5042680000000 1.0
END
