TITL C-2441157-2117-472 0.0179059664512142 125000 -5213.58024315376 0 0 42 (C1) n - 1
REM
REM in /home/bkarasulu/work/CARBON/AIRSS/Generating-Clusters/ReaxFF-fromJPCA2015/Units_Real/with-SteepDescent/Higher-Symm
REM
REM
REM
REM
REM
REM ./C.cell (1df0a924f5614ab8850e4351716899ee)
REM
REM compiler GCC version 9.2.1 20190827 (Red Hat 9.2.1-1)
REM options -cpp -mtune=generic -march=x86-64 -g -O0 -fpre-include=/usr/include/finclude/math-vector-fortran.h
REM seed 1543975965 339044078 -2082903999 1426415265 -2091658157 -985381207 309063116 581345451 -1362977058 118419723 1111219171 -1690686006 2072149294 -99931377 804971016 867690088 1084002924 1774379954 -1593759185 -1135285775 -1272923477 -729366341 -744307590 1078848147 997280129 -1190472038 374001655 -1836080979 -1351625040 -1099425496 -1362081695 1054750691 1364495895
REM
CELL 1.54180   50.00000   50.00000   50.00000   90.00000   90.00000   90.00000
LATT -1
SFAC C  
C      1  0.4861980000000  0.5375830000000  0.5146870000000 1.0
C      1  0.4710050000000  0.4895210000000  0.5497510000000 1.0
C      1  0.4278150000000  0.5013500000000  0.5156550000000 1.0
C      1  0.4426040000000  0.5214220000000  0.4994150000000 1.0
C      1  0.5011040000000  0.4775180000000  0.4297930000000 1.0
C      1  0.4733840000000  0.4401690000000  0.5339760000000 1.0
C      1  0.5329910000000  0.5538620000000  0.5187510000000 1.0
C      1  0.5369010000000  0.4982710000000  0.5107900000000 1.0
C      1  0.5242320000000  0.4877500000000  0.4417380000000 1.0
C      1  0.4824110000000  0.4813550000000  0.5261290000000 1.0
C      1  0.4681440000000  0.4555090000000  0.5106840000000 1.0
C      1  0.4921350000000  0.5085510000000  0.5079550000000 1.0
C      1  0.4736250000000  0.4815820000000  0.4383760000000 1.0
C      1  0.5233370000000  0.4447490000000  0.5105100000000 1.0
C      1  0.5052150000000  0.5570430000000  0.5256280000000 1.0
C      1  0.4447260000000  0.5004850000000  0.5415410000000 1.0
C      1  0.5472210000000  0.5259050000000  0.5201950000000 1.0
C      1  0.5414330000000  0.4750200000000  0.5508500000000 1.0
C      1  0.5067540000000  0.5281450000000  0.4413330000000 1.0
C      1  0.5609800000000  0.5328350000000  0.4942080000000 1.0
C      1  0.4884850000000  0.4650040000000  0.5487390000000 1.0
C      1  0.5116740000000  0.5445830000000  0.4780920000000 1.0
C      1  0.4759980000000  0.4477890000000  0.4836220000000 1.0
C      1  0.5271820000000  0.5128330000000  0.5590920000000 1.0
C      1  0.4660130000000  0.4655520000000  0.4623890000000 1.0
C      1  0.5166540000000  0.4632170000000  0.4501720000000 1.0
C      1  0.5283050000000  0.4886950000000  0.5350280000000 1.0
C      1  0.5044990000000  0.4427850000000  0.4889760000000 1.0
C      1  0.4560720000000  0.5264370000000  0.5396340000000 1.0
C      1  0.5167020000000  0.4931720000000  0.4891020000000 1.0
C      1  0.4658410000000  0.5035370000000  0.4972670000000 1.0
C      1  0.5146470000000  0.5648370000000  0.4985570000000 1.0
C      1  0.4701990000000  0.5057430000000  0.4546110000000 1.0
C      1  0.5142240000000  0.4659650000000  0.4777660000000 1.0
C      1  0.5524580000000  0.5149240000000  0.4727020000000 1.0
C      1  0.4569030000000  0.5420610000000  0.5159930000000 1.0
C      1  0.5515500000000  0.5261700000000  0.5533510000000 1.0
C      1  0.5198890000000  0.4606940000000  0.5389370000000 1.0
C      1  0.5409900000000  0.5415750000000  0.4742050000000 1.0
C      1  0.5257160000000  0.5058680000000  0.4623540000000 1.0
C      1  0.4868460000000  0.5302760000000  0.4610120000000 1.0
C      1  0.4669360000000  0.4896570000000  0.4764340000000 1.0
END
