TITL C-2441161-5029-537 0.0479205813012565 125000 -14423.6294363265 0 0 107 (C1) n - 1
REM
REM in /home/bkarasulu/work/CARBON/AIRSS/Generating-Clusters/ReaxFF-fromJPCA2015/Units_Real/with-SteepDescent/Higher-Symm
REM
REM
REM
REM
REM
REM ./C.cell (1df0a924f5614ab8850e4351716899ee)
REM
REM compiler GCC version 9.2.1 20190827 (Red Hat 9.2.1-1)
REM options -cpp -mtune=generic -march=x86-64 -g -O0 -fpre-include=/usr/include/finclude/math-vector-fortran.h
REM seed 1034004072 -1369494598 -761728386 -1598603029 445752503 167014721 -1450714669 -609110718 1214423410 1663434047 376176489 -298661398 116501741 576267585 -2052754667 -1287455511 42658055 1198876935 1381794171 -993941781 -974014383 -923404623 797973573 -1367395071 -1514919322 165259168 -1862002639 -590145341 -795495931 -1751834023 990183143 17551445 -1074714075
REM
CELL 1.54180   50.00000   50.00000   50.00000   90.00000   90.00000   90.00000
LATT -1
SFAC C  
C      1  0.5659290000000  0.5118370000000  0.4337320000000 1.0
C      1  0.4336560000000  0.5143180000000  0.5681720000000 1.0
C      1  0.5720270000000  0.4851450000000  0.4324170000000 1.0
C      1  0.4312340000000  0.4860380000000  0.5674480000000 1.0
C      1  0.5570570000000  0.4784520000000  0.5619710000000 1.0
C      1  0.4457190000000  0.4633550000000  0.4270120000000 1.0
C      1  0.5545940000000  0.5385910000000  0.5738080000000 1.0
C      1  0.4421310000000  0.5243370000000  0.4360360000000 1.0
C      1  0.4934260000000  0.5460740000000  0.4436110000000 1.0
C      1  0.5081600000000  0.5491710000000  0.5728520000000 1.0
C      1  0.4937150000000  0.4542370000000  0.4360200000000 1.0
C      1  0.5020310000000  0.4530720000000  0.5600250000000 1.0
C      1  0.4821370000000  0.5715990000000  0.5281600000000 1.0
C      1  0.5193550000000  0.5729970000000  0.4723320000000 1.0
C      1  0.4795610000000  0.4258720000000  0.5301850000000 1.0
C      1  0.5194790000000  0.4256840000000  0.4697670000000 1.0
C      1  0.5741120000000  0.5186660000000  0.4998630000000 1.0
C      1  0.4247330000000  0.5238160000000  0.5007260000000 1.0
C      1  0.5740810000000  0.4764960000000  0.4991680000000 1.0
C      1  0.4249630000000  0.4825600000000  0.5011270000000 1.0
C      1  0.4787700000000  0.5068520000000  0.5075750000000 1.0
C      1  0.5268240000000  0.5253360000000  0.4934940000000 1.0
C      1  0.4721040000000  0.4804030000000  0.5183480000000 1.0
C      1  0.5188870000000  0.4802110000000  0.4744600000000 1.0
C      1  0.4698510000000  0.5857030000000  0.4788920000000 1.0
C      1  0.5330530000000  0.5852110000000  0.5178070000000 1.0
C      1  0.4714350000000  0.4204870000000  0.4811070000000 1.0
C      1  0.5258180000000  0.4219040000000  0.5180510000000 1.0
C      1  0.5608640000000  0.5425840000000  0.4603560000000 1.0
C      1  0.4392820000000  0.5438170000000  0.5394960000000 1.0
C      1  0.5607310000000  0.4562050000000  0.4601570000000 1.0
C      1  0.4377060000000  0.4570050000000  0.5385200000000 1.0
C      1  0.4997500000000  0.4662380000000  0.5289230000000 1.0
C      1  0.4945770000000  0.4651800000000  0.4664900000000 1.0
C      1  0.4961400000000  0.5238000000000  0.5234200000000 1.0
C      1  0.4938910000000  0.5329430000000  0.4706670000000 1.0
C      1  0.5236620000000  0.4862820000000  0.4224020000000 1.0
C      1  0.4803860000000  0.4864500000000  0.5712910000000 1.0
C      1  0.5216850000000  0.5152560000000  0.4203290000000 1.0
C      1  0.4736650000000  0.5136530000000  0.5800600000000 1.0
C      1  0.5719950000000  0.5132940000000  0.4724250000000 1.0
C      1  0.4288370000000  0.5164610000000  0.5279350000000 1.0
C      1  0.5710160000000  0.4840380000000  0.4714530000000 1.0
C      1  0.4253590000000  0.4872690000000  0.5295820000000 1.0
C      1  0.4957350000000  0.5935570000000  0.4688790000000 1.0
C      1  0.5100220000000  0.5891150000000  0.5341890000000 1.0
C      1  0.4971490000000  0.4051680000000  0.4652060000000 1.0
C      1  0.5057240000000  0.4089880000000  0.5371160000000 1.0
C      1  0.5622310000000  0.5477280000000  0.5333350000000 1.0
C      1  0.4319690000000  0.5577030000000  0.4675660000000 1.0
C      1  0.5642420000000  0.4434360000000  0.5324690000000 1.0
C      1  0.4359420000000  0.4550550000000  0.4686920000000 1.0
C      1  0.4467710000000  0.4638760000000  0.4975210000000 1.0
C      1  0.5718930000000  0.4499040000000  0.5069360000000 1.0
C      1  0.4292120000000  0.5501060000000  0.4938760000000 1.0
C      1  0.5562270000000  0.5391530000000  0.5050150000000 1.0
C      1  0.4485550000000  0.4290430000000  0.4643790000000 1.0
C      1  0.5414590000000  0.4296930000000  0.5411590000000 1.0
C      1  0.4520850000000  0.5739360000000  0.4575280000000 1.0
C      1  0.5473940000000  0.5738160000000  0.5393300000000 1.0
C      1  0.5612530000000  0.4370230000000  0.4834160000000 1.0
C      1  0.4398150000000  0.4400920000000  0.5144030000000 1.0
C      1  0.5600050000000  0.5600020000000  0.4839440000000 1.0
C      1  0.4404030000000  0.5636550000000  0.5164360000000 1.0
C      1  0.5185720000000  0.5442680000000  0.4285380000000 1.0
C      1  0.4809080000000  0.5420430000000  0.5706840000000 1.0
C      1  0.5209810000000  0.4568620000000  0.4282260000000 1.0
C      1  0.4758730000000  0.4572120000000  0.5725700000000 1.0
C      1  0.5704070000000  0.5264190000000  0.5534070000000 1.0
C      1  0.4281460000000  0.5039560000000  0.4528620000000 1.0
C      1  0.5704970000000  0.4986920000000  0.5461670000000 1.0
C      1  0.4282950000000  0.4762280000000  0.4459320000000 1.0
C      1  0.5029040000000  0.5525300000000  0.4878010000000 1.0
C      1  0.4973710000000  0.5509530000000  0.5147060000000 1.0
C      1  0.4934150000000  0.4423330000000  0.4853380000000 1.0
C      1  0.5001880000000  0.4433690000000  0.5127000000000 1.0
C      1  0.4766870000000  0.4898290000000  0.4632060000000 1.0
C      1  0.5216000000000  0.4843940000000  0.5247420000000 1.0
C      1  0.4782680000000  0.5119300000000  0.4801500000000 1.0
C      1  0.5173910000000  0.5092180000000  0.5376030000000 1.0
C      1  0.5453210000000  0.4600000000000  0.5436300000000 1.0
C      1  0.4555280000000  0.4480880000000  0.4482410000000 1.0
C      1  0.5396660000000  0.5517180000000  0.5523330000000 1.0
C      1  0.4499130000000  0.5465470000000  0.4508730000000 1.0
C      1  0.4649760000000  0.4881830000000  0.5463010000000 1.0
C      1  0.5292580000000  0.4901630000000  0.4504810000000 1.0
C      1  0.4592500000000  0.5141680000000  0.5546560000000 1.0
C      1  0.5390000000000  0.5147450000000  0.4439780000000 1.0
C      1  0.4761540000000  0.4927370000000  0.4352570000000 1.0
C      1  0.5355310000000  0.4874550000000  0.5790670000000 1.0
C      1  0.4634410000000  0.5139420000000  0.4197610000000 1.0
C      1  0.5197900000000  0.5094480000000  0.5669630000000 1.0
C      1  0.4623990000000  0.5798360000000  0.5075740000000 1.0
C      1  0.5396380000000  0.5791470000000  0.4906990000000 1.0
C      1  0.4603700000000  0.4199600000000  0.5092840000000 1.0
C      1  0.5393230000000  0.4203230000000  0.4905450000000 1.0
C      1  0.4646510000000  0.5536700000000  0.5489480000000 1.0
C      1  0.5361840000000  0.5532790000000  0.4504040000000 1.0
C      1  0.4606880000000  0.4450910000000  0.5509600000000 1.0
C      1  0.5366020000000  0.4453540000000  0.4499040000000 1.0
C      1  0.5222520000000  0.4627980000000  0.5765390000000 1.0
C      1  0.4740590000000  0.4678910000000  0.4199110000000 1.0
C      1  0.5277730000000  0.5321000000000  0.5845940000000 1.0
C      1  0.4788510000000  0.5366770000000  0.4226980000000 1.0
C      1  0.4237970000000  0.5037620000000  0.4814240000000 1.0
C      1  0.5744730000000  0.4970970000000  0.5176350000000 1.0
C      1  0.5218410000000  0.4957350000000  0.4983440000000 1.0
END
