TITL C-2441163-1170-244 0.0896230920105185 125000 -17819.218222896 0 0 135 (C1) n - 1
REM
REM in /home/bkarasulu/work/CARBON/AIRSS/Generating-Clusters/ReaxFF-fromJPCA2015/Units_Real/with-SteepDescent/Higher-Symm
REM
REM
REM
REM
REM
REM ./C.cell (1df0a924f5614ab8850e4351716899ee)
REM
REM compiler GCC version 9.2.1 20190827 (Red Hat 9.2.1-1)
REM options -cpp -mtune=generic -march=x86-64 -g -O0 -fpre-include=/usr/include/finclude/math-vector-fortran.h
REM seed -611261948 -1796839811 -1963702327 -1160490442 992315532 760006517 126429718 2050194791 1823153737 1666624390 1343273795 1499451511 49905497 -1305316574 636562974 1027025378 1754635587 -1253028689 -2017190275 -1996536571 -936946719 1523552077 71389291 226674587 -76201421 1194324360 -1529927691 -944549417 251578630 2096465995 -1487278353 -619712610 -1154281250
REM
CELL 1.54180   50.00000   50.00000   50.00000   90.00000   90.00000   90.00000
LATT -1
SFAC C  
C      1  0.5203660000000  0.5177310000000  0.5891240000000 1.0
C      1  0.4120430000000  0.5116020000000  0.4703780000000 1.0
C      1  0.5708820000000  0.5097970000000  0.4462400000000 1.0
C      1  0.4783140000000  0.4805420000000  0.5910710000000 1.0
C      1  0.5849570000000  0.4803520000000  0.4711930000000 1.0
C      1  0.4315250000000  0.4867570000000  0.4372930000000 1.0
C      1  0.6032520000000  0.4996560000000  0.4812500000000 1.0
C      1  0.4714460000000  0.5122170000000  0.6005540000000 1.0
C      1  0.4269380000000  0.5146660000000  0.4280050000000 1.0
C      1  0.4012740000000  0.4838960000000  0.4697420000000 1.0
C      1  0.5265090000000  0.4872540000000  0.5932890000000 1.0
C      1  0.5697640000000  0.4857030000000  0.4303710000000 1.0
C      1  0.4790840000000  0.4845570000000  0.4854340000000 1.0
C      1  0.5254700000000  0.4890110000000  0.4973260000000 1.0
C      1  0.4947700000000  0.4853590000000  0.5263240000000 1.0
C      1  0.5202350000000  0.5053230000000  0.4758070000000 1.0
C      1  0.4749180000000  0.5223150000000  0.4994800000000 1.0
C      1  0.5098820000000  0.5075660000000  0.5328910000000 1.0
C      1  0.4677020000000  0.4721430000000  0.4148100000000 1.0
C      1  0.5941130000000  0.4731390000000  0.5100430000000 1.0
C      1  0.4402710000000  0.4723630000000  0.5725950000000 1.0
C      1  0.5344020000000  0.5290470000000  0.4137610000000 1.0
C      1  0.4070410000000  0.5307800000000  0.5157840000000 1.0
C      1  0.5597340000000  0.5274980000000  0.5770090000000 1.0
C      1  0.4927950000000  0.4212250000000  0.4707200000000 1.0
C      1  0.5289320000000  0.4218790000000  0.5082210000000 1.0
C      1  0.4798790000000  0.4223610000000  0.5214110000000 1.0
C      1  0.5067140000000  0.5808640000000  0.4693810000000 1.0
C      1  0.4713640000000  0.5762250000000  0.5063590000000 1.0
C      1  0.5190640000000  0.5813500000000  0.5200310000000 1.0
C      1  0.4330850000000  0.5172520000000  0.5147190000000 1.0
C      1  0.5228570000000  0.5200940000000  0.4386100000000 1.0
C      1  0.5583980000000  0.5166320000000  0.5518010000000 1.0
C      1  0.5662100000000  0.4825960000000  0.5139230000000 1.0
C      1  0.4825620000000  0.4853480000000  0.4382200000000 1.0
C      1  0.4438050000000  0.4652100000000  0.5448960000000 1.0
C      1  0.5641510000000  0.4921740000000  0.4879530000000 1.0
C      1  0.4809330000000  0.4951870000000  0.5638050000000 1.0
C      1  0.4563390000000  0.4884500000000  0.4513640000000 1.0
C      1  0.4355240000000  0.5096590000000  0.4872180000000 1.0
C      1  0.5035990000000  0.5134600000000  0.5597090000000 1.0
C      1  0.5421660000000  0.5171220000000  0.4587650000000 1.0
C      1  0.4159210000000  0.4854180000000  0.5647510000000 1.0
C      1  0.4843070000000  0.4862070000000  0.3956280000000 1.0
C      1  0.6008630000000  0.4850660000000  0.5358880000000 1.0
C      1  0.5841990000000  0.5122080000000  0.5636160000000 1.0
C      1  0.5166140000000  0.5129300000000  0.3965870000000 1.0
C      1  0.4022510000000  0.5154720000000  0.5405180000000 1.0
C      1  0.4491840000000  0.5324890000000  0.5339100000000 1.0
C      1  0.4983690000000  0.5354770000000  0.4441270000000 1.0
C      1  0.5523220000000  0.5292390000000  0.5253070000000 1.0
C      1  0.5472030000000  0.4649090000000  0.5286830000000 1.0
C      1  0.5031860000000  0.4627650000000  0.4436830000000 1.0
C      1  0.4511040000000  0.4717600000000  0.5174000000000 1.0
C      1  0.4486170000000  0.4381990000000  0.5425110000000 1.0
C      1  0.4956430000000  0.4379250000000  0.4299810000000 1.0
C      1  0.5629920000000  0.4395990000000  0.5299870000000 1.0
C      1  0.5484100000000  0.5570420000000  0.5393140000000 1.0
C      1  0.5032400000000  0.5609590000000  0.4286920000000 1.0
C      1  0.4389750000000  0.5599230000000  0.5326510000000 1.0
C      1  0.4383130000000  0.5554830000000  0.4860980000000 1.0
C      1  0.5418590000000  0.5638700000000  0.4502020000000 1.0
C      1  0.5244230000000  0.5585180000000  0.5559270000000 1.0
C      1  0.5605210000000  0.4454210000000  0.4864830000000 1.0
C      1  0.4580030000000  0.4444900000000  0.4540740000000 1.0
C      1  0.4740240000000  0.4433080000000  0.5584080000000 1.0
C      1  0.5483160000000  0.5788320000000  0.5200650000000 1.0
C      1  0.4601300000000  0.5807670000000  0.5323220000000 1.0
C      1  0.4885930000000  0.5788290000000  0.4461920000000 1.0
C      1  0.4504380000000  0.4240690000000  0.5177360000000 1.0
C      1  0.5401060000000  0.4218630000000  0.5351620000000 1.0
C      1  0.5104160000000  0.4197100000000  0.4474880000000 1.0
C      1  0.4544670000000  0.5302720000000  0.4824390000000 1.0
C      1  0.5479400000000  0.5433810000000  0.4680970000000 1.0
C      1  0.5005070000000  0.5400100000000  0.5537350000000 1.0
C      1  0.5439800000000  0.4715400000000  0.4830100000000 1.0
C      1  0.4594670000000  0.4686630000000  0.4713350000000 1.0
C      1  0.4884490000000  0.4713480000000  0.5495670000000 1.0
C      1  0.5381670000000  0.4271450000000  0.4551800000000 1.0
C      1  0.5195930000000  0.4289120000000  0.5557210000000 1.0
C      1  0.4422230000000  0.4287430000000  0.4891810000000 1.0
C      1  0.4608200000000  0.5714170000000  0.4543290000000 1.0
C      1  0.4803280000000  0.5788580000000  0.5539530000000 1.0
C      1  0.5552920000000  0.5795630000000  0.4915580000000 1.0
C      1  0.5149780000000  0.4480000000000  0.5082370000000 1.0
C      1  0.4847920000000  0.4489260000000  0.5081970000000 1.0
C      1  0.5000130000000  0.4475960000000  0.4821650000000 1.0
C      1  0.4865640000000  0.5485400000000  0.5073230000000 1.0
C      1  0.5137620000000  0.5566990000000  0.5052200000000 1.0
C      1  0.5031610000000  0.5535260000000  0.4789050000000 1.0
C      1  0.5446750000000  0.4210750000000  0.4830140000000 1.0
C      1  0.4930270000000  0.4219130000000  0.5478620000000 1.0
C      1  0.4631660000000  0.4206850000000  0.4701170000000 1.0
C      1  0.4554220000000  0.5790390000000  0.4824190000000 1.0
C      1  0.5075870000000  0.5829800000000  0.5464140000000 1.0
C      1  0.5359670000000  0.5847290000000  0.4698940000000 1.0
C      1  0.5559960000000  0.4470000000000  0.4413170000000 1.0
C      1  0.5218960000000  0.4492660000000  0.5775480000000 1.0
C      1  0.4220060000000  0.4475400000000  0.4767610000000 1.0
C      1  0.4414700000000  0.5516550000000  0.4429490000000 1.0
C      1  0.4803640000000  0.5530930000000  0.5686830000000 1.0
C      1  0.5694430000000  0.5564110000000  0.4808190000000 1.0
C      1  0.5798830000000  0.4636300000000  0.4471090000000 1.0
C      1  0.5056560000000  0.4677100000000  0.5945770000000 1.0
C      1  0.4165020000000  0.4659070000000  0.4528200000000 1.0
C      1  0.4185350000000  0.5319580000000  0.4496420000000 1.0
C      1  0.4955260000000  0.5241560000000  0.6018610000000 1.0
C      1  0.5930260000000  0.5193410000000  0.4629820000000 1.0
C      1  0.4055930000000  0.4860030000000  0.5366620000000 1.0
C      1  0.5134010000000  0.4837750000000  0.3994320000000 1.0
C      1  0.5825730000000  0.4830920000000  0.5577190000000 1.0
C      1  0.5996250000000  0.5167780000000  0.5326170000000 1.0
C      1  0.4873740000000  0.5158330000000  0.3994560000000 1.0
C      1  0.4218050000000  0.5137870000000  0.5627130000000 1.0
C      1  0.4051960000000  0.4648790000000  0.4929450000000 1.0
C      1  0.5475910000000  0.4666580000000  0.4221030000000 1.0
C      1  0.5428220000000  0.4687830000000  0.5784450000000 1.0
C      1  0.5912110000000  0.5379990000000  0.4874520000000 1.0
C      1  0.4497540000000  0.5338650000000  0.4217420000000 1.0
C      1  0.4620550000000  0.5344310000000  0.5833560000000 1.0
C      1  0.4617700000000  0.4575610000000  0.5823920000000 1.0
C      1  0.4674050000000  0.4454240000000  0.4259170000000 1.0
C      1  0.5808550000000  0.4458690000000  0.5076360000000 1.0
C      1  0.5371040000000  0.5436600000000  0.5775370000000 1.0
C      1  0.5314900000000  0.5568510000000  0.4236400000000 1.0
C      1  0.4208400000000  0.5559670000000  0.5099260000000 1.0
C      1  0.4522820000000  0.5178740000000  0.5597040000000 1.0
C      1  0.4776740000000  0.5255820000000  0.4251700000000 1.0
C      1  0.5791760000000  0.5217530000000  0.5088080000000 1.0
C      1  0.5553970000000  0.4741100000000  0.5554000000000 1.0
C      1  0.5217180000000  0.4729450000000  0.4237040000000 1.0
C      1  0.4221680000000  0.4768500000000  0.5138280000000 1.0
C      1  0.4709430000000  0.4957670000000  0.5137780000000 1.0
C      1  0.4950310000000  0.4984100000000  0.4668270000000 1.0
C      1  0.5306870000000  0.5101210000000  0.5158750000000 1.0
END
