TITL C-2441165-58-295 0.09874689192329 125000 -21906.4888665483 0 0 163 (C1) n - 1
REM
REM in /home/bkarasulu/work/CARBON/AIRSS/Generating-Clusters/ReaxFF-fromJPCA2015/Units_Real/with-SteepDescent/Higher-Symm
REM
REM
REM
REM
REM
REM ./C.cell (1df0a924f5614ab8850e4351716899ee)
REM
REM compiler GCC version 9.2.1 20190827 (Red Hat 9.2.1-1)
REM options -cpp -mtune=generic -march=x86-64 -g -O0 -fpre-include=/usr/include/finclude/math-vector-fortran.h
REM seed 304284280 -177143796 526007814 413149770 998648550 -1757847275 675300516 -1971499759 1775731418 -342095859 -624599922 771876198 -303993091 1945324788 -704406839 1561449867 1600499017 -1178666337 -327543560 1853516481 -171991447 667130703 1575882291 1254661654 -899998214 1209138081 -516625938 1724537702 -1852955076 597233150 -833446759 261530437 -974048494
REM
CELL 1.54180   50.00000   50.00000   50.00000   90.00000   90.00000   90.00000
LATT -1
SFAC C  
C      1  0.5712890000000  0.5826150000000  0.4803840000000 1.0
C      1  0.5833260000000  0.4956900000000  0.5706690000000 1.0
C      1  0.4954610000000  0.5759830000000  0.5835720000000 1.0
C      1  0.5693220000000  0.4248270000000  0.5152750000000 1.0
C      1  0.4295510000000  0.5775240000000  0.5070710000000 1.0
C      1  0.4253000000000  0.4276550000000  0.4822330000000 1.0
C      1  0.5838580000000  0.5169060000000  0.4240310000000 1.0
C      1  0.4223450000000  0.4825550000000  0.4200700000000 1.0
C      1  0.4221300000000  0.5134530000000  0.5722470000000 1.0
C      1  0.4853890000000  0.4345870000000  0.4232970000000 1.0
C      1  0.5200010000000  0.5747130000000  0.4204020000000 1.0
C      1  0.5135840000000  0.4244050000000  0.5882990000000 1.0
C      1  0.5740810000000  0.5565940000000  0.4712350000000 1.0
C      1  0.5621700000000  0.4775230000000  0.5706070000000 1.0
C      1  0.4792200000000  0.5539780000000  0.5533730000000 1.0
C      1  0.5748800000000  0.4493450000000  0.5276940000000 1.0
C      1  0.4472280000000  0.5556610000000  0.5198740000000 1.0
C      1  0.4480550000000  0.4445440000000  0.4772490000000 1.0
C      1  0.5573270000000  0.5316740000000  0.4266490000000 1.0
C      1  0.4457710000000  0.4674540000000  0.4314500000000 1.0
C      1  0.4408900000000  0.5291860000000  0.5561430000000 1.0
C      1  0.4828080000000  0.4435910000000  0.4501140000000 1.0
C      1  0.5306800000000  0.5735120000000  0.4467630000000 1.0
C      1  0.5350260000000  0.4310360000000  0.5536080000000 1.0
C      1  0.4615180000000  0.6027000000000  0.4960270000000 1.0
C      1  0.5844060000000  0.4994040000000  0.4653320000000 1.0
C      1  0.4962150000000  0.4640760000000  0.5954220000000 1.0
C      1  0.4604350000000  0.4016200000000  0.5071140000000 1.0
C      1  0.5374510000000  0.5982140000000  0.5062720000000 1.0
C      1  0.5379510000000  0.3985250000000  0.4950690000000 1.0
C      1  0.5878180000000  0.4999670000000  0.5287160000000 1.0
C      1  0.3994670000000  0.4957310000000  0.5384000000000 1.0
C      1  0.4177180000000  0.5037920000000  0.4616460000000 1.0
C      1  0.4943130000000  0.5435140000000  0.4019980000000 1.0
C      1  0.5052210000000  0.4629920000000  0.4003950000000 1.0
C      1  0.5026360000000  0.5348750000000  0.6057270000000 1.0
C      1  0.5252510000000  0.4638520000000  0.5953280000000 1.0
C      1  0.4626120000000  0.6018560000000  0.5259970000000 1.0
C      1  0.5991710000000  0.5253370000000  0.4629260000000 1.0
C      1  0.5232530000000  0.5386370000000  0.3973990000000 1.0
C      1  0.4768250000000  0.4674030000000  0.3946260000000 1.0
C      1  0.4741820000000  0.5358320000000  0.6010350000000 1.0
C      1  0.4614810000000  0.3971450000000  0.4772510000000 1.0
C      1  0.5344070000000  0.6038920000000  0.4783020000000 1.0
C      1  0.5367440000000  0.3959650000000  0.5231390000000 1.0
C      1  0.5971340000000  0.4701170000000  0.5324690000000 1.0
C      1  0.3952430000000  0.5240290000000  0.5340270000000 1.0
C      1  0.4035970000000  0.4775230000000  0.4626370000000 1.0
C      1  0.5022610000000  0.5398320000000  0.4690890000000 1.0
C      1  0.5285630000000  0.4663850000000  0.4993950000000 1.0
C      1  0.4528420000000  0.4933390000000  0.5220750000000 1.0
C      1  0.4952950000000  0.4665020000000  0.5289050000000 1.0
C      1  0.5142270000000  0.5264910000000  0.5284910000000 1.0
C      1  0.5077940000000  0.4712140000000  0.4801830000000 1.0
C      1  0.5477130000000  0.5320130000000  0.4932050000000 1.0
C      1  0.4730750000000  0.4734650000000  0.5139710000000 1.0
C      1  0.4777210000000  0.5339470000000  0.4826150000000 1.0
C      1  0.4734770000000  0.5052380000000  0.4793920000000 1.0
C      1  0.5256830000000  0.5047030000000  0.4677390000000 1.0
C      1  0.5255960000000  0.5007640000000  0.5368560000000 1.0
C      1  0.4796340000000  0.5738740000000  0.4436880000000 1.0
C      1  0.5747710000000  0.4470100000000  0.4776580000000 1.0
C      1  0.4447390000000  0.4758430000000  0.5750500000000 1.0
C      1  0.4846390000000  0.4258550000000  0.5593270000000 1.0
C      1  0.5295070000000  0.5765930000000  0.5451990000000 1.0
C      1  0.5204630000000  0.4243550000000  0.4477460000000 1.0
C      1  0.5731830000000  0.5610650000000  0.5214440000000 1.0
C      1  0.4269170000000  0.4443980000000  0.5222340000000 1.0
C      1  0.4270550000000  0.5458860000000  0.4769880000000 1.0
C      1  0.4313530000000  0.5332320000000  0.4172970000000 1.0
C      1  0.5574120000000  0.4795040000000  0.4255800000000 1.0
C      1  0.5553530000000  0.5253890000000  0.5764160000000 1.0
C      1  0.4751220000000  0.5524710000000  0.5049560000000 1.0
C      1  0.5531810000000  0.5087780000000  0.4781840000000 1.0
C      1  0.5049060000000  0.4848440000000  0.5481440000000 1.0
C      1  0.4701220000000  0.4524240000000  0.4947360000000 1.0
C      1  0.5195690000000  0.5398640000000  0.5002190000000 1.0
C      1  0.5119960000000  0.4470760000000  0.5136080000000 1.0
C      1  0.5392560000000  0.4875140000000  0.5154500000000 1.0
C      1  0.4590780000000  0.5179330000000  0.5366640000000 1.0
C      1  0.4458270000000  0.4964220000000  0.4751130000000 1.0
C      1  0.5076130000000  0.5180500000000  0.4494420000000 1.0
C      1  0.4954580000000  0.4689510000000  0.4538410000000 1.0
C      1  0.4860660000000  0.5277600000000  0.5431490000000 1.0
C      1  0.4545020000000  0.5694150000000  0.4579790000000 1.0
C      1  0.5526700000000  0.4526380000000  0.4599360000000 1.0
C      1  0.4512620000000  0.4576920000000  0.5544390000000 1.0
C      1  0.4594510000000  0.4314590000000  0.5476160000000 1.0
C      1  0.5357700000000  0.5473480000000  0.5441120000000 1.0
C      1  0.5400350000000  0.4299190000000  0.4664930000000 1.0
C      1  0.5644030000000  0.5418910000000  0.5400390000000 1.0
C      1  0.4330520000000  0.4699130000000  0.5364370000000 1.0
C      1  0.4463590000000  0.5440260000000  0.4587530000000 1.0
C      1  0.4541440000000  0.5272740000000  0.4356510000000 1.0
C      1  0.5411660000000  0.4566970000000  0.4339670000000 1.0
C      1  0.5374490000000  0.5476240000000  0.5735000000000 1.0
C      1  0.5622790000000  0.5843430000000  0.5086560000000 1.0
C      1  0.5785230000000  0.5227830000000  0.5580350000000 1.0
C      1  0.5157730000000  0.5561180000000  0.5909940000000 1.0
C      1  0.5625490000000  0.4196820000000  0.4859080000000 1.0
C      1  0.4434760000000  0.5837730000000  0.4820990000000 1.0
C      1  0.4457300000000  0.4227850000000  0.5246780000000 1.0
C      1  0.5819860000000  0.4906750000000  0.4366470000000 1.0
C      1  0.4166590000000  0.5097350000000  0.4296110000000 1.0
C      1  0.4182570000000  0.4854410000000  0.5644390000000 1.0
C      1  0.5186970000000  0.4395610000000  0.4228500000000 1.0
C      1  0.4912950000000  0.5684370000000  0.4185750000000 1.0
C      1  0.4877400000000  0.4366100000000  0.5867300000000 1.0
C      1  0.5744520000000  0.4639320000000  0.5007490000000 1.0
C      1  0.4637550000000  0.4962740000000  0.5770410000000 1.0
C      1  0.5039860000000  0.5724370000000  0.4591050000000 1.0
C      1  0.5738510000000  0.5447700000000  0.4974910000000 1.0
C      1  0.4107140000000  0.4454650000000  0.4992790000000 1.0
C      1  0.4293940000000  0.5338260000000  0.5013150000000 1.0
C      1  0.4634130000000  0.4982360000000  0.4313820000000 1.0
C      1  0.5440160000000  0.5054230000000  0.4223820000000 1.0
C      1  0.5425330000000  0.4995600000000  0.5705320000000 1.0
C      1  0.5088100000000  0.4235170000000  0.5447040000000 1.0
C      1  0.4975820000000  0.5786300000000  0.5533770000000 1.0
C      1  0.4969400000000  0.4244460000000  0.4660950000000 1.0
C      1  0.4659610000000  0.5079280000000  0.6015140000000 1.0
C      1  0.5070010000000  0.5999980000000  0.4704290000000 1.0
C      1  0.6026270000000  0.4659950000000  0.5004090000000 1.0
C      1  0.4675410000000  0.4958220000000  0.4002690000000 1.0
C      1  0.5300310000000  0.5095370000000  0.3965190000000 1.0
C      1  0.5318620000000  0.4919290000000  0.5969770000000 1.0
C      1  0.5087720000000  0.3977330000000  0.5310570000000 1.0
C      1  0.4894200000000  0.5991350000000  0.5351900000000 1.0
C      1  0.4893800000000  0.3934920000000  0.4697220000000 1.0
C      1  0.6006110000000  0.5314740000000  0.4911830000000 1.0
C      1  0.3958390000000  0.4693890000000  0.4906790000000 1.0
C      1  0.3987370000000  0.5343740000000  0.5051440000000 1.0
C      1  0.3963100000000  0.5203000000000  0.4802280000000 1.0
C      1  0.5127600000000  0.4877690000000  0.3946490000000 1.0
C      1  0.4859560000000  0.3958110000000  0.5152490000000 1.0
C      1  0.3966920000000  0.4843000000000  0.5145430000000 1.0
C      1  0.6071480000000  0.5094200000000  0.5084840000000 1.0
C      1  0.6061350000000  0.4907700000000  0.4862710000000 1.0
C      1  0.5108480000000  0.5069710000000  0.6096790000000 1.0
C      1  0.4874770000000  0.4893730000000  0.6087090000000 1.0
C      1  0.4809530000000  0.5191680000000  0.3991130000000 1.0
C      1  0.4892790000000  0.6078100000000  0.4906270000000 1.0
C      1  0.5131550000000  0.3928830000000  0.4845080000000 1.0
C      1  0.5065430000000  0.5936300000000  0.5125100000000 1.0
C      1  0.5859400000000  0.5408710000000  0.4418310000000 1.0
C      1  0.5371680000000  0.4388480000000  0.5817600000000 1.0
C      1  0.4419310000000  0.5826840000000  0.5324450000000 1.0
C      1  0.5882010000000  0.4691460000000  0.5608110000000 1.0
C      1  0.4118870000000  0.5350060000000  0.5553790000000 1.0
C      1  0.4160780000000  0.4637920000000  0.4409480000000 1.0
C      1  0.5405430000000  0.5560800000000  0.4114570000000 1.0
C      1  0.4630460000000  0.4497090000000  0.4133640000000 1.0
C      1  0.4731850000000  0.5571690000000  0.5809160000000 1.0
C      1  0.4462020000000  0.4187590000000  0.4652190000000 1.0
C      1  0.5522600000000  0.5896720000000  0.4595020000000 1.0
C      1  0.5536870000000  0.4150140000000  0.5370200000000 1.0
C      1  0.4867020000000  0.5021510000000  0.5617300000000 1.0
C      1  0.5012640000000  0.5628090000000  0.5060800000000 1.0
C      1  0.5662580000000  0.4939860000000  0.5088590000000 1.0
C      1  0.4904260000000  0.4951140000000  0.4424090000000 1.0
C      1  0.4933620000000  0.4365040000000  0.4939990000000 1.0
C      1  0.4383760000000  0.5056020000000  0.5005020000000 1.0
C      1  0.5016170000000  0.4969020000000  0.4827140000000 1.0
END
