TITL C-2441162-9305-787 0.0265259419093428 125000 -18706.2337614223 0 0 122 (C1) n - 1
REM
REM in /home/bkarasulu/work/CARBON/AIRSS/Generating-Clusters/ReaxFF-fromJPCA2015/Units_Real/with-SteepDescent/Higher-Symm
REM
REM
REM
REM
REM
REM ./C.cell (1df0a924f5614ab8850e4351716899ee)
REM
REM compiler GCC version 9.2.1 20190827 (Red Hat 9.2.1-1)
REM options -cpp -mtune=generic -march=x86-64 -g -O0 -fpre-include=/usr/include/finclude/math-vector-fortran.h
REM seed -172939490 -280586503 -1346575456 1633856829 1710167022 1798137852 557840199 -302117987 -1740512817 -920003253 77507120 -1280716221 -2001302319 -1818292695 604501222 256872322 146684488 1968879710 268548649 -129606288 1777968611 846295894 1573094311 -45198481 635564844 -210674800 -123485927 545542060 985058197 1144240504 -158161067 904929819 -2089993375
REM
CELL 1.54180   50.00000   50.00000   50.00000   90.00000   90.00000   90.00000
LATT -1
SFAC C  
C      1  0.5572520000000  0.4459010000000  0.4543640000000 1.0
C      1  0.4879380000000  0.4459470000000  0.4281410000000 1.0
C      1  0.4310110000000  0.4458390000000  0.4744470000000 1.0
C      1  0.4430600000000  0.4453730000000  0.5469840000000 1.0
C      1  0.5117870000000  0.4451470000000  0.5735270000000 1.0
C      1  0.5699980000000  0.4454240000000  0.5273580000000 1.0
C      1  0.5575840000000  0.5538370000000  0.4543710000000 1.0
C      1  0.4887570000000  0.5555740000000  0.4294150000000 1.0
C      1  0.4310010000000  0.5521810000000  0.4741510000000 1.0
C      1  0.4430530000000  0.5536380000000  0.5468970000000 1.0
C      1  0.5120370000000  0.5538320000000  0.5736120000000 1.0
C      1  0.5694760000000  0.5531680000000  0.5271320000000 1.0
C      1  0.4741330000000  0.4726710000000  0.5801210000000 1.0
C      1  0.5564830000000  0.4725770000000  0.5630300000000 1.0
C      1  0.5801470000000  0.4730590000000  0.4848330000000 1.0
C      1  0.5262140000000  0.4731510000000  0.4223920000000 1.0
C      1  0.4432530000000  0.4728500000000  0.4382740000000 1.0
C      1  0.4171540000000  0.4722940000000  0.5186990000000 1.0
C      1  0.4745470000000  0.5267270000000  0.5802860000000 1.0
C      1  0.5565340000000  0.5263760000000  0.5626490000000 1.0
C      1  0.5828600000000  0.5267180000000  0.4841370000000 1.0
C      1  0.5257190000000  0.5252090000000  0.4225820000000 1.0
C      1  0.4381740000000  0.5282360000000  0.4338680000000 1.0
C      1  0.4174620000000  0.5265240000000  0.5183160000000 1.0
C      1  0.5672080000000  0.5292160000000  0.4393720000000 1.0
C      1  0.4806090000000  0.5265960000000  0.4186510000000 1.0
C      1  0.4126130000000  0.5290410000000  0.4730570000000 1.0
C      1  0.4332170000000  0.5295400000000  0.5614900000000 1.0
C      1  0.5197310000000  0.5295790000000  0.5894850000000 1.0
C      1  0.5866620000000  0.5288890000000  0.5276180000000 1.0
C      1  0.5670270000000  0.4696510000000  0.4400710000000 1.0
C      1  0.4798470000000  0.4695750000000  0.4118210000000 1.0
C      1  0.4132690000000  0.4698630000000  0.4730310000000 1.0
C      1  0.4332490000000  0.4695470000000  0.5616790000000 1.0
C      1  0.5194480000000  0.4695660000000  0.5895410000000 1.0
C      1  0.5881630000000  0.4696140000000  0.5282060000000 1.0
C      1  0.5159760000000  0.5788530000000  0.4763840000000 1.0
C      1  0.4834390000000  0.5803110000000  0.4738420000000 1.0
C      1  0.4698290000000  0.5772970000000  0.4993240000000 1.0
C      1  0.4846370000000  0.5765980000000  0.5251600000000 1.0
C      1  0.5142360000000  0.5775920000000  0.5273620000000 1.0
C      1  0.5316690000000  0.5804970000000  0.5040860000000 1.0
C      1  0.5157880000000  0.4215570000000  0.4758670000000 1.0
C      1  0.4838970000000  0.4189460000000  0.4733490000000 1.0
C      1  0.4701420000000  0.4217260000000  0.4988980000000 1.0
C      1  0.4845810000000  0.4225740000000  0.5246700000000 1.0
C      1  0.5140920000000  0.4217580000000  0.5269280000000 1.0
C      1  0.5313430000000  0.4194450000000  0.5036290000000 1.0
C      1  0.4172560000000  0.5133790000000  0.5444540000000 1.0
C      1  0.4967720000000  0.5136130000000  0.5940800000000 1.0
C      1  0.5793090000000  0.5137020000000  0.5497600000000 1.0
C      1  0.5827040000000  0.5134390000000  0.4570520000000 1.0
C      1  0.5036490000000  0.5132090000000  0.4078790000000 1.0
C      1  0.4186590000000  0.5136510000000  0.4494270000000 1.0
C      1  0.4171450000000  0.4854000000000  0.5446570000000 1.0
C      1  0.4966020000000  0.4856030000000  0.5941920000000 1.0
C      1  0.5799050000000  0.4856950000000  0.5503940000000 1.0
C      1  0.5822460000000  0.4851420000000  0.4569930000000 1.0
C      1  0.5031000000000  0.4852470000000  0.4063710000000 1.0
C      1  0.4198200000000  0.4854200000000  0.4505130000000 1.0
C      1  0.4473610000000  0.4848730000000  0.5810330000000 1.0
C      1  0.5438760000000  0.4848690000000  0.5875730000000 1.0
C      1  0.5981260000000  0.4852860000000  0.5066170000000 1.0
C      1  0.5533830000000  0.4842240000000  0.4203600000000 1.0
C      1  0.4549330000000  0.4846190000000  0.4131790000000 1.0
C      1  0.4025980000000  0.4846220000000  0.4954220000000 1.0
C      1  0.4472580000000  0.5138870000000  0.5814510000000 1.0
C      1  0.5440780000000  0.5141350000000  0.5873710000000 1.0
C      1  0.5991340000000  0.5142430000000  0.5061100000000 1.0
C      1  0.5535160000000  0.5134980000000  0.4194100000000 1.0
C      1  0.4536970000000  0.5139000000000  0.4139800000000 1.0
C      1  0.4026910000000  0.5138180000000  0.4954140000000 1.0
C      1  0.5295840000000  0.4855810000000  0.5476400000000 1.0
C      1  0.5569250000000  0.4862270000000  0.4980160000000 1.0
C      1  0.5255610000000  0.4859750000000  0.4509010000000 1.0
C      1  0.4688790000000  0.4874630000000  0.4520890000000 1.0
C      1  0.4441520000000  0.4859140000000  0.5038880000000 1.0
C      1  0.4761990000000  0.4863150000000  0.5497520000000 1.0
C      1  0.5288950000000  0.5133720000000  0.5479740000000 1.0
C      1  0.5581290000000  0.5134930000000  0.5028240000000 1.0
C      1  0.5265040000000  0.5129290000000  0.4506740000000 1.0
C      1  0.4778190000000  0.5118800000000  0.4474860000000 1.0
C      1  0.4445470000000  0.5136280000000  0.5026730000000 1.0
C      1  0.4746180000000  0.5132180000000  0.5492720000000 1.0
C      1  0.4708870000000  0.5248810000000  0.4997360000000 1.0
C      1  0.4856650000000  0.5257410000000  0.5247020000000 1.0
C      1  0.5146550000000  0.5250170000000  0.5257000000000 1.0
C      1  0.5285370000000  0.5152530000000  0.5014470000000 1.0
C      1  0.5163230000000  0.5234100000000  0.4757360000000 1.0
C      1  0.4869830000000  0.5163610000000  0.4750790000000 1.0
C      1  0.4704780000000  0.4746170000000  0.5017580000000 1.0
C      1  0.4869460000000  0.4734690000000  0.5256440000000 1.0
C      1  0.5160150000000  0.4740160000000  0.5249320000000 1.0
C      1  0.5289710000000  0.4833340000000  0.5000980000000 1.0
C      1  0.5139630000000  0.4764120000000  0.4755760000000 1.0
C      1  0.4841960000000  0.4847010000000  0.4768800000000 1.0
C      1  0.5534150000000  0.4443890000000  0.5503680000000 1.0
C      1  0.5690450000000  0.4446350000000  0.4802890000000 1.0
C      1  0.5164240000000  0.4445590000000  0.4305850000000 1.0
C      1  0.4468400000000  0.4450720000000  0.4511070000000 1.0
C      1  0.4304990000000  0.4445030000000  0.5216660000000 1.0
C      1  0.4836010000000  0.4443830000000  0.5707370000000 1.0
C      1  0.5532960000000  0.5542240000000  0.5503050000000 1.0
C      1  0.5695740000000  0.5542270000000  0.4803460000000 1.0
C      1  0.5168790000000  0.5558490000000  0.4305130000000 1.0
C      1  0.4462150000000  0.5515750000000  0.4499610000000 1.0
C      1  0.4303760000000  0.5543970000000  0.5214710000000 1.0
C      1  0.4837740000000  0.5545050000000  0.5709530000000 1.0
C      1  0.5320840000000  0.5674930000000  0.4512200000000 1.0
C      1  0.4720670000000  0.5663960000000  0.4501650000000 1.0
C      1  0.4422820000000  0.5654200000000  0.4979850000000 1.0
C      1  0.4699480000000  0.5659910000000  0.5485060000000 1.0
C      1  0.5272890000000  0.5661730000000  0.5518010000000 1.0
C      1  0.5581300000000  0.5666710000000  0.5036830000000 1.0
C      1  0.5314250000000  0.4332110000000  0.4514600000000 1.0
C      1  0.4726200000000  0.4327660000000  0.4497500000000 1.0
C      1  0.4424740000000  0.4331820000000  0.4983060000000 1.0
C      1  0.4698700000000  0.4329280000000  0.5483080000000 1.0
C      1  0.5271280000000  0.4327940000000  0.5516120000000 1.0
C      1  0.5580770000000  0.4323300000000  0.5035990000000 1.0
C      1  0.5073370000000  0.4487740000000  0.4880050000000 1.0
C      1  0.5083990000000  0.5513790000000  0.4874340000000 1.0
END
