TITL C-2441156-4686-861 0.0106272451784728 125000 -10214.2526670302 0 0 68 (C1) n - 1
REM
REM in /home/bkarasulu/work/CARBON/AIRSS/Generating-Clusters/ReaxFF-fromJPCA2015/Units_Real/with-SteepDescent/Higher-Symm
REM
REM
REM
REM
REM
REM ./C.cell (1df0a924f5614ab8850e4351716899ee)
REM
REM compiler GCC version 9.2.1 20190827 (Red Hat 9.2.1-1)
REM options -cpp -mtune=generic -march=x86-64 -g -O0 -fpre-include=/usr/include/finclude/math-vector-fortran.h
REM seed 1427667515 440409246 -249283090 -1665784122 240879366 -1311542210 -556559456 1717764190 311448668 -929933855 87849617 -77455095 -1502499371 1028250564 -1275336292 -322462517 1745132149 -700608108 1497908834 -2117378932 -1465159835 1840644654 80306475 1249843743 764952064 1909331597 881169330 572520494 -854798901 -2100808347 -1129905657 -352988211 -531971854
REM
CELL 1.54180   50.00000   50.00000   50.00000   90.00000   90.00000   90.00000
LATT -1
SFAC C  
C      1  0.5194100000000  0.4357080000000  0.5086740000000 1.0
C      1  0.5083860000000  0.4358860000000  0.4802220000000 1.0
C      1  0.4804260000000  0.4360060000000  0.4912440000000 1.0
C      1  0.4913670000000  0.4357860000000  0.5196370000000 1.0
C      1  0.5211670000000  0.4943950000000  0.5772840000000 1.0
C      1  0.5765290000000  0.4949010000000  0.4791880000000 1.0
C      1  0.4788820000000  0.4943820000000  0.4225660000000 1.0
C      1  0.4226360000000  0.4946000000000  0.5208280000000 1.0
C      1  0.5669020000000  0.4958070000000  0.5064510000000 1.0
C      1  0.5068780000000  0.4954100000000  0.4293160000000 1.0
C      1  0.4297120000000  0.4950670000000  0.4927940000000 1.0
C      1  0.4931580000000  0.4954770000000  0.5706040000000 1.0
C      1  0.4460290000000  0.5170290000000  0.4456140000000 1.0
C      1  0.4453870000000  0.5172370000000  0.5540110000000 1.0
C      1  0.5540350000000  0.5171320000000  0.5543810000000 1.0
C      1  0.5547300000000  0.5172710000000  0.4459940000000 1.0
C      1  0.5375910000000  0.5539380000000  0.4922420000000 1.0
C      1  0.4922660000000  0.5536060000000  0.4624860000000 1.0
C      1  0.4624310000000  0.5537630000000  0.5077850000000 1.0
C      1  0.5077490000000  0.5537460000000  0.5375880000000 1.0
C      1  0.4421910000000  0.4876980000000  0.4501680000000 1.0
C      1  0.4500100000000  0.4880440000000  0.5577300000000 1.0
C      1  0.5576910000000  0.4878010000000  0.5496680000000 1.0
C      1  0.5500950000000  0.4880440000000  0.4423360000000 1.0
C      1  0.5374060000000  0.4735890000000  0.5649010000000 1.0
C      1  0.5645760000000  0.4738480000000  0.4630650000000 1.0
C      1  0.4624580000000  0.4736230000000  0.4348180000000 1.0
C      1  0.4355250000000  0.4739620000000  0.5368310000000 1.0
C      1  0.4359610000000  0.5407880000000  0.5113920000000 1.0
C      1  0.5115150000000  0.5407440000000  0.5640080000000 1.0
C      1  0.5641870000000  0.5413810000000  0.4884020000000 1.0
C      1  0.4885500000000  0.5406710000000  0.4360380000000 1.0
C      1  0.4815150000000  0.5056630000000  0.5070100000000 1.0
C      1  0.5077810000000  0.5047330000000  0.5199640000000 1.0
C      1  0.5215650000000  0.5047950000000  0.4936320000000 1.0
C      1  0.4948890000000  0.5044880000000  0.4806670000000 1.0
C      1  0.4744070000000  0.4587410000000  0.4570320000000 1.0
C      1  0.4570450000000  0.4601920000000  0.5223000000000 1.0
C      1  0.5252880000000  0.4583270000000  0.5430790000000 1.0
C      1  0.5432570000000  0.4595620000000  0.4776370000000 1.0
C      1  0.4395580000000  0.4735920000000  0.4754290000000 1.0
C      1  0.4757460000000  0.4746040000000  0.5596710000000 1.0
C      1  0.5598370000000  0.4737570000000  0.5244270000000 1.0
C      1  0.5243020000000  0.4746120000000  0.4404400000000 1.0
C      1  0.5211020000000  0.5521710000000  0.4682860000000 1.0
C      1  0.4683040000000  0.5522720000000  0.4789890000000 1.0
C      1  0.4789080000000  0.5522750000000  0.5317750000000 1.0
C      1  0.5317140000000  0.5524880000000  0.5211030000000 1.0
C      1  0.4564180000000  0.4478070000000  0.4770530000000 1.0
C      1  0.4772210000000  0.4510070000000  0.5410040000000 1.0
C      1  0.5433320000000  0.4475740000000  0.5230020000000 1.0
C      1  0.5227150000000  0.4509440000000  0.4589140000000 1.0
C      1  0.4458120000000  0.5369030000000  0.4669030000000 1.0
C      1  0.4669210000000  0.5368960000000  0.5542420000000 1.0
C      1  0.5542050000000  0.5374080000000  0.5334630000000 1.0
C      1  0.5330980000000  0.5367980000000  0.4458020000000 1.0
C      1  0.4303700000000  0.5246820000000  0.4879570000000 1.0
C      1  0.4879910000000  0.5249290000000  0.5699370000000 1.0
C      1  0.5689990000000  0.5251490000000  0.5119580000000 1.0
C      1  0.5120600000000  0.5248360000000  0.4300630000000 1.0
C      1  0.4716780000000  0.4788300000000  0.5032090000000 1.0
C      1  0.5139320000000  0.4760520000000  0.5217350000000 1.0
C      1  0.5285300000000  0.4772660000000  0.4969950000000 1.0
C      1  0.4854840000000  0.4767950000000  0.4781580000000 1.0
C      1  0.4275460000000  0.5216000000000  0.5318300000000 1.0
C      1  0.5319820000000  0.5214620000000  0.5722580000000 1.0
C      1  0.5725680000000  0.5220130000000  0.4680900000000 1.0
C      1  0.4680850000000  0.5214350000000  0.4277230000000 1.0
END
