TITL C-2441157-2117-1433 0.00407810218724995 125000 -6256.10535228626 0 0 48 (C1) n - 1
REM
REM in /home/bkarasulu/work/CARBON/AIRSS/Generating-Clusters/ReaxFF-fromJPCA2015/Units_Real/with-SteepDescent/Higher-Symm
REM
REM
REM
REM
REM
REM ./C.cell (1df0a924f5614ab8850e4351716899ee)
REM
REM compiler GCC version 9.2.1 20190827 (Red Hat 9.2.1-1)
REM options -cpp -mtune=generic -march=x86-64 -g -O0 -fpre-include=/usr/include/finclude/math-vector-fortran.h
REM seed -441297688 -676019248 -1893049784 629054053 -158090922 -1116037580 -1668492238 -978668856 1928634423 241605881 999795837 1581218710 -12275254 587978534 -1305176967 -817292889 -1135386979 762620822 -411181979 -609429107 -2095260122 -1860661205 -1298278930 2125136090 -520657062 -350093587 1308328437 -793932565 145226214 -787552163 1165199448 -532146588 1774414207
REM
CELL 1.54180   50.00000   50.00000   50.00000   90.00000   90.00000   90.00000
LATT -1
SFAC C  
C      1  0.5112630000000  0.4538900000000  0.5208470000000 1.0
C      1  0.4654010000000  0.4668680000000  0.5233320000000 1.0
C      1  0.4531750000000  0.5127920000000  0.5218910000000 1.0
C      1  0.4887640000000  0.5461470000000  0.5207850000000 1.0
C      1  0.5345870000000  0.5332040000000  0.5233130000000 1.0
C      1  0.5468430000000  0.4871110000000  0.5218150000000 1.0
C      1  0.4919670000000  0.5325700000000  0.4719000000000 1.0
C      1  0.5214420000000  0.5222390000000  0.4733140000000 1.0
C      1  0.5386770000000  0.4955940000000  0.4732960000000 1.0
C      1  0.5097750000000  0.4649060000000  0.4732020000000 1.0
C      1  0.4775050000000  0.4783760000000  0.4729430000000 1.0
C      1  0.4609780000000  0.5044000000000  0.4732700000000 1.0
C      1  0.5461100000000  0.4919080000000  0.5522390000000 1.0
C      1  0.5116140000000  0.4604970000000  0.5491320000000 1.0
C      1  0.4786690000000  0.4649310000000  0.5506650000000 1.0
C      1  0.4539110000000  0.5079980000000  0.5522660000000 1.0
C      1  0.4882730000000  0.5394320000000  0.5489650000000 1.0
C      1  0.5212100000000  0.5352460000000  0.5506370000000 1.0
C      1  0.4809270000000  0.4438470000000  0.4527070000000 1.0
C      1  0.4440080000000  0.4902900000000  0.4542130000000 1.0
C      1  0.4588450000000  0.5451410000000  0.4519370000000 1.0
C      1  0.5188000000000  0.5565480000000  0.4526760000000 1.0
C      1  0.5556930000000  0.5104410000000  0.4542490000000 1.0
C      1  0.5416220000000  0.4551550000000  0.4511600000000 1.0
C      1  0.4634680000000  0.5370100000000  0.5091210000000 1.0
C      1  0.5165870000000  0.5499510000000  0.5084590000000 1.0
C      1  0.5525530000000  0.5130430000000  0.5105490000000 1.0
C      1  0.5363310000000  0.4631160000000  0.5090310000000 1.0
C      1  0.4834230000000  0.4502730000000  0.5084280000000 1.0
C      1  0.4474180000000  0.4870220000000  0.5104450000000 1.0
C      1  0.5613600000000  0.5095920000000  0.4832270000000 1.0
C      1  0.5354540000000  0.4554890000000  0.4805370000000 1.0
C      1  0.4721530000000  0.4491420000000  0.4813360000000 1.0
C      1  0.4383270000000  0.4902720000000  0.4831730000000 1.0
C      1  0.4660030000000  0.5431590000000  0.4806380000000 1.0
C      1  0.5271920000000  0.5518450000000  0.4812000000000 1.0
C      1  0.5244970000000  0.5581860000000  0.5624540000000 1.0
C      1  0.5619880000000  0.5107090000000  0.5627500000000 1.0
C      1  0.5359920000000  0.4641150000000  0.5643450000000 1.0
C      1  0.4756810000000  0.4418540000000  0.5624750000000 1.0
C      1  0.4380340000000  0.4891840000000  0.5627520000000 1.0
C      1  0.4639590000000  0.5359060000000  0.5642660000000 1.0
C      1  0.5317160000000  0.5307530000000  0.4467900000000 1.0
C      1  0.5455940000000  0.4829140000000  0.4471780000000 1.0
C      1  0.5100380000000  0.4511380000000  0.4484850000000 1.0
C      1  0.4683180000000  0.4698640000000  0.4465750000000 1.0
C      1  0.4536790000000  0.5177300000000  0.4470730000000 1.0
C      1  0.4901750000000  0.5482020000000  0.4479610000000 1.0
END
