TITL C-2441154-10-241 0.011841348811324 125000 -14013.2487700571 0 0 97 (C1) n - 1
REM
REM in /home/bkarasulu/work/CARBON/AIRSS/Generating-Clusters/ReaxFF-fromJPCA2015/Units_Real/with-SteepDescent/Higher-Symm
REM
REM
REM
REM
REM
REM ./C.cell (1df0a924f5614ab8850e4351716899ee)
REM
REM compiler GCC version 9.2.1 20190827 (Red Hat 9.2.1-1)
REM options -cpp -mtune=generic -march=x86-64 -g -O0 -fpre-include=/usr/include/finclude/math-vector-fortran.h
REM seed -24619154 -575394607 104780955 -1128151693 696467485 1805102090 1566471343 20349325 989697269 -1147032332 1317630842 466580682 -785600071 -66102909 -1506311977 -560718602 1311960593 -2006475274 -1222315711 -1874807739 -1879402260 7130680 -513097685 -2097218176 651345841 1707929735 1241202844 -1043038925 1781918619 -1050276063 -547427121 830788399 -1466710761
REM
CELL 1.54180   50.00000   50.00000   50.00000   90.00000   90.00000   90.00000
LATT -1
SFAC C  
C      1  0.4774000000000  0.5611940000000  0.5408950000000 1.0
C      1  0.5243080000000  0.5654910000000  0.5440780000000 1.0
C      1  0.4435710000000  0.5558960000000  0.4844820000000 1.0
C      1  0.5538850000000  0.5558590000000  0.4836790000000 1.0
C      1  0.5145460000000  0.5520880000000  0.5689040000000 1.0
C      1  0.4852990000000  0.5500570000000  0.5669340000000 1.0
C      1  0.5296710000000  0.4378650000000  0.4758140000000 1.0
C      1  0.4664660000000  0.4348790000000  0.4783160000000 1.0
C      1  0.5264690000000  0.5445330000000  0.5239190000000 1.0
C      1  0.4732460000000  0.5400710000000  0.5183640000000 1.0
C      1  0.5145080000000  0.5863800000000  0.5259050000000 1.0
C      1  0.4849700000000  0.5848940000000  0.5261220000000 1.0
C      1  0.5833560000000  0.5103770000000  0.5293080000000 1.0
C      1  0.4185210000000  0.5070910000000  0.5319360000000 1.0
C      1  0.5141290000000  0.5170530000000  0.4198000000000 1.0
C      1  0.4855070000000  0.5165820000000  0.4204680000000 1.0
C      1  0.5475630000000  0.5210220000000  0.5552740000000 1.0
C      1  0.4496020000000  0.5205940000000  0.5567970000000 1.0
C      1  0.4690690000000  0.4641670000000  0.4560960000000 1.0
C      1  0.5293460000000  0.4725720000000  0.4535120000000 1.0
C      1  0.4531290000000  0.5003720000000  0.4967780000000 1.0
C      1  0.5466310000000  0.4904640000000  0.4991140000000 1.0
C      1  0.4369950000000  0.4327960000000  0.4771890000000 1.0
C      1  0.5591620000000  0.4355360000000  0.4744750000000 1.0
C      1  0.5138660000000  0.5641620000000  0.4520180000000 1.0
C      1  0.4853880000000  0.5649010000000  0.4524000000000 1.0
C      1  0.5158240000000  0.5291210000000  0.4868470000000 1.0
C      1  0.4871320000000  0.5338000000000  0.4881940000000 1.0
C      1  0.5598760000000  0.5412220000000  0.4395690000000 1.0
C      1  0.4431010000000  0.5410760000000  0.4452670000000 1.0
C      1  0.5448980000000  0.4206570000000  0.4951150000000 1.0
C      1  0.4506150000000  0.4192280000000  0.4990370000000 1.0
C      1  0.4359100000000  0.4927990000000  0.5523690000000 1.0
C      1  0.5636620000000  0.4981190000000  0.5479510000000 1.0
C      1  0.4220400000000  0.4588600000000  0.4754050000000 1.0
C      1  0.5762600000000  0.4595420000000  0.4766690000000 1.0
C      1  0.5143850000000  0.4958570000000  0.4587420000000 1.0
C      1  0.4848250000000  0.4959130000000  0.4614600000000 1.0
C      1  0.5540050000000  0.5489040000000  0.5122570000000 1.0
C      1  0.4437070000000  0.5477940000000  0.5128020000000 1.0
C      1  0.5717140000000  0.4586110000000  0.5290040000000 1.0
C      1  0.4434440000000  0.4611770000000  0.5174470000000 1.0
C      1  0.5882300000000  0.4962120000000  0.5038900000000 1.0
C      1  0.4124590000000  0.4958080000000  0.5054590000000 1.0
C      1  0.5158300000000  0.4687140000000  0.4147380000000 1.0
C      1  0.4864080000000  0.4691410000000  0.4140180000000 1.0
C      1  0.4277010000000  0.5054680000000  0.4800540000000 1.0
C      1  0.5697290000000  0.5036670000000  0.4810950000000 1.0
C      1  0.5521150000000  0.4823870000000  0.4378530000000 1.0
C      1  0.4500910000000  0.4799000000000  0.4405930000000 1.0
C      1  0.4734210000000  0.5182330000000  0.5384430000000 1.0
C      1  0.5232110000000  0.5200530000000  0.5389780000000 1.0
C      1  0.4830830000000  0.4380640000000  0.5290510000000 1.0
C      1  0.5180630000000  0.4442340000000  0.5189370000000 1.0
C      1  0.5144410000000  0.5854260000000  0.4958060000000 1.0
C      1  0.4850940000000  0.5849060000000  0.4955860000000 1.0
C      1  0.5345670000000  0.4567720000000  0.5634220000000 1.0
C      1  0.4487170000000  0.4670380000000  0.5618000000000 1.0
C      1  0.4709570000000  0.5416520000000  0.4360070000000 1.0
C      1  0.5276800000000  0.5405990000000  0.4363000000000 1.0
C      1  0.5656830000000  0.5348220000000  0.4666860000000 1.0
C      1  0.4287420000000  0.5362580000000  0.4686880000000 1.0
C      1  0.4814840000000  0.4917090000000  0.5322810000000 1.0
C      1  0.5116610000000  0.4962670000000  0.5268260000000 1.0
C      1  0.5313630000000  0.4933380000000  0.4185430000000 1.0
C      1  0.4695500000000  0.4926330000000  0.4199010000000 1.0
C      1  0.5141180000000  0.5033470000000  0.5870110000000 1.0
C      1  0.4846310000000  0.5000220000000  0.5830210000000 1.0
C      1  0.4749640000000  0.4735310000000  0.5727120000000 1.0
C      1  0.5244900000000  0.4787630000000  0.5777350000000 1.0
C      1  0.4281540000000  0.4825640000000  0.4593210000000 1.0
C      1  0.5717160000000  0.4828510000000  0.4594170000000 1.0
C      1  0.5694090000000  0.5352990000000  0.5322760000000 1.0
C      1  0.4305340000000  0.5331470000000  0.5334280000000 1.0
C      1  0.4687520000000  0.5715200000000  0.4753350000000 1.0
C      1  0.5300130000000  0.5713280000000  0.4751320000000 1.0
C      1  0.5534260000000  0.4417890000000  0.5438650000000 1.0
C      1  0.4433660000000  0.4452260000000  0.5428330000000 1.0
C      1  0.5404080000000  0.4252640000000  0.5237850000000 1.0
C      1  0.4574990000000  0.4242070000000  0.5278060000000 1.0
C      1  0.4792520000000  0.4938180000000  0.4878560000000 1.0
C      1  0.5225770000000  0.5042620000000  0.5009950000000 1.0
C      1  0.5542070000000  0.4818660000000  0.5259130000000 1.0
C      1  0.4545600000000  0.4871000000000  0.5221160000000 1.0
C      1  0.5851540000000  0.4674340000000  0.5036080000000 1.0
C      1  0.4174570000000  0.4675460000000  0.5026800000000 1.0
C      1  0.5201600000000  0.4599780000000  0.4933130000000 1.0
C      1  0.4744990000000  0.4516640000000  0.5033500000000 1.0
C      1  0.5172470000000  0.4649300000000  0.5402980000000 1.0
C      1  0.4885590000000  0.4619290000000  0.5489380000000 1.0
C      1  0.5154470000000  0.4507210000000  0.4391300000000 1.0
C      1  0.4857210000000  0.4500030000000  0.4368540000000 1.0
C      1  0.4715630000000  0.5259300000000  0.5781590000000 1.0
C      1  0.5287250000000  0.5283440000000  0.5782750000000 1.0
C      1  0.5266380000000  0.5216630000000  0.4605180000000 1.0
C      1  0.4755550000000  0.5247010000000  0.4636070000000 1.0
C      1  0.4932810000000  0.4708760000000  0.4944310000000 1.0
END
