TITL C-2441165-58-877 -0.000833345312146198 125000 -7916.67879690782 0 0 55 (C1) n - 1
REM
REM in /home/bkarasulu/work/CARBON/AIRSS/Generating-Clusters/ReaxFF-fromJPCA2015/Units_Real/with-SteepDescent/Higher-Symm
REM
REM
REM
REM
REM
REM ./C.cell (1df0a924f5614ab8850e4351716899ee)
REM
REM compiler GCC version 9.2.1 20190827 (Red Hat 9.2.1-1)
REM options -cpp -mtune=generic -march=x86-64 -g -O0 -fpre-include=/usr/include/finclude/math-vector-fortran.h
REM seed -292502503 -2002134804 218569923 1819013297 -1817498479 -605652550 -290975709 -1543359233 -5992619 -2003432912 -1414477640 -1423391215 1661027679 -103628397 1402773875 -838420995 972808451 1189214486 140481807 -1702666625 1802365683 2031821317 -760935117 -905815492 993673915 1647916529 342981107 -737854015 580824683 1801230336 354737132 -2123725923 -1792926039
REM
CELL 1.54180   50.00000   50.00000   50.00000   90.00000   90.00000   90.00000
LATT -1
SFAC C  
C      1  0.5365700000000  0.4879700000000  0.5316980000000 1.0
C      1  0.4929840000000  0.5317970000000  0.5305580000000 1.0
C      1  0.4767390000000  0.4800940000000  0.5303050000000 1.0
C      1  0.4926790000000  0.4860880000000  0.4313300000000 1.0
C      1  0.5161670000000  0.5010570000000  0.4321700000000 1.0
C      1  0.4914560000000  0.5140380000000  0.4318070000000 1.0
C      1  0.4813330000000  0.4653070000000  0.4472270000000 1.0
C      1  0.5391870000000  0.5016020000000  0.4489260000000 1.0
C      1  0.4787740000000  0.5337630000000  0.4481020000000 1.0
C      1  0.4480150000000  0.5306130000000  0.5390640000000 1.0
C      1  0.4983180000000  0.4411010000000  0.5388810000000 1.0
C      1  0.5514900000000  0.5317960000000  0.5393350000000 1.0
C      1  0.5505840000000  0.5256180000000  0.4596510000000 1.0
C      1  0.4523740000000  0.5314400000000  0.4593880000000 1.0
C      1  0.4962970000000  0.4434660000000  0.4583450000000 1.0
C      1  0.4868270000000  0.5124370000000  0.5707280000000 1.0
C      1  0.4955230000000  0.4848720000000  0.5705570000000 1.0
C      1  0.5154290000000  0.5063060000000  0.5702690000000 1.0
C      1  0.4441670000000  0.5264090000000  0.4857230000000 1.0
C      1  0.5033970000000  0.4360560000000  0.4846750000000 1.0
C      1  0.5512710000000  0.5355720000000  0.4855850000000 1.0
C      1  0.4323220000000  0.4835260000000  0.4674310000000 1.0
C      1  0.5466060000000  0.4496680000000  0.4674580000000 1.0
C      1  0.5189910000000  0.5672810000000  0.4685150000000 1.0
C      1  0.4835700000000  0.4780310000000  0.5023770000000 1.0
C      1  0.5298340000000  0.4948270000000  0.5046280000000 1.0
C      1  0.4910270000000  0.5244040000000  0.5024410000000 1.0
C      1  0.4744870000000  0.5311610000000  0.5508110000000 1.0
C      1  0.4858700000000  0.4645120000000  0.5506820000000 1.0
C      1  0.5363900000000  0.5094520000000  0.5499670000000 1.0
C      1  0.4334520000000  0.5117590000000  0.4646810000000 1.0
C      1  0.5225590000000  0.4363850000000  0.4642450000000 1.0
C      1  0.5430720000000  0.5520580000000  0.4645420000000 1.0
C      1  0.5032600000000  0.5558880000000  0.5356740000000 1.0
C      1  0.4505100000000  0.4805630000000  0.5381540000000 1.0
C      1  0.5452740000000  0.4629220000000  0.5347830000000 1.0
C      1  0.5465470000000  0.4434040000000  0.5218590000000 1.0
C      1  0.5234430000000  0.5709950000000  0.5239430000000 1.0
C      1  0.4280960000000  0.4850760000000  0.5226110000000 1.0
C      1  0.5526810000000  0.4827270000000  0.4912570000000 1.0
C      1  0.4886850000000  0.5513640000000  0.4913230000000 1.0
C      1  0.4606210000000  0.4643010000000  0.4903630000000 1.0
C      1  0.4372000000000  0.5329010000000  0.5126040000000 1.0
C      1  0.5001530000000  0.4298940000000  0.5124590000000 1.0
C      1  0.5602080000000  0.5386890000000  0.5124100000000 1.0
C      1  0.5485530000000  0.5576350000000  0.5289500000000 1.0
C      1  0.4272710000000  0.5130880000000  0.5305220000000 1.0
C      1  0.5227340000000  0.4297250000000  0.5297420000000 1.0
C      1  0.5496590000000  0.4782280000000  0.4625580000000 1.0
C      1  0.4932670000000  0.5542170000000  0.4624820000000 1.0
C      1  0.4563720000000  0.4674320000000  0.4615110000000 1.0
C      1  0.5549380000000  0.4533020000000  0.4956690000000 1.0
C      1  0.5110330000000  0.5702860000000  0.4971310000000 1.0
C      1  0.4332440000000  0.4744150000000  0.4956140000000 1.0
C      1  0.5024650000000  0.4988120000000  0.4948050000000 1.0
END
