TITL C-2441159-1093-404 0.0614261879979657 125000 -16599.9300835052 0 0 123 (C1) n - 1
REM
REM in /home/bkarasulu/work/CARBON/AIRSS/Generating-Clusters/ReaxFF-fromJPCA2015/Units_Real/with-SteepDescent/Higher-Symm
REM
REM
REM
REM
REM
REM ./C.cell (1df0a924f5614ab8850e4351716899ee)
REM
REM compiler GCC version 9.2.1 20190827 (Red Hat 9.2.1-1)
REM options -cpp -mtune=generic -march=x86-64 -g -O0 -fpre-include=/usr/include/finclude/math-vector-fortran.h
REM seed -932026105 -1793545222 1988978560 -1290720151 -44784825 1722340613 1006288654 -666072144 -1005680707 1705921286 1433579824 1535408041 1385422097 -619455416 -1929281607 -295174066 1039528077 -996439891 1510648153 -1183468463 -579882652 -1925783177 -1522514808 -936797980 -1644684482 789493800 -2106920423 -1848044877 2090573012 -2084606295 604187238 -472896456 -256308890
REM
CELL 1.54180   50.00000   50.00000   50.00000   90.00000   90.00000   90.00000
LATT -1
SFAC C  
C      1  0.5908100000000  0.4692200000000  0.4675580000000 1.0
C      1  0.4877660000000  0.4802020000000  0.4647900000000 1.0
C      1  0.5356930000000  0.5041060000000  0.5750230000000 1.0
C      1  0.4598060000000  0.5504860000000  0.4253430000000 1.0
C      1  0.4864550000000  0.4604760000000  0.5093320000000 1.0
C      1  0.4934890000000  0.5781930000000  0.5550660000000 1.0
C      1  0.4956620000000  0.4287520000000  0.5532160000000 1.0
C      1  0.4597800000000  0.5060310000000  0.5102150000000 1.0
C      1  0.4328500000000  0.5064030000000  0.5756740000000 1.0
C      1  0.4739630000000  0.4670870000000  0.4846560000000 1.0
C      1  0.5226530000000  0.4891690000000  0.5974720000000 1.0
C      1  0.5187460000000  0.4424290000000  0.5440350000000 1.0
C      1  0.5388740000000  0.4565200000000  0.5596140000000 1.0
C      1  0.5001320000000  0.4183950000000  0.4866180000000 1.0
C      1  0.5491650000000  0.4506440000000  0.4387940000000 1.0
C      1  0.5250420000000  0.5432180000000  0.5734450000000 1.0
C      1  0.4942140000000  0.4083100000000  0.5325320000000 1.0
C      1  0.5947470000000  0.4856430000000  0.4911460000000 1.0
C      1  0.4386700000000  0.5439090000000  0.4685850000000 1.0
C      1  0.4971100000000  0.5113170000000  0.5381330000000 1.0
C      1  0.4238640000000  0.4747300000000  0.4850930000000 1.0
C      1  0.4433400000000  0.4813180000000  0.4387260000000 1.0
C      1  0.4691070000000  0.4121280000000  0.5204260000000 1.0
C      1  0.4815490000000  0.5734610000000  0.4482990000000 1.0
C      1  0.5105180000000  0.4462870000000  0.4081210000000 1.0
C      1  0.4555640000000  0.5265800000000  0.4140950000000 1.0
C      1  0.4382420000000  0.4447320000000  0.5436670000000 1.0
C      1  0.5218720000000  0.4240270000000  0.4684480000000 1.0
C      1  0.5857960000000  0.5256490000000  0.4829970000000 1.0
C      1  0.4366570000000  0.5611690000000  0.5110460000000 1.0
C      1  0.4801520000000  0.4538430000000  0.5526540000000 1.0
C      1  0.4392660000000  0.5101490000000  0.4042880000000 1.0
C      1  0.4352590000000  0.5049000000000  0.4544490000000 1.0
C      1  0.5696330000000  0.5319800000000  0.5605350000000 1.0
C      1  0.5015060000000  0.4345070000000  0.4346580000000 1.0
C      1  0.5501070000000  0.4778010000000  0.4299600000000 1.0
C      1  0.5843640000000  0.5231560000000  0.5370740000000 1.0
C      1  0.5219700000000  0.5000520000000  0.5485590000000 1.0
C      1  0.4168410000000  0.5394110000000  0.5145730000000 1.0
C      1  0.4714280000000  0.4710920000000  0.5300860000000 1.0
C      1  0.4801630000000  0.5081270000000  0.4649950000000 1.0
C      1  0.5095330000000  0.5835840000000  0.5093480000000 1.0
C      1  0.4153710000000  0.5252290000000  0.4656820000000 1.0
C      1  0.5434880000000  0.5388030000000  0.5532650000000 1.0
C      1  0.5228080000000  0.4728780000000  0.4151970000000 1.0
C      1  0.4377600000000  0.4539970000000  0.4484290000000 1.0
C      1  0.5276970000000  0.5808480000000  0.4874210000000 1.0
C      1  0.4936310000000  0.4850420000000  0.4162410000000 1.0
C      1  0.5501950000000  0.5664350000000  0.4393620000000 1.0
C      1  0.4767030000000  0.5469180000000  0.4436700000000 1.0
C      1  0.4972710000000  0.5030090000000  0.5976520000000 1.0
C      1  0.4933510000000  0.5500900000000  0.5656860000000 1.0
C      1  0.4685670000000  0.4573370000000  0.5929760000000 1.0
C      1  0.5650470000000  0.4628560000000  0.4765900000000 1.0
C      1  0.5593590000000  0.5520680000000  0.5088930000000 1.0
C      1  0.5064270000000  0.5540250000000  0.5167380000000 1.0
C      1  0.5165180000000  0.4798650000000  0.4615780000000 1.0
C      1  0.5399880000000  0.5552730000000  0.5297770000000 1.0
C      1  0.4928370000000  0.5397830000000  0.5386080000000 1.0
C      1  0.4546560000000  0.5184440000000  0.4705630000000 1.0
C      1  0.5093600000000  0.5694950000000  0.4435900000000 1.0
C      1  0.4290260000000  0.4472520000000  0.4758830000000 1.0
C      1  0.5140800000000  0.4103260000000  0.5098930000000 1.0
C      1  0.4723330000000  0.4215790000000  0.4774800000000 1.0
C      1  0.4522610000000  0.5274000000000  0.5822140000000 1.0
C      1  0.4971880000000  0.5204950000000  0.4879370000000 1.0
C      1  0.5689860000000  0.4976910000000  0.5396220000000 1.0
C      1  0.4452660000000  0.4249360000000  0.5216900000000 1.0
C      1  0.4755180000000  0.5154990000000  0.5913060000000 1.0
C      1  0.4685470000000  0.4718670000000  0.4251750000000 1.0
C      1  0.4510420000000  0.4836730000000  0.4913840000000 1.0
C      1  0.5427190000000  0.4159050000000  0.5064270000000 1.0
C      1  0.5401220000000  0.5084530000000  0.5281480000000 1.0
C      1  0.4884990000000  0.5025760000000  0.5117480000000 1.0
C      1  0.4529760000000  0.4921580000000  0.5606080000000 1.0
C      1  0.5813220000000  0.5344080000000  0.5101110000000 1.0
C      1  0.4548120000000  0.5110650000000  0.5385220000000 1.0
C      1  0.5901850000000  0.5018930000000  0.4656710000000 1.0
C      1  0.5540130000000  0.4415760000000  0.5153440000000 1.0
C      1  0.4185660000000  0.5335160000000  0.5427650000000 1.0
C      1  0.5139790000000  0.5683060000000  0.5709710000000 1.0
C      1  0.4522600000000  0.5646590000000  0.5348400000000 1.0
C      1  0.4946380000000  0.4623800000000  0.5801900000000 1.0
C      1  0.5732590000000  0.5403610000000  0.4617140000000 1.0
C      1  0.5239840000000  0.4630410000000  0.5840200000000 1.0
C      1  0.5770610000000  0.4737620000000  0.5256420000000 1.0
C      1  0.5281820000000  0.5533600000000  0.4261510000000 1.0
C      1  0.5165680000000  0.5592310000000  0.4708840000000 1.0
C      1  0.4406900000000  0.4686250000000  0.5278020000000 1.0
C      1  0.5210420000000  0.5113450000000  0.4507880000000 1.0
C      1  0.4088410000000  0.5200900000000  0.4939770000000 1.0
C      1  0.5584890000000  0.5263460000000  0.4410080000000 1.0
C      1  0.4749900000000  0.5823030000000  0.5321720000000 1.0
C      1  0.4139960000000  0.5067990000000  0.5524710000000 1.0
C      1  0.4821250000000  0.5899690000000  0.5043650000000 1.0
C      1  0.4505960000000  0.4595150000000  0.5677680000000 1.0
C      1  0.5252700000000  0.5241390000000  0.4769610000000 1.0
C      1  0.5552850000000  0.5749350000000  0.4925110000000 1.0
C      1  0.4733680000000  0.5755360000000  0.4793610000000 1.0
C      1  0.5222850000000  0.4467290000000  0.4508930000000 1.0
C      1  0.5644520000000  0.5048650000000  0.5689320000000 1.0
C      1  0.5395660000000  0.5073520000000  0.4982690000000 1.0
C      1  0.5121450000000  0.4535600000000  0.5184080000000 1.0
C      1  0.5493760000000  0.5836860000000  0.5321410000000 1.0
C      1  0.5332310000000  0.4588050000000  0.5031150000000 1.0
C      1  0.4467560000000  0.4287280000000  0.4906530000000 1.0
C      1  0.4948120000000  0.5139180000000  0.4164190000000 1.0
C      1  0.5481690000000  0.4185150000000  0.4777660000000 1.0
C      1  0.4450960000000  0.5675440000000  0.4839530000000 1.0
C      1  0.5678380000000  0.4804940000000  0.4992770000000 1.0
C      1  0.4171240000000  0.4875750000000  0.5303870000000 1.0
C      1  0.4080950000000  0.4921420000000  0.5032170000000 1.0
C      1  0.4470610000000  0.5395240000000  0.5514910000000 1.0
C      1  0.4773840000000  0.4265990000000  0.4483450000000 1.0
C      1  0.4894530000000  0.5215810000000  0.4434630000000 1.0
C      1  0.5299210000000  0.4818880000000  0.4876580000000 1.0
C      1  0.5615000000000  0.4540280000000  0.5406740000000 1.0
C      1  0.4947880000000  0.5496110000000  0.4894020000000 1.0
C      1  0.5638250000000  0.5685260000000  0.4645220000000 1.0
C      1  0.5230910000000  0.5233490000000  0.4234680000000 1.0
C      1  0.5645690000000  0.5003250000000  0.4426220000000 1.0
C      1  0.5636750000000  0.4383720000000  0.4618650000000 1.0
C      1  0.4603140000000  0.4437250000000  0.4322730000000 1.0
END
