TITL C-2441163-1170-1023 0.17201957151167 125000 -24317.2964986368 0 0 192 (C1) n - 1
REM
REM in /home/bkarasulu/work/CARBON/AIRSS/Generating-Clusters/ReaxFF-fromJPCA2015/Units_Real/with-SteepDescent/Higher-Symm
REM
REM
REM
REM
REM
REM ./C.cell (1df0a924f5614ab8850e4351716899ee)
REM
REM compiler GCC version 9.2.1 20190827 (Red Hat 9.2.1-1)
REM options -cpp -mtune=generic -march=x86-64 -g -O0 -fpre-include=/usr/include/finclude/math-vector-fortran.h
REM seed 51937824 -2060942025 -444900256 964604233 -1267563949 -189465498 -1138683799 -2053346673 344922513 1482200174 2087590874 -1396356781 -1563936898 -1454821845 -1113051929 -1676354094 1991210509 1969573231 -1008077050 -1139896191 12101237 1271207331 194138821 1629517546 -796356231 -177803028 1731422112 1850918812 363525373 103806654 936222842 -84407726 -2047179716
REM
CELL 1.54180   50.00000   50.00000   50.00000   90.00000   90.00000   90.00000
LATT -1
SFAC C  
C      1  0.5399020000000  0.5510830000000  0.5297420000000 1.0
C      1  0.5088180000000  0.4480500000000  0.5100760000000 1.0
C      1  0.5645270000000  0.5196450000000  0.4141290000000 1.0
C      1  0.4221600000000  0.5439830000000  0.4364410000000 1.0
C      1  0.5699010000000  0.5539740000000  0.4522270000000 1.0
C      1  0.5870090000000  0.5075510000000  0.4269000000000 1.0
C      1  0.4557060000000  0.5462010000000  0.5868850000000 1.0
C      1  0.5236940000000  0.5108450000000  0.5941070000000 1.0
C      1  0.5089420000000  0.4058000000000  0.5390490000000 1.0
C      1  0.4658920000000  0.4627280000000  0.5022860000000 1.0
C      1  0.4780140000000  0.5110980000000  0.6002820000000 1.0
C      1  0.4272500000000  0.5450770000000  0.4790600000000 1.0
C      1  0.5183020000000  0.4085860000000  0.4387530000000 1.0
C      1  0.5513780000000  0.5656310000000  0.4325140000000 1.0
C      1  0.6024490000000  0.4981990000000  0.5024660000000 1.0
C      1  0.4797150000000  0.4293430000000  0.4267650000000 1.0
C      1  0.4702240000000  0.4011910000000  0.5201140000000 1.0
C      1  0.5460010000000  0.5097170000000  0.5421250000000 1.0
C      1  0.5372720000000  0.4050670000000  0.5323050000000 1.0
C      1  0.5622280000000  0.4237690000000  0.4976550000000 1.0
C      1  0.5258350000000  0.4819620000000  0.5947210000000 1.0
C      1  0.4892270000000  0.5938560000000  0.5541760000000 1.0
C      1  0.5636690000000  0.5028610000000  0.4633430000000 1.0
C      1  0.5031620000000  0.4797470000000  0.3896810000000 1.0
C      1  0.5402990000000  0.5051010000000  0.4455040000000 1.0
C      1  0.4426890000000  0.4596240000000  0.5763360000000 1.0
C      1  0.4534020000000  0.5042820000000  0.4859870000000 1.0
C      1  0.5840830000000  0.5276770000000  0.4549260000000 1.0
C      1  0.4372450000000  0.4315840000000  0.5609540000000 1.0
C      1  0.4709420000000  0.4268130000000  0.5341790000000 1.0
C      1  0.4913010000000  0.4708810000000  0.4388740000000 1.0
C      1  0.4953620000000  0.5358100000000  0.5107600000000 1.0
C      1  0.4325190000000  0.5022060000000  0.5934270000000 1.0
C      1  0.4522450000000  0.4882390000000  0.4362230000000 1.0
C      1  0.4582970000000  0.5992040000000  0.4714260000000 1.0
C      1  0.4844190000000  0.4591750000000  0.5559560000000 1.0
C      1  0.4821530000000  0.4024680000000  0.5939240000000 1.0
C      1  0.5745620000000  0.3978610000000  0.4842510000000 1.0
C      1  0.4397970000000  0.4029090000000  0.5185430000000 1.0
C      1  0.5373480000000  0.5817190000000  0.4887710000000 1.0
C      1  0.4465470000000  0.4348810000000  0.4701330000000 1.0
C      1  0.4860700000000  0.5023180000000  0.3856140000000 1.0
C      1  0.4882260000000  0.4918130000000  0.5245690000000 1.0
C      1  0.5086300000000  0.5774050000000  0.5154950000000 1.0
C      1  0.5116850000000  0.3925070000000  0.4897700000000 1.0
C      1  0.4124470000000  0.5052400000000  0.4625560000000 1.0
C      1  0.5554810000000  0.4372970000000  0.5769250000000 1.0
C      1  0.5485840000000  0.4692920000000  0.5814090000000 1.0
C      1  0.4334170000000  0.5269010000000  0.4581060000000 1.0
C      1  0.4578950000000  0.4513120000000  0.5262870000000 1.0
C      1  0.5725730000000  0.5130380000000  0.5328120000000 1.0
C      1  0.4260540000000  0.4226000000000  0.5352720000000 1.0
C      1  0.5910380000000  0.4570530000000  0.4968440000000 1.0
C      1  0.5750450000000  0.4533220000000  0.4520200000000 1.0
C      1  0.5001770000000  0.5288090000000  0.5985170000000 1.0
C      1  0.5312760000000  0.5387800000000  0.4799940000000 1.0
C      1  0.5399130000000  0.4669160000000  0.5514910000000 1.0
C      1  0.5304470000000  0.4615490000000  0.4963040000000 1.0
C      1  0.5439020000000  0.5073930000000  0.4019700000000 1.0
C      1  0.5374920000000  0.4772560000000  0.4455680000000 1.0
C      1  0.4766210000000  0.4263170000000  0.5886510000000 1.0
C      1  0.4020010000000  0.5065700000000  0.5526320000000 1.0
C      1  0.5455250000000  0.5960220000000  0.5415150000000 1.0
C      1  0.5020900000000  0.5698000000000  0.4159310000000 1.0
C      1  0.5693890000000  0.4656080000000  0.5138970000000 1.0
C      1  0.5526020000000  0.5019200000000  0.4904530000000 1.0
C      1  0.5678080000000  0.4899150000000  0.5838460000000 1.0
C      1  0.4470880000000  0.5650000000000  0.4862540000000 1.0
C      1  0.5623660000000  0.5960050000000  0.5169760000000 1.0
C      1  0.5009220000000  0.5254430000000  0.3953460000000 1.0
C      1  0.4732160000000  0.5337280000000  0.4615990000000 1.0
C      1  0.5192320000000  0.5522100000000  0.4564030000000 1.0
C      1  0.5312710000000  0.4628310000000  0.4696260000000 1.0
C      1  0.4569540000000  0.4427060000000  0.4141280000000 1.0
C      1  0.5945500000000  0.5096430000000  0.5530200000000 1.0
C      1  0.5168290000000  0.4140130000000  0.5108440000000 1.0
C      1  0.4200200000000  0.4799190000000  0.5833490000000 1.0
C      1  0.5046730000000  0.5239380000000  0.5519670000000 1.0
C      1  0.4538620000000  0.5098170000000  0.5561090000000 1.0
C      1  0.5846270000000  0.5637540000000  0.4769600000000 1.0
C      1  0.5297470000000  0.4768740000000  0.4001390000000 1.0
C      1  0.4641570000000  0.4656700000000  0.3979350000000 1.0
C      1  0.4964330000000  0.5786630000000  0.5787650000000 1.0
C      1  0.4624520000000  0.4182600000000  0.5610630000000 1.0
C      1  0.4701210000000  0.4250670000000  0.4554900000000 1.0
C      1  0.4125600000000  0.5145850000000  0.5138240000000 1.0
C      1  0.4502900000000  0.5225750000000  0.6029890000000 1.0
C      1  0.4057750000000  0.4804300000000  0.4452460000000 1.0
C      1  0.5296530000000  0.4514750000000  0.4130630000000 1.0
C      1  0.4432740000000  0.4601960000000  0.4332500000000 1.0
C      1  0.5274570000000  0.4336280000000  0.5816240000000 1.0
C      1  0.4858800000000  0.5429480000000  0.5501410000000 1.0
C      1  0.4006820000000  0.4439840000000  0.4895910000000 1.0
C      1  0.5847170000000  0.4801010000000  0.4575650000000 1.0
C      1  0.5890920000000  0.5363520000000  0.5631200000000 1.0
C      1  0.5048150000000  0.5965650000000  0.4534160000000 1.0
C      1  0.5482610000000  0.5613700000000  0.5757590000000 1.0
C      1  0.3988590000000  0.4810100000000  0.5614950000000 1.0
C      1  0.4625680000000  0.5072290000000  0.5287310000000 1.0
C      1  0.5279410000000  0.5264830000000  0.5344820000000 1.0
C      1  0.4699190000000  0.5370280000000  0.5124070000000 1.0
C      1  0.4930470000000  0.4988560000000  0.4398410000000 1.0
C      1  0.4705460000000  0.5648250000000  0.5495770000000 1.0
C      1  0.4598580000000  0.4948600000000  0.3950890000000 1.0
C      1  0.4919940000000  0.5556970000000  0.4663250000000 1.0
C      1  0.4935040000000  0.5119530000000  0.4649480000000 1.0
C      1  0.5786790000000  0.4820320000000  0.4160380000000 1.0
C      1  0.3983110000000  0.4684390000000  0.5372650000000 1.0
C      1  0.5340800000000  0.4872880000000  0.5334750000000 1.0
C      1  0.5524100000000  0.5139790000000  0.5889190000000 1.0
C      1  0.3922930000000  0.4989980000000  0.4998570000000 1.0
C      1  0.4178120000000  0.4335110000000  0.4680450000000 1.0
C      1  0.4694320000000  0.5908230000000  0.5199410000000 1.0
C      1  0.5532230000000  0.5934940000000  0.4681030000000 1.0
C      1  0.4361680000000  0.5894370000000  0.4983830000000 1.0
C      1  0.4898400000000  0.4648340000000  0.4105550000000 1.0
C      1  0.4183570000000  0.5219220000000  0.4166440000000 1.0
C      1  0.4588140000000  0.5862310000000  0.4457620000000 1.0
C      1  0.5243170000000  0.5288050000000  0.4371400000000 1.0
C      1  0.6008400000000  0.4789790000000  0.4806180000000 1.0
C      1  0.4927400000000  0.6003060000000  0.5057820000000 1.0
C      1  0.5134630000000  0.4567370000000  0.5959230000000 1.0
C      1  0.4535860000000  0.4867260000000  0.4637880000000 1.0
C      1  0.4851980000000  0.4548870000000  0.5990710000000 1.0
C      1  0.4478280000000  0.5137420000000  0.4153420000000 1.0
C      1  0.4402890000000  0.5374470000000  0.5605460000000 1.0
C      1  0.5929890000000  0.4608080000000  0.5509390000000 1.0
C      1  0.4783070000000  0.3993670000000  0.4664680000000 1.0
C      1  0.5039670000000  0.5172870000000  0.4223910000000 1.0
C      1  0.4586200000000  0.4697090000000  0.5501210000000 1.0
C      1  0.4838810000000  0.5536590000000  0.5911030000000 1.0
C      1  0.4871570000000  0.6027480000000  0.4761320000000 1.0
C      1  0.5175960000000  0.5637430000000  0.5390800000000 1.0
C      1  0.5748660000000  0.5096120000000  0.5055300000000 1.0
C      1  0.5341540000000  0.5842330000000  0.4482880000000 1.0
C      1  0.5312870000000  0.5557120000000  0.4131570000000 1.0
C      1  0.6031710000000  0.5406370000000  0.4749130000000 1.0
C      1  0.6018110000000  0.5445790000000  0.5182820000000 1.0
C      1  0.4633280000000  0.5268060000000  0.4874250000000 1.0
C      1  0.3920170000000  0.5189800000000  0.4786100000000 1.0
C      1  0.5045600000000  0.5547960000000  0.4935740000000 1.0
C      1  0.5463120000000  0.4052580000000  0.4795060000000 1.0
C      1  0.5091880000000  0.4266320000000  0.5596310000000 1.0
C      1  0.5728260000000  0.4328580000000  0.5546310000000 1.0
C      1  0.5159230000000  0.4400900000000  0.4660740000000 1.0
C      1  0.4655930000000  0.4731200000000  0.5909740000000 1.0
C      1  0.4071240000000  0.4972060000000  0.4236270000000 1.0
C      1  0.4265310000000  0.5719100000000  0.5206130000000 1.0
C      1  0.4592580000000  0.5443190000000  0.4174970000000 1.0
C      1  0.4094980000000  0.5323640000000  0.5491110000000 1.0
C      1  0.5076610000000  0.5109030000000  0.5108820000000 1.0
C      1  0.5910670000000  0.4852150000000  0.5682040000000 1.0
C      1  0.4831760000000  0.3958330000000  0.4944900000000 1.0
C      1  0.4082370000000  0.5459800000000  0.5181590000000 1.0
C      1  0.6129830000000  0.5273130000000  0.4990740000000 1.0
C      1  0.3985810000000  0.4726630000000  0.4879480000000 1.0
C      1  0.5095620000000  0.4525310000000  0.5431830000000 1.0
C      1  0.5674040000000  0.4685070000000  0.5388550000000 1.0
C      1  0.5570440000000  0.4604910000000  0.4277640000000 1.0
C      1  0.5608360000000  0.4213350000000  0.5318010000000 1.0
C      1  0.4417760000000  0.5621700000000  0.5431470000000 1.0
C      1  0.4900830000000  0.4541320000000  0.4636660000000 1.0
C      1  0.5445600000000  0.4793560000000  0.5079060000000 1.0
C      1  0.4178210000000  0.4525280000000  0.4456230000000 1.0
C      1  0.5743680000000  0.5705550000000  0.5041760000000 1.0
C      1  0.5316660000000  0.5320980000000  0.3945760000000 1.0
C      1  0.6109330000000  0.4738440000000  0.5273800000000 1.0
C      1  0.4006020000000  0.5449740000000  0.4892040000000 1.0
C      1  0.5598880000000  0.5710600000000  0.5505660000000 1.0
C      1  0.4744550000000  0.4977640000000  0.5739780000000 1.0
C      1  0.4207450000000  0.4617590000000  0.5244780000000 1.0
C      1  0.5053450000000  0.3931520000000  0.4600260000000 1.0
C      1  0.5170130000000  0.5121830000000  0.4815260000000 1.0
C      1  0.4262790000000  0.4736080000000  0.5000410000000 1.0
C      1  0.4038870000000  0.4394370000000  0.5196130000000 1.0
C      1  0.5884800000000  0.5546410000000  0.5405920000000 1.0
C      1  0.4441290000000  0.5634790000000  0.4326980000000 1.0
C      1  0.4873470000000  0.5880520000000  0.4335840000000 1.0
C      1  0.4369960000000  0.5002420000000  0.5097860000000 1.0
C      1  0.5086170000000  0.4302880000000  0.4212950000000 1.0
C      1  0.4844800000000  0.5507710000000  0.4065590000000 1.0
C      1  0.5187900000000  0.5620590000000  0.5691500000000 1.0
C      1  0.5167410000000  0.6017140000000  0.5497340000000 1.0
C      1  0.4912820000000  0.4654520000000  0.4939100000000 1.0
C      1  0.4636460000000  0.5643260000000  0.5099230000000 1.0
C      1  0.5503890000000  0.6076600000000  0.4933080000000 1.0
C      1  0.4958240000000  0.4969850000000  0.5523720000000 1.0
C      1  0.5738960000000  0.4432210000000  0.4785210000000 1.0
C      1  0.5652200000000  0.5386030000000  0.5808880000000 1.0
C      1  0.5353910000000  0.4216030000000  0.4574310000000 1.0
C      1  0.5475720000000  0.5555820000000  0.5007840000000 1.0
C      1  0.4474970000000  0.4618490000000  0.4814460000000 1.0
END
