TITL C-2441168-9922-1462 0.056825849232408 125000 -10130.8648870775 0 0 84 (C1) n - 1
REM
REM in /home/bkarasulu/work/CARBON/AIRSS/Generating-Clusters/ReaxFF-fromJPCA2015/Units_Real/with-SteepDescent/Higher-Symm
REM
REM
REM
REM
REM
REM ./C.cell (1df0a924f5614ab8850e4351716899ee)
REM
REM compiler GCC version 9.2.1 20190827 (Red Hat 9.2.1-1)
REM options -cpp -mtune=generic -march=x86-64 -g -O0 -fpre-include=/usr/include/finclude/math-vector-fortran.h
REM seed 1783944258 1977633138 -130344627 -155654706 585651918 313629403 -1655422210 -808510425 -1769946980 518520185 -1950248864 554927136 1676988413 -700267587 -1891634542 -898494425 1120872866 290323673 1351927204 82031783 -1190511447 -1792520704 -758914255 -466250031 -866309631 856872953 1281920559 -836294619 2082955635 896175333 -1072076171 101698146 -1616562043
REM
CELL 1.54180   50.00000   50.00000   50.00000   90.00000   90.00000   90.00000
LATT -1
SFAC C  
C      1  0.4879880000000  0.5863870000000  0.5247370000000 1.0
C      1  0.4838060000000  0.5048850000000  0.5873870000000 1.0
C      1  0.4854550000000  0.4151220000000  0.5274440000000 1.0
C      1  0.4850730000000  0.4500920000000  0.4313620000000 1.0
C      1  0.4849570000000  0.5489150000000  0.4265980000000 1.0
C      1  0.5172910000000  0.5870460000000  0.5232280000000 1.0
C      1  0.5135160000000  0.5033740000000  0.5879380000000 1.0
C      1  0.5149160000000  0.4164770000000  0.5285110000000 1.0
C      1  0.5153210000000  0.4499440000000  0.4300120000000 1.0
C      1  0.5144500000000  0.5489330000000  0.4249050000000 1.0
C      1  0.5211340000000  0.5194610000000  0.5030840000000 1.0
C      1  0.5233480000000  0.4967250000000  0.5208030000000 1.0
C      1  0.5245650000000  0.4732760000000  0.5034600000000 1.0
C      1  0.5262540000000  0.4852150000000  0.4768200000000 1.0
C      1  0.5234540000000  0.5130300000000  0.4755670000000 1.0
C      1  0.4781280000000  0.5192980000000  0.5045590000000 1.0
C      1  0.4760070000000  0.4961170000000  0.5212380000000 1.0
C      1  0.4747090000000  0.4734280000000  0.5031810000000 1.0
C      1  0.4732040000000  0.4852490000000  0.4769270000000 1.0
C      1  0.4765370000000  0.5136100000000  0.4763840000000 1.0
C      1  0.5342530000000  0.4863790000000  0.5716420000000 1.0
C      1  0.5336080000000  0.4242860000000  0.5070990000000 1.0
C      1  0.5466670000000  0.4750740000000  0.4345820000000 1.0
C      1  0.5344610000000  0.5556570000000  0.4475220000000 1.0
C      1  0.5359970000000  0.5640610000000  0.5328690000000 1.0
C      1  0.4635840000000  0.4896270000000  0.5724670000000 1.0
C      1  0.4663150000000  0.4240190000000  0.5073390000000 1.0
C      1  0.4531440000000  0.4747150000000  0.4348450000000 1.0
C      1  0.4666770000000  0.5573800000000  0.4485390000000 1.0
C      1  0.4595870000000  0.5596220000000  0.5355980000000 1.0
C      1  0.4850950000000  0.4361180000000  0.4572180000000 1.0
C      1  0.4850540000000  0.5197280000000  0.4272550000000 1.0
C      1  0.4862390000000  0.5771110000000  0.4969080000000 1.0
C      1  0.4845990000000  0.5266670000000  0.5691260000000 1.0
C      1  0.4859900000000  0.4392160000000  0.5447260000000 1.0
C      1  0.5136830000000  0.4361550000000  0.4569940000000 1.0
C      1  0.5142400000000  0.5196630000000  0.4259930000000 1.0
C      1  0.5149810000000  0.5766660000000  0.4965140000000 1.0
C      1  0.5138410000000  0.5259830000000  0.5695910000000 1.0
C      1  0.5148600000000  0.4397920000000  0.5452730000000 1.0
C      1  0.4432650000000  0.5451130000000  0.5166230000000 1.0
C      1  0.4446120000000  0.4983000000000  0.5473470000000 1.0
C      1  0.4462090000000  0.4588790000000  0.5118380000000 1.0
C      1  0.4482880000000  0.4768110000000  0.4635120000000 1.0
C      1  0.4481130000000  0.5278540000000  0.4658500000000 1.0
C      1  0.5581800000000  0.5454920000000  0.5156270000000 1.0
C      1  0.5547740000000  0.4980360000000  0.5468630000000 1.0
C      1  0.5532390000000  0.4586780000000  0.5115390000000 1.0
C      1  0.5515520000000  0.4770650000000  0.4633180000000 1.0
C      1  0.5494970000000  0.5275530000000  0.4642430000000 1.0
C      1  0.5207530000000  0.4776280000000  0.4331750000000 1.0
C      1  0.5133720000000  0.5539840000000  0.4643220000000 1.0
C      1  0.5131860000000  0.5483780000000  0.5362390000000 1.0
C      1  0.5124110000000  0.4775530000000  0.5581540000000 1.0
C      1  0.5149810000000  0.4454520000000  0.4984510000000 1.0
C      1  0.4790170000000  0.4768670000000  0.4332760000000 1.0
C      1  0.4863080000000  0.5493810000000  0.4670960000000 1.0
C      1  0.4874250000000  0.5602390000000  0.5424790000000 1.0
C      1  0.4845190000000  0.4754410000000  0.5608250000000 1.0
C      1  0.4842860000000  0.4456300000000  0.4984920000000 1.0
C      1  0.4664250000000  0.5444090000000  0.5580810000000 1.0
C      1  0.4688310000000  0.4562100000000  0.5567360000000 1.0
C      1  0.4679750000000  0.4300180000000  0.4787820000000 1.0
C      1  0.4651350000000  0.4989200000000  0.4232450000000 1.0
C      1  0.4693200000000  0.5706220000000  0.4752240000000 1.0
C      1  0.5316180000000  0.5449600000000  0.5568240000000 1.0
C      1  0.5309790000000  0.4575870000000  0.5596010000000 1.0
C      1  0.5310410000000  0.4298360000000  0.4786320000000 1.0
C      1  0.5346800000000  0.4993740000000  0.4229120000000 1.0
C      1  0.5315390000000  0.5708000000000  0.4740280000000 1.0
C      1  0.4361900000000  0.5358810000000  0.4907830000000 1.0
C      1  0.4339840000000  0.5200260000000  0.5291010000000 1.0
C      1  0.4350380000000  0.4786400000000  0.5291250000000 1.0
C      1  0.4302540000000  0.4669980000000  0.4889770000000 1.0
C      1  0.4308880000000  0.5038320000000  0.4647600000000 1.0
C      1  0.5623780000000  0.5366600000000  0.4892890000000 1.0
C      1  0.5644120000000  0.5217690000000  0.5319100000000 1.0
C      1  0.5644210000000  0.4786040000000  0.5286350000000 1.0
C      1  0.5695740000000  0.4676340000000  0.4892220000000 1.0
C      1  0.5682320000000  0.5040980000000  0.4646640000000 1.0
C      1  0.4254200000000  0.4952390000000  0.4916600000000 1.0
C      1  0.5734960000000  0.4962340000000  0.4918170000000 1.0
C      1  0.5477710000000  0.5081110000000  0.5104400000000 1.0
C      1  0.4517790000000  0.5073880000000  0.5106220000000 1.0
END
