TITL C-2441164-471-129 0.0750873260617753 125000 -10175.2924133467 0 0 86 (C1) n - 1
REM
REM in /home/bkarasulu/work/CARBON/AIRSS/Generating-Clusters/ReaxFF-fromJPCA2015/Units_Real/with-SteepDescent/Higher-Symm
REM
REM
REM
REM
REM
REM ./C.cell (1df0a924f5614ab8850e4351716899ee)
REM
REM compiler GCC version 9.2.1 20190827 (Red Hat 9.2.1-1)
REM options -cpp -mtune=generic -march=x86-64 -g -O0 -fpre-include=/usr/include/finclude/math-vector-fortran.h
REM seed 298310149 -500033596 -457185952 -1503315377 -917234413 -30367197 897608729 2004370001 -2137430758 215657966 -1312193391 -1574659340 1614827237 -2131078596 898015511 -1201147961 1718980143 -1539796504 -1840101182 478216874 1243634204 -1583219247 1706826349 160316416 -590122996 -388811561 -967734106 1199834683 -25743814 -75185331 -830500228 1255021282 1956386632
REM
CELL 1.54180   50.00000   50.00000   50.00000   90.00000   90.00000   90.00000
LATT -1
SFAC C  
C      1  0.4800070000000  0.4341980000000  0.5430300000000 1.0
C      1  0.4673140000000  0.4304210000000  0.4648220000000 1.0
C      1  0.5470070000000  0.4308070000000  0.4853280000000 1.0
C      1  0.4962320000000  0.4508660000000  0.5302540000000 1.0
C      1  0.4869370000000  0.4626450000000  0.4771620000000 1.0
C      1  0.5306210000000  0.4632870000000  0.4995710000000 1.0
C      1  0.4654890000000  0.5531270000000  0.5385390000000 1.0
C      1  0.4766780000000  0.5546330000000  0.4498710000000 1.0
C      1  0.5520010000000  0.5534870000000  0.5085580000000 1.0
C      1  0.5273950000000  0.4773850000000  0.5459250000000 1.0
C      1  0.4458830000000  0.4774520000000  0.4992400000000 1.0
C      1  0.5258960000000  0.4774170000000  0.4545650000000 1.0
C      1  0.4607350000000  0.4536710000000  0.5568260000000 1.0
C      1  0.4685950000000  0.4499130000000  0.4409390000000 1.0
C      1  0.5675990000000  0.4495160000000  0.5004570000000 1.0
C      1  0.5659290000000  0.5084800000000  0.4499300000000 1.0
C      1  0.5107080000000  0.5098920000000  0.5795840000000 1.0
C      1  0.4258290000000  0.5083180000000  0.4677480000000 1.0
C      1  0.4470330000000  0.5282800000000  0.4654640000000 1.0
C      1  0.5553780000000  0.5260230000000  0.4711830000000 1.0
C      1  0.4976820000000  0.5286520000000  0.5647460000000 1.0
C      1  0.4861520000000  0.4871040000000  0.4219820000000 1.0
C      1  0.5717550000000  0.4886650000000  0.5264940000000 1.0
C      1  0.4373780000000  0.4877160000000  0.5462300000000 1.0
C      1  0.5021530000000  0.4843890000000  0.4729300000000 1.0
C      1  0.5223420000000  0.4812630000000  0.5161740000000 1.0
C      1  0.4733720000000  0.4830990000000  0.5135900000000 1.0
C      1  0.5266140000000  0.4350630000000  0.5060920000000 1.0
C      1  0.4766370000000  0.4334020000000  0.5147780000000 1.0
C      1  0.4954950000000  0.4353880000000  0.4721090000000 1.0
C      1  0.4770560000000  0.5128510000000  0.4335720000000 1.0
C      1  0.5739230000000  0.5176430000000  0.5172370000000 1.0
C      1  0.4481020000000  0.5153840000000  0.5545240000000 1.0
C      1  0.5201510000000  0.4343290000000  0.5356400000000 1.0
C      1  0.4576710000000  0.4338770000000  0.4935320000000 1.0
C      1  0.5250830000000  0.4329940000000  0.4647430000000 1.0
C      1  0.4382420000000  0.5173150000000  0.5133490000000 1.0
C      1  0.5184410000000  0.5189180000000  0.4362360000000 1.0
C      1  0.5434180000000  0.5176920000000  0.5446360000000 1.0
C      1  0.5364720000000  0.5218830000000  0.5716490000000 1.0
C      1  0.4189390000000  0.5221850000000  0.4932340000000 1.0
C      1  0.5466160000000  0.5227190000000  0.4324910000000 1.0
C      1  0.4573400000000  0.4762180000000  0.4331770000000 1.0
C      1  0.5781070000000  0.4751820000000  0.4940890000000 1.0
C      1  0.4645560000000  0.4799360000000  0.5689630000000 1.0
C      1  0.5641500000000  0.4577350000000  0.5283940000000 1.0
C      1  0.4404530000000  0.4585030000000  0.5371000000000 1.0
C      1  0.4947300000000  0.4553130000000  0.4303640000000 1.0
C      1  0.5212440000000  0.4514280000000  0.4420710000000 1.0
C      1  0.5415020000000  0.4509980000000  0.5452760000000 1.0
C      1  0.4384910000000  0.4495240000000  0.5090900000000 1.0
C      1  0.5244100000000  0.5682120000000  0.4831060000000 1.0
C      1  0.5014760000000  0.5728270000000  0.5330380000000 1.0
C      1  0.4686320000000  0.5692580000000  0.4813050000000 1.0
C      1  0.4964450000000  0.5155190000000  0.5122600000000 1.0
C      1  0.4780890000000  0.5203610000000  0.4887800000000 1.0
C      1  0.5183430000000  0.5184630000000  0.4798660000000 1.0
C      1  0.5032720000000  0.5448590000000  0.4395210000000 1.0
C      1  0.5599870000000  0.5384060000000  0.5333260000000 1.0
C      1  0.4405750000000  0.5366340000000  0.5345270000000 1.0
C      1  0.4827020000000  0.5015340000000  0.5339710000000 1.0
C      1  0.4815930000000  0.5029330000000  0.4647250000000 1.0
C      1  0.5367470000000  0.5070440000000  0.5012020000000 1.0
C      1  0.4882280000000  0.5460510000000  0.4774510000000 1.0
C      1  0.5280590000000  0.5442640000000  0.4967540000000 1.0
C      1  0.4910460000000  0.5483530000000  0.5239430000000 1.0
C      1  0.4722970000000  0.5310720000000  0.5589760000000 1.0
C      1  0.4600980000000  0.5339440000000  0.4426100000000 1.0
C      1  0.5678460000000  0.5333040000000  0.4944700000000 1.0
C      1  0.4986260000000  0.4803140000000  0.5485360000000 1.0
C      1  0.4630920000000  0.4798100000000  0.4728630000000 1.0
C      1  0.5417700000000  0.4794520000000  0.4789780000000 1.0
C      1  0.5227800000000  0.5607260000000  0.4545820000000 1.0
C      1  0.5268540000000  0.5608870000000  0.5375760000000 1.0
C      1  0.4538480000000  0.5604540000000  0.5036950000000 1.0
C      1  0.5512760000000  0.4930600000000  0.5481060000000 1.0
C      1  0.4302430000000  0.4930040000000  0.5180050000000 1.0
C      1  0.5155580000000  0.4908460000000  0.4301390000000 1.0
C      1  0.5212690000000  0.5457380000000  0.5623860000000 1.0
C      1  0.4350650000000  0.5464330000000  0.4860740000000 1.0
C      1  0.5477920000000  0.5463130000000  0.4495240000000 1.0
C      1  0.4398270000000  0.4856780000000  0.4551940000000 1.0
C      1  0.5687350000000  0.4853080000000  0.4686830000000 1.0
C      1  0.4919730000000  0.4861190000000  0.5762370000000 1.0
C      1  0.5018740000000  0.4910350000000  0.5020260000000 1.0
C      1  0.5032200000000  0.5568540000000  0.4971990000000 1.0
END
