TITL C-2441160-1326-53 0.15349141801818 125000 -20472.2873649675 0 0 162 (C1) n - 1
REM
REM in /home/bkarasulu/work/CARBON/AIRSS/Generating-Clusters/ReaxFF-fromJPCA2015/Units_Real/with-SteepDescent/Higher-Symm
REM
REM
REM
REM
REM
REM ./C.cell (1df0a924f5614ab8850e4351716899ee)
REM
REM compiler GCC version 9.2.1 20190827 (Red Hat 9.2.1-1)
REM options -cpp -mtune=generic -march=x86-64 -g -O0 -fpre-include=/usr/include/finclude/math-vector-fortran.h
REM seed -634685505 1748882214 854933723 786771541 359907762 298093102 -1767428685 -1651396463 -1933191762 -1769116334 -809919161 -398482210 1218185826 2071715099 1917474719 604651664 -541679095 914708262 1184203635 -1990819648 1036614874 -134774584 1833817350 -2123539647 -39151088 107946141 -999462427 -885880813 -98152743 -1706981419 -1394972756 1211517379 -460979808
REM
CELL 1.54180   50.00000   50.00000   50.00000   90.00000   90.00000   90.00000
LATT -1
SFAC C  
C      1  0.5381430000000  0.6034530000000  0.4688450000000 1.0
C      1  0.5471210000000  0.5949250000000  0.4980800000000 1.0
C      1  0.5389980000000  0.6004160000000  0.5273250000000 1.0
C      1  0.5103340000000  0.5961780000000  0.5394540000000 1.0
C      1  0.4761540000000  0.5991080000000  0.5364040000000 1.0
C      1  0.4574870000000  0.6013980000000  0.5132360000000 1.0
C      1  0.4582810000000  0.6030180000000  0.4837070000000 1.0
C      1  0.4795550000000  0.5989480000000  0.4612180000000 1.0
C      1  0.5134760000000  0.6025780000000  0.4532690000000 1.0
C      1  0.4746050000000  0.5160050000000  0.5282040000000 1.0
C      1  0.4609660000000  0.5200560000000  0.5043390000000 1.0
C      1  0.4709600000000  0.5299100000000  0.4793040000000 1.0
C      1  0.4898330000000  0.5203390000000  0.4624420000000 1.0
C      1  0.5157340000000  0.5318630000000  0.4653580000000 1.0
C      1  0.5353680000000  0.5192610000000  0.4816660000000 1.0
C      1  0.5368700000000  0.5285490000000  0.5087590000000 1.0
C      1  0.5228310000000  0.5185510000000  0.5306170000000 1.0
C      1  0.4976570000000  0.5279570000000  0.5365930000000 1.0
C      1  0.4203440000000  0.4609980000000  0.5319000000000 1.0
C      1  0.4084280000000  0.4522630000000  0.4730420000000 1.0
C      1  0.4510350000000  0.4616320000000  0.4250850000000 1.0
C      1  0.5101090000000  0.4590110000000  0.4123530000000 1.0
C      1  0.5653950000000  0.4623830000000  0.4395830000000 1.0
C      1  0.5953340000000  0.4560360000000  0.4955220000000 1.0
C      1  0.5683960000000  0.4557410000000  0.5543030000000 1.0
C      1  0.5192810000000  0.4551620000000  0.5896400000000 1.0
C      1  0.4575430000000  0.4622400000000  0.5809530000000 1.0
C      1  0.4719830000000  0.4058870000000  0.4504980000000 1.0
C      1  0.5106630000000  0.4098590000000  0.4460870000000 1.0
C      1  0.5441980000000  0.4051780000000  0.4679520000000 1.0
C      1  0.5508080000000  0.4050250000000  0.4960730000000 1.0
C      1  0.5367160000000  0.4040590000000  0.5343770000000 1.0
C      1  0.5133290000000  0.4078180000000  0.5511520000000 1.0
C      1  0.4733390000000  0.4066450000000  0.5444110000000 1.0
C      1  0.4541710000000  0.4063210000000  0.5222300000000 1.0
C      1  0.4496380000000  0.4093370000000  0.4820540000000 1.0
C      1  0.5582420000000  0.4570820000000  0.5813400000000 1.0
C      1  0.4932940000000  0.4535430000000  0.5975420000000 1.0
C      1  0.4278030000000  0.4559040000000  0.5717890000000 1.0
C      1  0.3999590000000  0.4548620000000  0.5127810000000 1.0
C      1  0.4170160000000  0.4526950000000  0.4465770000000 1.0
C      1  0.4714610000000  0.4555820000000  0.4042350000000 1.0
C      1  0.5390260000000  0.4523610000000  0.4077290000000 1.0
C      1  0.5906780000000  0.4575340000000  0.4553090000000 1.0
C      1  0.5949760000000  0.4543690000000  0.5234450000000 1.0
C      1  0.4736900000000  0.4892620000000  0.5387110000000 1.0
C      1  0.4514900000000  0.4942590000000  0.5017770000000 1.0
C      1  0.4592130000000  0.4846950000000  0.4756490000000 1.0
C      1  0.4828100000000  0.4937330000000  0.4578860000000 1.0
C      1  0.5124000000000  0.4831320000000  0.4591700000000 1.0
C      1  0.5364390000000  0.4925110000000  0.4725250000000 1.0
C      1  0.5463620000000  0.4863210000000  0.5159400000000 1.0
C      1  0.5316030000000  0.4943030000000  0.5390130000000 1.0
C      1  0.5025830000000  0.4825670000000  0.5480000000000 1.0
C      1  0.5170420000000  0.4819270000000  0.4305360000000 1.0
C      1  0.5584150000000  0.4849960000000  0.4574050000000 1.0
C      1  0.5732390000000  0.4908930000000  0.5112810000000 1.0
C      1  0.5526510000000  0.4962140000000  0.5594290000000 1.0
C      1  0.5091210000000  0.4905400000000  0.5712330000000 1.0
C      1  0.4556830000000  0.4870000000000  0.5629050000000 1.0
C      1  0.4327780000000  0.4861290000000  0.5210440000000 1.0
C      1  0.4326760000000  0.4931950000000  0.4644030000000 1.0
C      1  0.4705860000000  0.4866030000000  0.4304380000000 1.0
C      1  0.4014020000000  0.5176970000000  0.5117520000000 1.0
C      1  0.4220260000000  0.4998870000000  0.4391740000000 1.0
C      1  0.4741720000000  0.5183930000000  0.4046480000000 1.0
C      1  0.5446190000000  0.5006320000000  0.4072090000000 1.0
C      1  0.5815590000000  0.5223680000000  0.4567230000000 1.0
C      1  0.5939800000000  0.5062180000000  0.5198630000000 1.0
C      1  0.5580730000000  0.5098280000000  0.5817170000000 1.0
C      1  0.4883250000000  0.5013710000000  0.6051610000000 1.0
C      1  0.4328190000000  0.5060250000000  0.5672730000000 1.0
C      1  0.5547650000000  0.4305500000000  0.4794850000000 1.0
C      1  0.5568110000000  0.4161200000000  0.5204260000000 1.0
C      1  0.5323380000000  0.4302030000000  0.5484840000000 1.0
C      1  0.4908560000000  0.4253720000000  0.5572280000000 1.0
C      1  0.4549260000000  0.4265530000000  0.5404260000000 1.0
C      1  0.4437900000000  0.4255330000000  0.5023210000000 1.0
C      1  0.4513240000000  0.4180740000000  0.4577130000000 1.0
C      1  0.4894990000000  0.4244950000000  0.4426090000000 1.0
C      1  0.5346030000000  0.4193380000000  0.4469480000000 1.0
C      1  0.5577840000000  0.5204020000000  0.4234480000000 1.0
C      1  0.5915680000000  0.5285180000000  0.4779170000000 1.0
C      1  0.5854400000000  0.5217610000000  0.5418540000000 1.0
C      1  0.5351070000000  0.5249680000000  0.5877360000000 1.0
C      1  0.4728860000000  0.5220240000000  0.5921270000000 1.0
C      1  0.4194940000000  0.5234050000000  0.5503000000000 1.0
C      1  0.4045220000000  0.5227180000000  0.4890180000000 1.0
C      1  0.4367480000000  0.5224760000000  0.4292190000000 1.0
C      1  0.4985040000000  0.5236120000000  0.4085280000000 1.0
C      1  0.4685480000000  0.4573270000000  0.4770990000000 1.0
C      1  0.4895630000000  0.4445060000000  0.4637110000000 1.0
C      1  0.5140580000000  0.4568430000000  0.4679890000000 1.0
C      1  0.5349170000000  0.4505280000000  0.4846460000000 1.0
C      1  0.5321970000000  0.4635360000000  0.5089870000000 1.0
C      1  0.5209710000000  0.4487190000000  0.5296350000000 1.0
C      1  0.4955710000000  0.4527510000000  0.5391720000000 1.0
C      1  0.4747540000000  0.4641940000000  0.5227320000000 1.0
C      1  0.4623290000000  0.4492450000000  0.5030590000000 1.0
C      1  0.5779510000000  0.5603220000000  0.5200410000000 1.0
C      1  0.5528830000000  0.5619820000000  0.5626710000000 1.0
C      1  0.5010470000000  0.5607910000000  0.5833160000000 1.0
C      1  0.4521640000000  0.5590450000000  0.5632140000000 1.0
C      1  0.4221560000000  0.5603650000000  0.5176580000000 1.0
C      1  0.4295850000000  0.5598070000000  0.4642190000000 1.0
C      1  0.4679370000000  0.5596880000000  0.4257560000000 1.0
C      1  0.5246810000000  0.5598110000000  0.4225000000000 1.0
C      1  0.5668530000000  0.5612400000000  0.4521380000000 1.0
C      1  0.4298980000000  0.5492160000000  0.5437250000000 1.0
C      1  0.4174360000000  0.5476160000000  0.4879320000000 1.0
C      1  0.4434640000000  0.5484800000000  0.4397230000000 1.0
C      1  0.4977230000000  0.5497740000000  0.4149380000000 1.0
C      1  0.5504080000000  0.5466490000000  0.4323010000000 1.0
C      1  0.5840710000000  0.5571760000000  0.4781790000000 1.0
C      1  0.5761000000000  0.5492920000000  0.5453660000000 1.0
C      1  0.5306940000000  0.5508890000000  0.5794450000000 1.0
C      1  0.4738840000000  0.5479640000000  0.5803700000000 1.0
C      1  0.5147830000000  0.5679680000000  0.5313320000000 1.0
C      1  0.4912740000000  0.5552470000000  0.5359600000000 1.0
C      1  0.4728520000000  0.5622770000000  0.5161790000000 1.0
C      1  0.4577010000000  0.5646080000000  0.4954820000000 1.0
C      1  0.4726710000000  0.5549520000000  0.4769880000000 1.0
C      1  0.4924760000000  0.5718750000000  0.4695270000000 1.0
C      1  0.5175860000000  0.5596390000000  0.4708000000000 1.0
C      1  0.5337550000000  0.5697210000000  0.4916120000000 1.0
C      1  0.5322970000000  0.5556770000000  0.5145010000000 1.0
C      1  0.5730160000000  0.5043270000000  0.4410620000000 1.0
C      1  0.5963100000000  0.5013770000000  0.4907000000000 1.0
C      1  0.5814290000000  0.4989540000000  0.5576290000000 1.0
C      1  0.5168890000000  0.4990310000000  0.5958840000000 1.0
C      1  0.4535550000000  0.5068560000000  0.5824050000000 1.0
C      1  0.4110360000000  0.5022110000000  0.5323090000000 1.0
C      1  0.4080990000000  0.4965150000000  0.4781200000000 1.0
C      1  0.4565450000000  0.5064700000000  0.4166060000000 1.0
C      1  0.5155350000000  0.5003350000000  0.4085680000000 1.0
C      1  0.4668310000000  0.5826260000000  0.4404540000000 1.0
C      1  0.5147140000000  0.5827610000000  0.4339710000000 1.0
C      1  0.5508330000000  0.5832340000000  0.4549820000000 1.0
C      1  0.5743630000000  0.5748800000000  0.4990560000000 1.0
C      1  0.5500220000000  0.5823510000000  0.5447230000000 1.0
C      1  0.5068670000000  0.5844160000000  0.5684050000000 1.0
C      1  0.4664840000000  0.5808090000000  0.5551490000000 1.0
C      1  0.4358480000000  0.5841500000000  0.5211690000000 1.0
C      1  0.4369710000000  0.5840690000000  0.4790330000000 1.0
C      1  0.4108300000000  0.4718500000000  0.5557220000000 1.0
C      1  0.3960840000000  0.4722210000000  0.4892840000000 1.0
C      1  0.4226380000000  0.4733860000000  0.4272050000000 1.0
C      1  0.4919280000000  0.4746030000000  0.3972220000000 1.0
C      1  0.5564270000000  0.4743770000000  0.4104750000000 1.0
C      1  0.6020950000000  0.4754130000000  0.4758420000000 1.0
C      1  0.5904420000000  0.4717340000000  0.5468300000000 1.0
C      1  0.5389870000000  0.4734410000000  0.5960780000000 1.0
C      1  0.4764700000000  0.4749580000000  0.6026900000000 1.0
C      1  0.4408190000000  0.4399270000000  0.4420770000000 1.0
C      1  0.4902410000000  0.4384160000000  0.4167220000000 1.0
C      1  0.5478660000000  0.4395860000000  0.4313440000000 1.0
C      1  0.5843820000000  0.4388050000000  0.4759400000000 1.0
C      1  0.5735170000000  0.4367530000000  0.5319190000000 1.0
C      1  0.5382180000000  0.4374510000000  0.5772940000000 1.0
C      1  0.4773120000000  0.4396170000000  0.5808440000000 1.0
C      1  0.4318400000000  0.4378010000000  0.5498560000000 1.0
C      1  0.4130580000000  0.4357020000000  0.4960930000000 1.0
END
