TITL C-2441160-1326-692 0.00356784960750763 125000 -4067.70880053091 0 0 31 (C1) n - 1
REM
REM in /home/bkarasulu/work/CARBON/AIRSS/Generating-Clusters/ReaxFF-fromJPCA2015/Units_Real/with-SteepDescent/Higher-Symm
REM
REM
REM
REM
REM
REM ./C.cell (1df0a924f5614ab8850e4351716899ee)
REM
REM compiler GCC version 9.2.1 20190827 (Red Hat 9.2.1-1)
REM options -cpp -mtune=generic -march=x86-64 -g -O0 -fpre-include=/usr/include/finclude/math-vector-fortran.h
REM seed -58160859 -1796875373 -488016922 1120752883 370088566 371803267 -1494637211 -1852249018 -1234613442 288354792 1353689661 -364765609 -1804852376 -522021869 -852445502 -1458114871 1711794878 -976551276 -462979205 1490224599 -1269505064 296801048 -2013417394 -518658777 -887643899 775665749 -525812060 1494679969 -630784795 -603742484 120630474 1745022293 1074711578
REM
CELL 1.54180   50.00000   50.00000   50.00000   90.00000   90.00000   90.00000
LATT -1
SFAC C  
C      1  0.4975170000000  0.5274650000000  0.4434790000000 1.0
C      1  0.5001110000000  0.4676990000000  0.5577170000000 1.0
C      1  0.5276430000000  0.5390260000000  0.4722280000000 1.0
C      1  0.4750800000000  0.4563940000000  0.5257080000000 1.0
C      1  0.5002640000000  0.5177660000000  0.5266480000000 1.0
C      1  0.5082340000000  0.4800580000000  0.4924580000000 1.0
C      1  0.5536590000000  0.4811450000000  0.5089090000000 1.0
C      1  0.4536620000000  0.5280540000000  0.4834580000000 1.0
C      1  0.5719860000000  0.4710830000000  0.4953140000000 1.0
C      1  0.4323990000000  0.5288950000000  0.4953540000000 1.0
C      1  0.4719970000000  0.4695160000000  0.5554010000000 1.0
C      1  0.5261470000000  0.5275010000000  0.4422700000000 1.0
C      1  0.4989420000000  0.4572670000000  0.4715280000000 1.0
C      1  0.4924020000000  0.5459130000000  0.5284080000000 1.0
C      1  0.4556680000000  0.4948340000000  0.4569200000000 1.0
C      1  0.5298150000000  0.5134840000000  0.5363400000000 1.0
C      1  0.5032660000000  0.4456710000000  0.5215920000000 1.0
C      1  0.5009950000000  0.5491530000000  0.4810260000000 1.0
C      1  0.4982410000000  0.4399080000000  0.4939900000000 1.0
C      1  0.4986030000000  0.5653480000000  0.5059160000000 1.0
C      1  0.4630010000000  0.4685810000000  0.5043070000000 1.0
C      1  0.5404020000000  0.5254490000000  0.4922130000000 1.0
C      1  0.4827440000000  0.5255180000000  0.4841540000000 1.0
C      1  0.5241150000000  0.4670710000000  0.5137500000000 1.0
C      1  0.4548190000000  0.4794310000000  0.4827480000000 1.0
C      1  0.5513870000000  0.5121820000000  0.5131900000000 1.0
C      1  0.5465560000000  0.5253250000000  0.5517870000000 1.0
C      1  0.4564850000000  0.4733610000000  0.4432410000000 1.0
C      1  0.4686480000000  0.5251560000000  0.4457700000000 1.0
C      1  0.5259180000000  0.4657660000000  0.5499250000000 1.0
C      1  0.4947290000000  0.5042870000000  0.5017330000000 1.0
END
