TITL C-2441168-9922-372 0.121364796974633 125000 -24788.0676129208 0 0 180 (C1) n - 1
REM
REM in /home/bkarasulu/work/CARBON/AIRSS/Generating-Clusters/ReaxFF-fromJPCA2015/Units_Real/with-SteepDescent/Higher-Symm
REM
REM
REM
REM
REM
REM ./C.cell (1df0a924f5614ab8850e4351716899ee)
REM
REM compiler GCC version 9.2.1 20190827 (Red Hat 9.2.1-1)
REM options -cpp -mtune=generic -march=x86-64 -g -O0 -fpre-include=/usr/include/finclude/math-vector-fortran.h
REM seed -1196274151 720665060 1826638892 -1489449937 399071930 -2051002515 774499800 -1947190411 690756195 -1587386262 -1028165764 -344358417 119775800 -70794415 2102039391 62400350 -391141771 1354453906 -1403236745 510778121 1475975017 158823971 699037207 126866841 -954881626 -501990238 -252856826 -77592411 -162459231 -564351937 1053940210 335542714 345561558
REM
CELL 1.54180   50.00000   50.00000   50.00000   90.00000   90.00000   90.00000
LATT -1
SFAC C  
C      1  0.5645650000000  0.5593310000000  0.5503470000000 1.0
C      1  0.5810990000000  0.5584920000000  0.4984320000000 1.0
C      1  0.5600820000000  0.5572080000000  0.4464830000000 1.0
C      1  0.5118660000000  0.5598260000000  0.4207280000000 1.0
C      1  0.4578580000000  0.5567940000000  0.4288660000000 1.0
C      1  0.4213100000000  0.5598900000000  0.4732600000000 1.0
C      1  0.4236310000000  0.5581860000000  0.5285440000000 1.0
C      1  0.4601920000000  0.5603660000000  0.5713670000000 1.0
C      1  0.5167670000000  0.5597260000000  0.5810100000000 1.0
C      1  0.4685790000000  0.4382010000000  0.5186080000000 1.0
C      1  0.4850620000000  0.4529800000000  0.5405110000000 1.0
C      1  0.5140230000000  0.4437860000000  0.5449260000000 1.0
C      1  0.5371970000000  0.4460230000000  0.5246820000000 1.0
C      1  0.5409420000000  0.4458020000000  0.4931300000000 1.0
C      1  0.5217540000000  0.4560340000000  0.4737280000000 1.0
C      1  0.5011630000000  0.4445830000000  0.4579470000000 1.0
C      1  0.4750820000000  0.4540770000000  0.4678840000000 1.0
C      1  0.4651890000000  0.4384080000000  0.4908630000000 1.0
C      1  0.5285710000000  0.4545250000000  0.5747190000000 1.0
C      1  0.5651960000000  0.4590460000000  0.5387120000000 1.0
C      1  0.5722220000000  0.4574970000000  0.4828150000000 1.0
C      1  0.5559580000000  0.4576890000000  0.4340470000000 1.0
C      1  0.4974570000000  0.4577350000000  0.4235940000000 1.0
C      1  0.4513010000000  0.4619940000000  0.4431410000000 1.0
C      1  0.4193510000000  0.4562840000000  0.4875420000000 1.0
C      1  0.4280760000000  0.4600060000000  0.5423220000000 1.0
C      1  0.4741550000000  0.4577380000000  0.5742000000000 1.0
C      1  0.4654000000000  0.5233550000000  0.6045200000000 1.0
C      1  0.5438000000000  0.5219750000000  0.6006430000000 1.0
C      1  0.6003240000000  0.5241020000000  0.5537100000000 1.0
C      1  0.6077420000000  0.5232360000000  0.4802340000000 1.0
C      1  0.5693590000000  0.5220450000000  0.4131630000000 1.0
C      1  0.4972850000000  0.5228400000000  0.3888650000000 1.0
C      1  0.4238090000000  0.5236090000000  0.4144750000000 1.0
C      1  0.3892990000000  0.5233660000000  0.4826550000000 1.0
C      1  0.4043330000000  0.5238660000000  0.5581590000000 1.0
C      1  0.5707890000000  0.4158340000000  0.4668660000000 1.0
C      1  0.5297840000000  0.4163810000000  0.4391530000000 1.0
C      1  0.4839990000000  0.4148520000000  0.4256680000000 1.0
C      1  0.4392950000000  0.4154720000000  0.4550510000000 1.0
C      1  0.4287130000000  0.4155560000000  0.5068610000000 1.0
C      1  0.4477870000000  0.4132620000000  0.5526830000000 1.0
C      1  0.4947040000000  0.4131440000000  0.5778400000000 1.0
C      1  0.5422000000000  0.4140640000000  0.5595240000000 1.0
C      1  0.5713880000000  0.4172860000000  0.5148150000000 1.0
C      1  0.4249180000000  0.5690900000000  0.5013020000000 1.0
C      1  0.4385440000000  0.5679280000000  0.5527370000000 1.0
C      1  0.4897510000000  0.5687740000000  0.5747070000000 1.0
C      1  0.5431340000000  0.5697610000000  0.5676490000000 1.0
C      1  0.5708220000000  0.5691140000000  0.5229420000000 1.0
C      1  0.5738210000000  0.5698200000000  0.4717220000000 1.0
C      1  0.5369550000000  0.5699630000000  0.4326850000000 1.0
C      1  0.4839940000000  0.5690180000000  0.4264830000000 1.0
C      1  0.4355220000000  0.5676660000000  0.4477460000000 1.0
C      1  0.4778600000000  0.4401460000000  0.4113870000000 1.0
C      1  0.4284540000000  0.4419080000000  0.4443690000000 1.0
C      1  0.4089090000000  0.4370860000000  0.5069700000000 1.0
C      1  0.4347710000000  0.4391420000000  0.5617070000000 1.0
C      1  0.4893120000000  0.4394680000000  0.5921650000000 1.0
C      1  0.5524530000000  0.4364730000000  0.5753320000000 1.0
C      1  0.5861000000000  0.4398910000000  0.5260230000000 1.0
C      1  0.5811080000000  0.4409540000000  0.4606730000000 1.0
C      1  0.5382340000000  0.4385950000000  0.4222120000000 1.0
C      1  0.4462030000000  0.4184380000000  0.4841370000000 1.0
C      1  0.4503800000000  0.4182210000000  0.5249710000000 1.0
C      1  0.4733800000000  0.4086860000000  0.5618440000000 1.0
C      1  0.5132940000000  0.4149950000000  0.5541680000000 1.0
C      1  0.5475210000000  0.4179170000000  0.5308810000000 1.0
C      1  0.5526540000000  0.4174270000000  0.4898870000000 1.0
C      1  0.5460000000000  0.4056750000000  0.4596480000000 1.0
C      1  0.5029150000000  0.4181260000000  0.4481180000000 1.0
C      1  0.4636730000000  0.4095470000000  0.4432820000000 1.0
C      1  0.4534480000000  0.5121110000000  0.4638730000000 1.0
C      1  0.4403220000000  0.5037870000000  0.4880390000000 1.0
C      1  0.4488270000000  0.5082550000000  0.5290780000000 1.0
C      1  0.4906370000000  0.5108830000000  0.5627460000000 1.0
C      1  0.5174870000000  0.5033220000000  0.5593780000000 1.0
C      1  0.5551390000000  0.5086180000000  0.5216260000000 1.0
C      1  0.5626630000000  0.5062240000000  0.4898610000000 1.0
C      1  0.5306260000000  0.5084530000000  0.4474730000000 1.0
C      1  0.5027500000000  0.5045700000000  0.4382960000000 1.0
C      1  0.4265340000000  0.5233780000000  0.5767560000000 1.0
C      1  0.4945530000000  0.5232260000000  0.6066310000000 1.0
C      1  0.5638660000000  0.5216320000000  0.5800200000000 1.0
C      1  0.6019080000000  0.5210700000000  0.5251980000000 1.0
C      1  0.5978370000000  0.5221170000000  0.4535210000000 1.0
C      1  0.5420720000000  0.5217340000000  0.4028590000000 1.0
C      1  0.4702210000000  0.5202770000000  0.3966420000000 1.0
C      1  0.4092450000000  0.5230470000000  0.4401270000000 1.0
C      1  0.3950720000000  0.5212490000000  0.5095250000000 1.0
C      1  0.5146700000000  0.5776090000000  0.5355990000000 1.0
C      1  0.5339350000000  0.5984320000000  0.5257350000000 1.0
C      1  0.5345270000000  0.5730230000000  0.4943220000000 1.0
C      1  0.5221980000000  0.5880190000000  0.4734370000000 1.0
C      1  0.5023360000000  0.5727850000000  0.4629650000000 1.0
C      1  0.4714110000000  0.5967970000000  0.4713590000000 1.0
C      1  0.4705860000000  0.5763470000000  0.4947180000000 1.0
C      1  0.4593530000000  0.6030060000000  0.5230020000000 1.0
C      1  0.4742990000000  0.5866270000000  0.5374710000000 1.0
C      1  0.5221730000000  0.4845300000000  0.4708450000000 1.0
C      1  0.4967270000000  0.4971740000000  0.4656020000000 1.0
C      1  0.4799960000000  0.4800520000000  0.4771990000000 1.0
C      1  0.4649710000000  0.4924340000000  0.4959690000000 1.0
C      1  0.4671360000000  0.4883810000000  0.5207220000000 1.0
C      1  0.4884090000000  0.4776520000000  0.5309380000000 1.0
C      1  0.5127580000000  0.4905300000000  0.5332170000000 1.0
C      1  0.5327330000000  0.4922720000000  0.5151350000000 1.0
C      1  0.5353690000000  0.4964140000000  0.4892870000000 1.0
C      1  0.4473580000000  0.5895430000000  0.4589540000000 1.0
C      1  0.4454620000000  0.5894960000000  0.5022840000000 1.0
C      1  0.4499040000000  0.5942880000000  0.5498930000000 1.0
C      1  0.4946490000000  0.5858040000000  0.5525460000000 1.0
C      1  0.5367570000000  0.5934450000000  0.5537930000000 1.0
C      1  0.5519950000000  0.5859800000000  0.5109100000000 1.0
C      1  0.5611870000000  0.5939560000000  0.4645780000000 1.0
C      1  0.5376160000000  0.5947330000000  0.4487840000000 1.0
C      1  0.4863580000000  0.5892000000000  0.4472190000000 1.0
C      1  0.5767950000000  0.5355040000000  0.4378650000000 1.0
C      1  0.5163500000000  0.5349610000000  0.4073160000000 1.0
C      1  0.4517110000000  0.5349200000000  0.4130650000000 1.0
C      1  0.4045470000000  0.5381690000000  0.4647390000000 1.0
C      1  0.4069650000000  0.5358560000000  0.5313410000000 1.0
C      1  0.4495040000000  0.5378250000000  0.5853070000000 1.0
C      1  0.5188610000000  0.5380220000000  0.5990770000000 1.0
C      1  0.5778020000000  0.5387700000000  0.5634070000000 1.0
C      1  0.5912030000000  0.5323380000000  0.5010980000000 1.0
C      1  0.4677110000000  0.5468070000000  0.4973400000000 1.0
C      1  0.4646900000000  0.5325130000000  0.5238150000000 1.0
C      1  0.4890210000000  0.5305060000000  0.5408430000000 1.0
C      1  0.5141260000000  0.5457080000000  0.5337010000000 1.0
C      1  0.5359710000000  0.5343760000000  0.5193540000000 1.0
C      1  0.5358650000000  0.5438270000000  0.4915660000000 1.0
C      1  0.5257850000000  0.5311050000000  0.4664450000000 1.0
C      1  0.4995700000000  0.5442570000000  0.4632250000000 1.0
C      1  0.4733310000000  0.5328580000000  0.4721170000000 1.0
C      1  0.4072390000000  0.4531980000000  0.4606780000000 1.0
C      1  0.4021070000000  0.4519880000000  0.5312740000000 1.0
C      1  0.4463290000000  0.4526840000000  0.5841970000000 1.0
C      1  0.5137160000000  0.4516080000000  0.6007300000000 1.0
C      1  0.5754930000000  0.4515000000000  0.5658310000000 1.0
C      1  0.5960780000000  0.4532120000000  0.5025500000000 1.0
C      1  0.5833390000000  0.4524800000000  0.4359270000000 1.0
C      1  0.5194710000000  0.4527920000000  0.4056470000000 1.0
C      1  0.4522650000000  0.4530950000000  0.4130140000000 1.0
C      1  0.4151650000000  0.4947290000000  0.4435990000000 1.0
C      1  0.3958220000000  0.4916000000000  0.5065420000000 1.0
C      1  0.4288880000000  0.4951870000000  0.5738440000000 1.0
C      1  0.4979790000000  0.4947780000000  0.6025720000000 1.0
C      1  0.5642060000000  0.4950330000000  0.5687390000000 1.0
C      1  0.5991530000000  0.4926150000000  0.5266980000000 1.0
C      1  0.5970500000000  0.4917830000000  0.4575980000000 1.0
C      1  0.5380790000000  0.4930910000000  0.4045740000000 1.0
C      1  0.4743850000000  0.4912370000000  0.3983690000000 1.0
C      1  0.4768200000000  0.4890600000000  0.5829550000000 1.0
C      1  0.5370860000000  0.4857180000000  0.5772780000000 1.0
C      1  0.5712030000000  0.4896650000000  0.5382900000000 1.0
C      1  0.5737860000000  0.4851620000000  0.4747710000000 1.0
C      1  0.5517040000000  0.4852030000000  0.4277240000000 1.0
C      1  0.4896320000000  0.4849540000000  0.4224480000000 1.0
C      1  0.4443430000000  0.4910720000000  0.4459170000000 1.0
C      1  0.4222470000000  0.4835660000000  0.4963570000000 1.0
C      1  0.4336120000000  0.4892920000000  0.5458320000000 1.0
C      1  0.5877350000000  0.4763780000000  0.5780010000000 1.0
C      1  0.6101510000000  0.4784900000000  0.5040140000000 1.0
C      1  0.5956830000000  0.4779400000000  0.4308900000000 1.0
C      1  0.5206960000000  0.4771550000000  0.3897470000000 1.0
C      1  0.4450810000000  0.4761820000000  0.3963350000000 1.0
C      1  0.3946260000000  0.4794340000000  0.4579860000000 1.0
C      1  0.3868130000000  0.4769880000000  0.5342690000000 1.0
C      1  0.4367800000000  0.4779890000000  0.5956710000000 1.0
C      1  0.5170630000000  0.4774770000000  0.6142620000000 1.0
C      1  0.6162760000000  0.4957250000000  0.4807570000000 1.0
C      1  0.5770290000000  0.4943000000000  0.4169780000000 1.0
C      1  0.4989690000000  0.4949050000000  0.3814410000000 1.0
C      1  0.4306790000000  0.4980540000000  0.4036960000000 1.0
C      1  0.3834760000000  0.4957640000000  0.4793710000000 1.0
C      1  0.3937160000000  0.4981410000000  0.5509570000000 1.0
C      1  0.4575820000000  0.4958080000000  0.6047130000000 1.0
C      1  0.5387540000000  0.4939830000000  0.6056160000000 1.0
C      1  0.6044660000000  0.4978780000000  0.5685440000000 1.0
END
