TITL C-2441157-2117-984 0.0235382324347688 125000 -13188.2713572851 0 0 94 (C1) n - 1
REM
REM in /home/bkarasulu/work/CARBON/AIRSS/Generating-Clusters/ReaxFF-fromJPCA2015/Units_Real/with-SteepDescent/Higher-Symm
REM
REM
REM
REM
REM
REM ./C.cell (1df0a924f5614ab8850e4351716899ee)
REM
REM compiler GCC version 9.2.1 20190827 (Red Hat 9.2.1-1)
REM options -cpp -mtune=generic -march=x86-64 -g -O0 -fpre-include=/usr/include/finclude/math-vector-fortran.h
REM seed -643471625 609331136 614577775 531538705 -212374273 1496024854 -1797598786 -692555081 -1123369208 -572568195 1188399205 970531368 -1555690252 -407384526 -566349954 305640182 -351591057 -704109500 -280540852 1142935326 -787438743 692306980 1853653767 606802806 930218534 -1345743202 -1586140403 -1882829410 -445574620 404848017 -1648968355 384322073 471427874
REM
CELL 1.54180   50.00000   50.00000   50.00000   90.00000   90.00000   90.00000
LATT -1
SFAC C  
C      1  0.4998110000000  0.5829630000000  0.5343650000000 1.0
C      1  0.5748860000000  0.4986210000000  0.5431630000000 1.0
C      1  0.4987820000000  0.4171110000000  0.5326250000000 1.0
C      1  0.4172220000000  0.5020130000000  0.5334080000000 1.0
C      1  0.4990400000000  0.5743260000000  0.4714010000000 1.0
C      1  0.5771780000000  0.5039500000000  0.4675710000000 1.0
C      1  0.5002370000000  0.4220350000000  0.4621860000000 1.0
C      1  0.4267140000000  0.5035120000000  0.4594560000000 1.0
C      1  0.4520350000000  0.5062710000000  0.4121650000000 1.0
C      1  0.5085880000000  0.5469380000000  0.4080370000000 1.0
C      1  0.5477830000000  0.4918610000000  0.4114370000000 1.0
C      1  0.4934210000000  0.4490190000000  0.4114110000000 1.0
C      1  0.4518170000000  0.5083350000000  0.5862010000000 1.0
C      1  0.5095320000000  0.5473820000000  0.5863590000000 1.0
C      1  0.5499370000000  0.4881770000000  0.5884880000000 1.0
C      1  0.4907060000000  0.4499860000000  0.5870160000000 1.0
C      1  0.4965100000000  0.5478720000000  0.4364820000000 1.0
C      1  0.5454360000000  0.5054440000000  0.4381970000000 1.0
C      1  0.5033870000000  0.4448990000000  0.4413820000000 1.0
C      1  0.4358440000000  0.4937650000000  0.4336180000000 1.0
C      1  0.4965690000000  0.5489100000000  0.5587700000000 1.0
C      1  0.5514190000000  0.5034270000000  0.5588270000000 1.0
C      1  0.5039320000000  0.4487180000000  0.5601450000000 1.0
C      1  0.4501050000000  0.4958810000000  0.5596170000000 1.0
C      1  0.5756190000000  0.5118090000000  0.5176840000000 1.0
C      1  0.5267350000000  0.4227300000000  0.5329950000000 1.0
C      1  0.4223450000000  0.4739450000000  0.5327890000000 1.0
C      1  0.4720860000000  0.5795870000000  0.5321290000000 1.0
C      1  0.5732680000000  0.5324810000000  0.4689460000000 1.0
C      1  0.5274130000000  0.4270330000000  0.4689490000000 1.0
C      1  0.4233750000000  0.4764220000000  0.4691820000000 1.0
C      1  0.4708880000000  0.5733250000000  0.4700850000000 1.0
C      1  0.4367250000000  0.4653550000000  0.4457600000000 1.0
C      1  0.4700320000000  0.5566890000000  0.4455060000000 1.0
C      1  0.5571820000000  0.5326020000000  0.4443290000000 1.0
C      1  0.5330000000000  0.4425590000000  0.4464250000000 1.0
C      1  0.4418490000000  0.4680320000000  0.5542520000000 1.0
C      1  0.4693330000000  0.5607960000000  0.5545900000000 1.0
C      1  0.5551250000000  0.5315530000000  0.5550920000000 1.0
C      1  0.5317720000000  0.4415340000000  0.5553300000000 1.0
C      1  0.5044770000000  0.5183510000000  0.4024370000000 1.0
C      1  0.5206780000000  0.4939360000000  0.3988060000000 1.0
C      1  0.4966020000000  0.4756090000000  0.4019150000000 1.0
C      1  0.4817590000000  0.5003850000000  0.4170110000000 1.0
C      1  0.5054940000000  0.5187340000000  0.5931770000000 1.0
C      1  0.5232400000000  0.4926350000000  0.5954480000000 1.0
C      1  0.4956280000000  0.4775230000000  0.5979780000000 1.0
C      1  0.4810070000000  0.5025380000000  0.5944680000000 1.0
C      1  0.5025810000000  0.4681680000000  0.5099550000000 1.0
C      1  0.4619090000000  0.5090680000000  0.5096860000000 1.0
C      1  0.5090460000000  0.5408580000000  0.5090780000000 1.0
C      1  0.5241910000000  0.4868310000000  0.5089400000000 1.0
C      1  0.4890340000000  0.4761350000000  0.4865390000000 1.0
C      1  0.4796260000000  0.5035900000000  0.4875710000000 1.0
C      1  0.5071900000000  0.5246460000000  0.4849040000000 1.0
C      1  0.5254320000000  0.5027380000000  0.4847880000000 1.0
C      1  0.5389340000000  0.4429990000000  0.5148700000000 1.0
C      1  0.4416110000000  0.4614070000000  0.5135690000000 1.0
C      1  0.4580480000000  0.5588080000000  0.5145650000000 1.0
C      1  0.5592120000000  0.5364660000000  0.5142390000000 1.0
C      1  0.5387990000000  0.4443590000000  0.4871770000000 1.0
C      1  0.4414810000000  0.4616730000000  0.4863560000000 1.0
C      1  0.4522750000000  0.5571590000000  0.4874100000000 1.0
C      1  0.5560960000000  0.5459570000000  0.4887440000000 1.0
C      1  0.5709510000000  0.4780990000000  0.4759400000000 1.0
C      1  0.4728430000000  0.4260460000000  0.4720380000000 1.0
C      1  0.4357950000000  0.5349600000000  0.4759660000000 1.0
C      1  0.5273100000000  0.5724350000000  0.4739770000000 1.0
C      1  0.5714100000000  0.4727990000000  0.5308840000000 1.0
C      1  0.4729300000000  0.4252420000000  0.5255250000000 1.0
C      1  0.4262760000000  0.5282290000000  0.5289170000000 1.0
C      1  0.5266060000000  0.5770370000000  0.5301260000000 1.0
C      1  0.4537350000000  0.5399870000000  0.5382620000000 1.0
C      1  0.5387380000000  0.5479970000000  0.5386700000000 1.0
C      1  0.5443880000000  0.4617490000000  0.5363500000000 1.0
C      1  0.4606550000000  0.4544970000000  0.5345650000000 1.0
C      1  0.4554210000000  0.5322130000000  0.4535930000000 1.0
C      1  0.5363910000000  0.5517850000000  0.4527020000000 1.0
C      1  0.5442250000000  0.4651360000000  0.4645090000000 1.0
C      1  0.4581230000000  0.4532970000000  0.4637220000000 1.0
C      1  0.4704950000000  0.5093670000000  0.5375970000000 1.0
C      1  0.5103350000000  0.5334450000000  0.5366420000000 1.0
C      1  0.5257680000000  0.4925770000000  0.5378310000000 1.0
C      1  0.4903720000000  0.4678980000000  0.5373660000000 1.0
C      1  0.4728040000000  0.5102980000000  0.4607950000000 1.0
C      1  0.5124690000000  0.5362400000000  0.4569940000000 1.0
C      1  0.5266710000000  0.4914570000000  0.4580640000000 1.0
C      1  0.4868610000000  0.4678290000000  0.4589830000000 1.0
C      1  0.4370460000000  0.5202760000000  0.5024200000000 1.0
C      1  0.5247270000000  0.5644690000000  0.5034970000000 1.0
C      1  0.5748230000000  0.4852990000000  0.5045860000000 1.0
C      1  0.4783350000000  0.4216400000000  0.4979520000000 1.0
C      1  0.4920470000000  0.4947030000000  0.4468010000000 1.0
C      1  0.4974390000000  0.4969450000000  0.5448720000000 1.0
END
