TITL C-2441166-8118-444 0.0027627412856446 125000 -14681.7605379773 0 0 96 (C1) n - 1
REM
REM in /home/bkarasulu/work/CARBON/AIRSS/Generating-Clusters/ReaxFF-fromJPCA2015/Units_Real/with-SteepDescent/Higher-Symm
REM
REM
REM
REM
REM
REM ./C.cell (1df0a924f5614ab8850e4351716899ee)
REM
REM compiler GCC version 9.2.1 20190827 (Red Hat 9.2.1-1)
REM options -cpp -mtune=generic -march=x86-64 -g -O0 -fpre-include=/usr/include/finclude/math-vector-fortran.h
REM seed 958532901 1736263463 -309784438 -525016363 2102964543 963527929 -1843667411 1914592727 1855529884 1943172525 -994149192 -152993569 -1841219351 -796628512 1927937515 -382537224 1500959363 1218287128 1329004148 154430259 -1435891707 -667711056 1167287052 1844385248 1815987608 1845651970 748999581 -670357040 912704829 1876934338 994169812 1246632673 -1809697882
REM
CELL 1.54180   50.00000   50.00000   50.00000   90.00000   90.00000   90.00000
LATT -1
SFAC C  
C      1  0.5235480000000  0.4768880000000  0.5847290000000 1.0
C      1  0.4970890000000  0.4676940000000  0.5853530000000 1.0
C      1  0.4735340000000  0.4831560000000  0.5855590000000 1.0
C      1  0.4704970000000  0.5113890000000  0.5853200000000 1.0
C      1  0.4905160000000  0.5312280000000  0.5845450000000 1.0
C      1  0.5181880000000  0.5271910000000  0.5830530000000 1.0
C      1  0.5325950000000  0.5033400000000  0.5832530000000 1.0
C      1  0.4507370000000  0.4727200000000  0.4438240000000 1.0
C      1  0.4481260000000  0.5228350000000  0.4441980000000 1.0
C      1  0.4855240000000  0.5558690000000  0.4444700000000 1.0
C      1  0.5349030000000  0.5460850000000  0.4439740000000 1.0
C      1  0.5589690000000  0.5017640000000  0.4401680000000 1.0
C      1  0.5394760000000  0.4555880000000  0.4421470000000 1.0
C      1  0.4911220000000  0.4429950000000  0.4440130000000 1.0
C      1  0.5516510000000  0.5633330000000  0.5217720000000 1.0
C      1  0.5877340000000  0.4924140000000  0.5209450000000 1.0
C      1  0.5535000000000  0.4239820000000  0.5230380000000 1.0
C      1  0.4779340000000  0.4129040000000  0.5226540000000 1.0
C      1  0.4247260000000  0.4657320000000  0.5217230000000 1.0
C      1  0.4218640000000  0.5434040000000  0.5229570000000 1.0
C      1  0.4837720000000  0.5915980000000  0.5219610000000 1.0
C      1  0.4133010000000  0.4848160000000  0.4741130000000 1.0
C      1  0.4321990000000  0.5609840000000  0.4734030000000 1.0
C      1  0.5046790000000  0.5916430000000  0.4720380000000 1.0
C      1  0.5688970000000  0.5492760000000  0.4809960000000 1.0
C      1  0.5871820000000  0.4742720000000  0.4730850000000 1.0
C      1  0.5369990000000  0.4156340000000  0.4739410000000 1.0
C      1  0.4583320000000  0.4200390000000  0.4732790000000 1.0
C      1  0.4095790000000  0.4733890000000  0.4994710000000 1.0
C      1  0.4210280000000  0.5574390000000  0.4988490000000 1.0
C      1  0.4955620000000  0.5991910000000  0.4976160000000 1.0
C      1  0.5720980000000  0.5575260000000  0.5073530000000 1.0
C      1  0.5971030000000  0.4776160000000  0.4992880000000 1.0
C      1  0.5458670000000  0.4099640000000  0.5001600000000 1.0
C      1  0.4641230000000  0.4094440000000  0.4986140000000 1.0
C      1  0.4297760000000  0.5319540000000  0.4659360000000 1.0
C      1  0.4796490000000  0.5764610000000  0.4652870000000 1.0
C      1  0.5460710000000  0.5608020000000  0.4667440000000 1.0
C      1  0.5770800000000  0.5006180000000  0.4627160000000 1.0
C      1  0.5513800000000  0.4401930000000  0.4642420000000 1.0
C      1  0.4871550000000  0.4222940000000  0.4652550000000 1.0
C      1  0.4330730000000  0.4637310000000  0.4659080000000 1.0
C      1  0.5734270000000  0.5205550000000  0.4827390000000 1.0
C      1  0.5693940000000  0.4523340000000  0.4825190000000 1.0
C      1  0.5087950000000  0.4158470000000  0.4830150000000 1.0
C      1  0.4437150000000  0.4436260000000  0.4837190000000 1.0
C      1  0.4208040000000  0.5116620000000  0.4841720000000 1.0
C      1  0.4572680000000  0.5735120000000  0.4831880000000 1.0
C      1  0.5283850000000  0.5773310000000  0.4817970000000 1.0
C      1  0.5245100000000  0.5653440000000  0.5106510000000 1.0
C      1  0.5646630000000  0.5106670000000  0.5098670000000 1.0
C      1  0.5597050000000  0.4529400000000  0.5126760000000 1.0
C      1  0.5054560000000  0.4251470000000  0.5130270000000 1.0
C      1  0.4519280000000  0.4526380000000  0.5119290000000 1.0
C      1  0.4311360000000  0.5147070000000  0.5131550000000 1.0
C      1  0.4627210000000  0.5698160000000  0.5133160000000 1.0
C      1  0.4702350000000  0.5354750000000  0.4400210000000 1.0
C      1  0.5094460000000  0.5464260000000  0.4399090000000 1.0
C      1  0.5418920000000  0.5215550000000  0.4374450000000 1.0
C      1  0.5445790000000  0.4807320000000  0.4364990000000 1.0
C      1  0.5138830000000  0.4542370000000  0.4387610000000 1.0
C      1  0.4739400000000  0.4620920000000  0.4399600000000 1.0
C      1  0.4545110000000  0.4979860000000  0.4399100000000 1.0
C      1  0.5320790000000  0.4697940000000  0.5109750000000 1.0
C      1  0.5056960000000  0.4569050000000  0.5109240000000 1.0
C      1  0.4806710000000  0.4693230000000  0.5104960000000 1.0
C      1  0.4633350000000  0.5167050000000  0.5112780000000 1.0
C      1  0.4789010000000  0.5408670000000  0.5106850000000 1.0
C      1  0.5061400000000  0.5391830000000  0.5076070000000 1.0
C      1  0.5370430000000  0.4968230000000  0.5086530000000 1.0
C      1  0.4593400000000  0.4324090000000  0.5338490000000 1.0
C      1  0.4243610000000  0.4922990000000  0.5336800000000 1.0
C      1  0.4431870000000  0.5592960000000  0.5348540000000 1.0
C      1  0.5082010000000  0.5805410000000  0.5331810000000 1.0
C      1  0.5673570000000  0.5391440000000  0.5292330000000 1.0
C      1  0.5756300000000  0.4691540000000  0.5336690000000 1.0
C      1  0.5269580000000  0.4216830000000  0.5351780000000 1.0
C      1  0.5542440000000  0.5050290000000  0.5649460000000 1.0
C      1  0.5390520000000  0.4600070000000  0.5675800000000 1.0
C      1  0.4944820000000  0.4449060000000  0.5682760000000 1.0
C      1  0.4545610000000  0.4709160000000  0.5682590000000 1.0
C      1  0.4492420000000  0.5195550000000  0.5681510000000 1.0
C      1  0.4826290000000  0.5527560000000  0.5673450000000 1.0
C      1  0.5296580000000  0.5454000000000  0.5645710000000 1.0
C      1  0.4392100000000  0.4938760000000  0.5581020000000 1.0
C      1  0.4558750000000  0.5461750000000  0.5573780000000 1.0
C      1  0.5075620000000  0.5632860000000  0.5560060000000 1.0
C      1  0.5523360000000  0.5314970000000  0.5539990000000 1.0
C      1  0.5595200000000  0.4773020000000  0.5562360000000 1.0
C      1  0.5212160000000  0.4388080000000  0.5578340000000 1.0
C      1  0.4671240000000  0.4464100000000  0.5579690000000 1.0
C      1  0.5118200000000  0.5112080000000  0.4983440000000 1.0
C      1  0.5038890000000  0.5015600000000  0.4419300000000 1.0
C      1  0.5074810000000  0.5059030000000  0.4672560000000 1.0
C      1  0.4829600000000  0.4972470000000  0.5092960000000 1.0
C      1  0.5003090000000  0.4991210000000  0.4167640000000 1.0
END
