TITL C-2441159-1093-600 0.0163666973464482 125000 -12026.9386091726 0 0 84 (C1) n - 1
REM
REM in /home/bkarasulu/work/CARBON/AIRSS/Generating-Clusters/ReaxFF-fromJPCA2015/Units_Real/with-SteepDescent/Higher-Symm
REM
REM
REM
REM
REM
REM ./C.cell (1df0a924f5614ab8850e4351716899ee)
REM
REM compiler GCC version 9.2.1 20190827 (Red Hat 9.2.1-1)
REM options -cpp -mtune=generic -march=x86-64 -g -O0 -fpre-include=/usr/include/finclude/math-vector-fortran.h
REM seed 55216726 98353695 212606691 -397061391 -1919276621 -1027990984 -1700420302 1448630448 1918654512 -992983940 -1532792174 879519984 -403662616 1787892389 555034782 1256300121 2029589620 1571202010 -1894147215 217084948 -1140638274 -663475941 -56183966 875622440 -1171276233 -1706467718 -1678012009 -341328247 -1344805203 297978909 1490549281 -2111378345 1575488140
REM
CELL 1.54180   50.00000   50.00000   50.00000   90.00000   90.00000   90.00000
LATT -1
SFAC C  
C      1  0.5173430000000  0.4739910000000  0.5176240000000 1.0
C      1  0.5307470000000  0.5015580000000  0.4843500000000 1.0
C      1  0.5133600000000  0.5269440000000  0.5156840000000 1.0
C      1  0.4832800000000  0.5256410000000  0.4836010000000 1.0
C      1  0.4688480000000  0.4981620000000  0.5150090000000 1.0
C      1  0.4867750000000  0.4719780000000  0.4835480000000 1.0
C      1  0.5515720000000  0.4510810000000  0.5462430000000 1.0
C      1  0.5679600000000  0.5195790000000  0.4541810000000 1.0
C      1  0.5182130000000  0.5674870000000  0.5454280000000 1.0
C      1  0.4512600000000  0.5505220000000  0.4540780000000 1.0
C      1  0.4299040000000  0.4807140000000  0.5444730000000 1.0
C      1  0.4819630000000  0.4329120000000  0.4557990000000 1.0
C      1  0.5301230000000  0.5015760000000  0.5150860000000 1.0
C      1  0.5138260000000  0.5274510000000  0.4861030000000 1.0
C      1  0.4830150000000  0.5246230000000  0.5146870000000 1.0
C      1  0.4697840000000  0.4975730000000  0.4856270000000 1.0
C      1  0.4845170000000  0.4719310000000  0.5150080000000 1.0
C      1  0.5167920000000  0.4743310000000  0.4876570000000 1.0
C      1  0.4346770000000  0.5534960000000  0.4783950000000 1.0
C      1  0.4200740000000  0.4691490000000  0.5193780000000 1.0
C      1  0.4883420000000  0.4177340000000  0.4802050000000 1.0
C      1  0.5668620000000  0.4467510000000  0.5206850000000 1.0
C      1  0.5770810000000  0.5321520000000  0.4790240000000 1.0
C      1  0.5128140000000  0.5831120000000  0.5207760000000 1.0
C      1  0.4530200000000  0.4467390000000  0.4545410000000 1.0
C      1  0.5264160000000  0.4338580000000  0.5478020000000 1.0
C      1  0.5692850000000  0.4889670000000  0.4567680000000 1.0
C      1  0.5469770000000  0.5542390000000  0.5449260000000 1.0
C      1  0.4780480000000  0.5672300000000  0.4545280000000 1.0
C      1  0.4303090000000  0.5110950000000  0.5418640000000 1.0
C      1  0.4828750000000  0.5751670000000  0.4808020000000 1.0
C      1  0.4170550000000  0.5167560000000  0.5157150000000 1.0
C      1  0.4409260000000  0.4468860000000  0.4794880000000 1.0
C      1  0.5180120000000  0.4263070000000  0.5219080000000 1.0
C      1  0.5832580000000  0.4844780000000  0.4824420000000 1.0
C      1  0.5570840000000  0.5546950000000  0.5188760000000 1.0
C      1  0.5151010000000  0.4212270000000  0.4944140000000 1.0
C      1  0.5751680000000  0.4723400000000  0.5084210000000 1.0
C      1  0.5632360000000  0.5557720000000  0.4914970000000 1.0
C      1  0.4853240000000  0.5812360000000  0.5076570000000 1.0
C      1  0.4260140000000  0.5286820000000  0.4899740000000 1.0
C      1  0.4322240000000  0.4457330000000  0.5055100000000 1.0
C      1  0.5367090000000  0.5008730000000  0.4317040000000 1.0
C      1  0.5179770000000  0.5312530000000  0.5678600000000 1.0
C      1  0.4815110000000  0.5307380000000  0.4312780000000 1.0
C      1  0.4615390000000  0.4973550000000  0.5655720000000 1.0
C      1  0.4820810000000  0.4678870000000  0.4313450000000 1.0
C      1  0.5245650000000  0.4721130000000  0.5724240000000 1.0
C      1  0.5538240000000  0.5029200000000  0.5413240000000 1.0
C      1  0.5247770000000  0.5461060000000  0.4566290000000 1.0
C      1  0.4720040000000  0.5436280000000  0.5418620000000 1.0
C      1  0.4477160000000  0.4984670000000  0.4579160000000 1.0
C      1  0.4690550000000  0.4545130000000  0.5348270000000 1.0
C      1  0.5276880000000  0.4561300000000  0.4575770000000 1.0
C      1  0.5016870000000  0.4485110000000  0.4428770000000 1.0
C      1  0.5496470000000  0.4770140000000  0.5578840000000 1.0
C      1  0.5438860000000  0.5279990000000  0.4411100000000 1.0
C      1  0.4985130000000  0.5509630000000  0.5570350000000 1.0
C      1  0.4546630000000  0.5250020000000  0.4423740000000 1.0
C      1  0.4546200000000  0.4701370000000  0.5548540000000 1.0
C      1  0.4245550000000  0.5027610000000  0.4771450000000 1.0
C      1  0.4554280000000  0.4326350000000  0.5211570000000 1.0
C      1  0.5366260000000  0.4336760000000  0.4765760000000 1.0
C      1  0.5764520000000  0.4984690000000  0.5212460000000 1.0
C      1  0.5390760000000  0.5659990000000  0.4755890000000 1.0
C      1  0.4632070000000  0.5671850000000  0.5242410000000 1.0
C      1  0.4912470000000  0.5126080000000  0.4532550000000 1.0
C      1  0.4841160000000  0.4977440000000  0.5484490000000 1.0
C      1  0.4927520000000  0.4849530000000  0.4538130000000 1.0
C      1  0.5078440000000  0.4828300000000  0.5485860000000 1.0
C      1  0.5159750000000  0.5001460000000  0.4532960000000 1.0
C      1  0.5068430000000  0.5116010000000  0.5484770000000 1.0
C      1  0.4423960000000  0.5671480000000  0.5041350000000 1.0
C      1  0.4125200000000  0.4910030000000  0.5020460000000 1.0
C      1  0.4685420000000  0.4143090000000  0.5018990000000 1.0
C      1  0.5540650000000  0.4375650000000  0.4975270000000 1.0
C      1  0.5866600000000  0.5108300000000  0.4960590000000 1.0
C      1  0.5271400000000  0.5780120000000  0.4973550000000 1.0
C      1  0.5468870000000  0.4758250000000  0.4443050000000 1.0
C      1  0.5453080000000  0.5278110000000  0.5570260000000 1.0
C      1  0.4993280000000  0.5520690000000  0.4414020000000 1.0
C      1  0.4528100000000  0.5233280000000  0.5545130000000 1.0
C      1  0.4552360000000  0.4732460000000  0.4422770000000 1.0
C      1  0.5130640000000  0.4447860000000  0.5733930000000 1.0
END
