TITL C-2441154-10-244 0.114831156199739 125000 -26663.8634592315 0 0 199 (C1) n - 1
REM
REM in /home/bkarasulu/work/CARBON/AIRSS/Generating-Clusters/ReaxFF-fromJPCA2015/Units_Real/with-SteepDescent/Higher-Symm
REM
REM
REM
REM
REM
REM ./C.cell (1df0a924f5614ab8850e4351716899ee)
REM
REM compiler GCC version 9.2.1 20190827 (Red Hat 9.2.1-1)
REM options -cpp -mtune=generic -march=x86-64 -g -O0 -fpre-include=/usr/include/finclude/math-vector-fortran.h
REM seed -113138919 1743733241 803495921 343649709 -1602943162 -880418691 -532523465 366012966 -529120945 -1641343270 574853145 -1966560154 -2049820833 -368439459 -857257835 1302100982 803808116 810146978 1576323942 274627277 -745677282 -2007207838 1900210985 -2058789581 -356344953 -558834750 1995767562 -1593618429 902640259 -1636360666 1718646519 768551751 714637406
REM
CELL 1.54180   50.00000   50.00000   50.00000   90.00000   90.00000   90.00000
LATT -1
SFAC C  
C      1  0.4752150000000  0.4818310000000  0.5556100000000 1.0
C      1  0.4546130000000  0.4722460000000  0.5336180000000 1.0
C      1  0.4421890000000  0.4815960000000  0.5019640000000 1.0
C      1  0.4601450000000  0.4776210000000  0.4786710000000 1.0
C      1  0.4736030000000  0.4832310000000  0.4485790000000 1.0
C      1  0.5031070000000  0.4834140000000  0.4466580000000 1.0
C      1  0.5313810000000  0.4793690000000  0.4582090000000 1.0
C      1  0.5295150000000  0.4735640000000  0.4867700000000 1.0
C      1  0.5404440000000  0.4858910000000  0.5108570000000 1.0
C      1  0.5366380000000  0.4828090000000  0.5415170000000 1.0
C      1  0.5075930000000  0.4804890000000  0.5592820000000 1.0
C      1  0.5662110000000  0.5176660000000  0.4009490000000 1.0
C      1  0.6110420000000  0.5177040000000  0.4509120000000 1.0
C      1  0.6181950000000  0.5155820000000  0.5251480000000 1.0
C      1  0.5888550000000  0.5168480000000  0.5725380000000 1.0
C      1  0.5265760000000  0.5161970000000  0.6170330000000 1.0
C      1  0.4696830000000  0.5178000000000  0.6103500000000 1.0
C      1  0.4026120000000  0.5182000000000  0.5684370000000 1.0
C      1  0.3807080000000  0.5143490000000  0.5144510000000 1.0
C      1  0.3933470000000  0.5179160000000  0.4581440000000 1.0
C      1  0.4387090000000  0.5162500000000  0.3968320000000 1.0
C      1  0.4942300000000  0.5149590000000  0.3840270000000 1.0
C      1  0.4926290000000  0.5954920000000  0.4346270000000 1.0
C      1  0.5213390000000  0.5958000000000  0.4328130000000 1.0
C      1  0.5465010000000  0.5932030000000  0.4537610000000 1.0
C      1  0.5638530000000  0.5920330000000  0.4794830000000 1.0
C      1  0.5577720000000  0.5942740000000  0.5313800000000 1.0
C      1  0.5448720000000  0.5928880000000  0.5567360000000 1.0
C      1  0.4916340000000  0.5921500000000  0.5635460000000 1.0
C      1  0.4642220000000  0.5951040000000  0.5556110000000 1.0
C      1  0.4411990000000  0.5913530000000  0.5237180000000 1.0
C      1  0.4319450000000  0.5939380000000  0.4944960000000 1.0
C      1  0.4445930000000  0.5936720000000  0.4682470000000 1.0
C      1  0.5800300000000  0.4227310000000  0.4598770000000 1.0
C      1  0.5941540000000  0.4225260000000  0.5108480000000 1.0
C      1  0.5738510000000  0.4243660000000  0.5583880000000 1.0
C      1  0.5283920000000  0.4201870000000  0.5828590000000 1.0
C      1  0.4807170000000  0.4189060000000  0.5766930000000 1.0
C      1  0.4394350000000  0.4194720000000  0.5538740000000 1.0
C      1  0.4137860000000  0.4277120000000  0.5160610000000 1.0
C      1  0.4295490000000  0.4167580000000  0.4693960000000 1.0
C      1  0.4494030000000  0.4263410000000  0.4270780000000 1.0
C      1  0.4971620000000  0.4146310000000  0.4154690000000 1.0
C      1  0.5468180000000  0.4245010000000  0.4204830000000 1.0
C      1  0.4778610000000  0.4062110000000  0.5476720000000 1.0
C      1  0.4530600000000  0.4026490000000  0.5336010000000 1.0
C      1  0.4535460000000  0.4086270000000  0.5037240000000 1.0
C      1  0.4538120000000  0.4013460000000  0.4750690000000 1.0
C      1  0.4775360000000  0.4100820000000  0.4598790000000 1.0
C      1  0.5030000000000  0.4059120000000  0.4440060000000 1.0
C      1  0.5300840000000  0.4042750000000  0.4639610000000 1.0
C      1  0.5399270000000  0.3995250000000  0.4885450000000 1.0
C      1  0.5506420000000  0.4070720000000  0.5125680000000 1.0
C      1  0.5385660000000  0.4073260000000  0.5394750000000 1.0
C      1  0.5161310000000  0.4062120000000  0.5593790000000 1.0
C      1  0.4515700000000  0.5750110000000  0.5709590000000 1.0
C      1  0.4212210000000  0.5726760000000  0.5340460000000 1.0
C      1  0.4123280000000  0.5743040000000  0.4862490000000 1.0
C      1  0.4376500000000  0.5756720000000  0.4445170000000 1.0
C      1  0.4805470000000  0.5752170000000  0.4161010000000 1.0
C      1  0.5284620000000  0.5732480000000  0.4168980000000 1.0
C      1  0.5689860000000  0.5721110000000  0.4432750000000 1.0
C      1  0.5870330000000  0.5765750000000  0.4880180000000 1.0
C      1  0.5791530000000  0.5749760000000  0.5410020000000 1.0
C      1  0.5454690000000  0.5718760000000  0.5761230000000 1.0
C      1  0.4949350000000  0.5721600000000  0.5862240000000 1.0
C      1  0.5960290000000  0.4837390000000  0.4882560000000 1.0
C      1  0.5815600000000  0.4822190000000  0.5417570000000 1.0
C      1  0.5550460000000  0.4839490000000  0.5888890000000 1.0
C      1  0.4976450000000  0.4780430000000  0.6058070000000 1.0
C      1  0.4416780000000  0.4836150000000  0.5877740000000 1.0
C      1  0.4058010000000  0.4804590000000  0.5410160000000 1.0
C      1  0.3959880000000  0.4807060000000  0.4803160000000 1.0
C      1  0.4247010000000  0.4825150000000  0.4334630000000 1.0
C      1  0.4752670000000  0.4810900000000  0.4000890000000 1.0
C      1  0.5270730000000  0.4849210000000  0.4060100000000 1.0
C      1  0.5810360000000  0.4824050000000  0.4357020000000 1.0
C      1  0.4818620000000  0.5577790000000  0.5391300000000 1.0
C      1  0.4662850000000  0.5745410000000  0.5215720000000 1.0
C      1  0.4625590000000  0.5586850000000  0.4981350000000 1.0
C      1  0.4648750000000  0.5746380000000  0.4748970000000 1.0
C      1  0.4866000000000  0.5808020000000  0.4594220000000 1.0
C      1  0.5076890000000  0.5627110000000  0.4602160000000 1.0
C      1  0.5288030000000  0.5758500000000  0.4685360000000 1.0
C      1  0.5448030000000  0.5697050000000  0.4892690000000 1.0
C      1  0.5385910000000  0.5796980000000  0.5149780000000 1.0
C      1  0.5282330000000  0.5639930000000  0.5346270000000 1.0
C      1  0.5035300000000  0.5746320000000  0.5430130000000 1.0
C      1  0.5520180000000  0.4400790000000  0.5128780000000 1.0
C      1  0.5353960000000  0.4366540000000  0.5367460000000 1.0
C      1  0.5089080000000  0.4333660000000  0.5466310000000 1.0
C      1  0.4847460000000  0.4306690000000  0.5350880000000 1.0
C      1  0.4671240000000  0.4490120000000  0.5229510000000 1.0
C      1  0.4590430000000  0.4362540000000  0.5008410000000 1.0
C      1  0.4673450000000  0.4509920000000  0.4793510000000 1.0
C      1  0.4819870000000  0.4377400000000  0.4595270000000 1.0
C      1  0.5082010000000  0.4387330000000  0.4462530000000 1.0
C      1  0.5289420000000  0.4328410000000  0.4661350000000 1.0
C      1  0.5353430000000  0.4473130000000  0.4896780000000 1.0
C      1  0.5403150000000  0.5265780000000  0.3951160000000 1.0
C      1  0.5894900000000  0.5238020000000  0.4343400000000 1.0
C      1  0.6142630000000  0.5268760000000  0.4992090000000 1.0
C      1  0.5986140000000  0.5262340000000  0.5462540000000 1.0
C      1  0.5469230000000  0.5244100000000  0.5985690000000 1.0
C      1  0.4980480000000  0.5249460000000  0.6085030000000 1.0
C      1  0.4252080000000  0.5343290000000  0.5784280000000 1.0
C      1  0.3982440000000  0.5227950000000  0.5380260000000 1.0
C      1  0.3882930000000  0.5240410000000  0.4868200000000 1.0
C      1  0.4237730000000  0.5217910000000  0.4206460000000 1.0
C      1  0.4683300000000  0.5247330000000  0.3940850000000 1.0
C      1  0.5196200000000  0.5572860000000  0.5861080000000 1.0
C      1  0.4688390000000  0.5590710000000  0.5870850000000 1.0
C      1  0.4262050000000  0.5583840000000  0.5607040000000 1.0
C      1  0.4099160000000  0.5589600000000  0.5113820000000 1.0
C      1  0.4190200000000  0.5619850000000  0.4597810000000 1.0
C      1  0.4570970000000  0.5615990000000  0.4258490000000 1.0
C      1  0.5042400000000  0.5612410000000  0.4060790000000 1.0
C      1  0.5538460000000  0.5583280000000  0.4238190000000 1.0
C      1  0.5881790000000  0.5624920000000  0.4634880000000 1.0
C      1  0.5903110000000  0.5641060000000  0.5159490000000 1.0
C      1  0.5678220000000  0.5591990000000  0.5634220000000 1.0
C      1  0.4137160000000  0.5323770000000  0.4991480000000 1.0
C      1  0.4197390000000  0.5303130000000  0.4503120000000 1.0
C      1  0.4669890000000  0.5338670000000  0.4219420000000 1.0
C      1  0.5126720000000  0.5342320000000  0.3967620000000 1.0
C      1  0.5609850000000  0.5289760000000  0.4310500000000 1.0
C      1  0.5973590000000  0.5330310000000  0.4748370000000 1.0
C      1  0.5831940000000  0.5375880000000  0.5241000000000 1.0
C      1  0.5605640000000  0.5277790000000  0.5717680000000 1.0
C      1  0.5090450000000  0.5302140000000  0.5820660000000 1.0
C      1  0.4564120000000  0.5308120000000  0.5868050000000 1.0
C      1  0.4253020000000  0.5323380000000  0.5381560000000 1.0
C      1  0.4651220000000  0.5319960000000  0.5002860000000 1.0
C      1  0.4635980000000  0.5183880000000  0.4782110000000 1.0
C      1  0.4797800000000  0.5249770000000  0.4612220000000 1.0
C      1  0.5033420000000  0.5366750000000  0.4697090000000 1.0
C      1  0.5270850000000  0.5221590000000  0.4703640000000 1.0
C      1  0.5467860000000  0.5357870000000  0.4858040000000 1.0
C      1  0.5570980000000  0.5273250000000  0.5142170000000 1.0
C      1  0.5346950000000  0.5361390000000  0.5326410000000 1.0
C      1  0.5125920000000  0.5189580000000  0.5365450000000 1.0
C      1  0.4862730000000  0.5291840000000  0.5393820000000 1.0
C      1  0.4679810000000  0.5180760000000  0.5222490000000 1.0
C      1  0.4170350000000  0.4340280000000  0.5425490000000 1.0
C      1  0.4139490000000  0.4319230000000  0.4898840000000 1.0
C      1  0.4268120000000  0.4307560000000  0.4432660000000 1.0
C      1  0.4724210000000  0.4312950000000  0.4150930000000 1.0
C      1  0.5229510000000  0.4277080000000  0.4059010000000 1.0
C      1  0.5663330000000  0.4329390000000  0.4379970000000 1.0
C      1  0.5945240000000  0.4299990000000  0.4824510000000 1.0
C      1  0.5883760000000  0.4210850000000  0.5367530000000 1.0
C      1  0.5548870000000  0.4334900000000  0.5769700000000 1.0
C      1  0.5039450000000  0.4330210000000  0.5887460000000 1.0
C      1  0.4561780000000  0.4328780000000  0.5742630000000 1.0
C      1  0.4737230000000  0.4692170000000  0.6076050000000 1.0
C      1  0.4184720000000  0.4700240000000  0.5780310000000 1.0
C      1  0.3934900000000  0.4678650000000  0.5190320000000 1.0
C      1  0.3915290000000  0.4706910000000  0.4538380000000 1.0
C      1  0.4376620000000  0.4708520000000  0.4111960000000 1.0
C      1  0.4964050000000  0.4656450000000  0.3880370000000 1.0
C      1  0.5520220000000  0.4721790000000  0.4082640000000 1.0
C      1  0.6033150000000  0.4705710000000  0.4495510000000 1.0
C      1  0.6039880000000  0.4679600000000  0.5115370000000 1.0
C      1  0.5858890000000  0.4686730000000  0.5666860000000 1.0
C      1  0.5366820000000  0.4698330000000  0.6061040000000 1.0
C      1  0.5357530000000  0.5075100000000  0.4477780000000 1.0
C      1  0.5686460000000  0.5150690000000  0.4743420000000 1.0
C      1  0.5651460000000  0.4988340000000  0.5016670000000 1.0
C      1  0.5555670000000  0.5037580000000  0.5475100000000 1.0
C      1  0.5131100000000  0.5087990000000  0.5628400000000 1.0
C      1  0.4674910000000  0.5103560000000  0.5618300000000 1.0
C      1  0.4471560000000  0.5143300000000  0.5408840000000 1.0
C      1  0.4314050000000  0.5091400000000  0.4976870000000 1.0
C      1  0.4370100000000  0.5107340000000  0.4702540000000 1.0
C      1  0.4680670000000  0.5119640000000  0.4404580000000 1.0
C      1  0.5151190000000  0.5012650000000  0.4279050000000 1.0
C      1  0.5563590000000  0.4656680000000  0.4369810000000 1.0
C      1  0.5913250000000  0.4592120000000  0.4733840000000 1.0
C      1  0.5789440000000  0.4584280000000  0.5230520000000 1.0
C      1  0.5575990000000  0.4622520000000  0.5689630000000 1.0
C      1  0.5122060000000  0.4629570000000  0.5873480000000 1.0
C      1  0.4626790000000  0.4629900000000  0.5808520000000 1.0
C      1  0.4260120000000  0.4630930000000  0.5493640000000 1.0
C      1  0.4132590000000  0.4642360000000  0.4969940000000 1.0
C      1  0.4166600000000  0.4585710000000  0.4457860000000 1.0
C      1  0.4645580000000  0.4638590000000  0.4212810000000 1.0
C      1  0.5119870000000  0.4546820000000  0.4102800000000 1.0
C      1  0.3790870000000  0.4872990000000  0.5033940000000 1.0
C      1  0.3984880000000  0.4957510000000  0.4396510000000 1.0
C      1  0.4482680000000  0.4885700000000  0.3913080000000 1.0
C      1  0.5096860000000  0.4904230000000  0.3809280000000 1.0
C      1  0.5750010000000  0.4896750000000  0.4076830000000 1.0
C      1  0.6143910000000  0.4919840000000  0.4650850000000 1.0
C      1  0.6105620000000  0.4874160000000  0.5315640000000 1.0
C      1  0.5836880000000  0.4908660000000  0.5848760000000 1.0
C      1  0.5201480000000  0.4875850000000  0.6210410000000 1.0
C      1  0.4565690000000  0.4918250000000  0.6115230000000 1.0
C      1  0.3993580000000  0.4891120000000  0.5679180000000 1.0
C      1  0.5021040000000  0.5488130000000  0.5003020000000 1.0
END
