TITL C-2441162-9305-1308 0.00817423446534635 125000 -4377.36299595797 0 0 33 (C1) n - 1
REM
REM in /home/bkarasulu/work/CARBON/AIRSS/Generating-Clusters/ReaxFF-fromJPCA2015/Units_Real/with-SteepDescent/Higher-Symm
REM
REM
REM
REM
REM
REM ./C.cell (1df0a924f5614ab8850e4351716899ee)
REM
REM compiler GCC version 9.2.1 20190827 (Red Hat 9.2.1-1)
REM options -cpp -mtune=generic -march=x86-64 -g -O0 -fpre-include=/usr/include/finclude/math-vector-fortran.h
REM seed 743286965 2025928743 -32064192 -1674767533 -736437039 -1816216488 -2135750744 374345379 1618414065 591495900 632001373 1025832767 155945927 1052744622 376388238 -493997717 -2041166657 -1142901460 146404266 1870625767 -1519427207 -1843502287 -2049976465 -1181131044 -2025868242 1599511139 87590503 1020012771 1281355642 1016163174 2060915273 1319424900 1152403543
REM
CELL 1.54180   50.00000   50.00000   50.00000   90.00000   90.00000   90.00000
LATT -1
SFAC C  
C      1  0.5342990000000  0.5228220000000  0.4882250000000 1.0
C      1  0.4698530000000  0.5225390000000  0.5126640000000 1.0
C      1  0.4700740000000  0.4790860000000  0.4870270000000 1.0
C      1  0.5339690000000  0.4783480000000  0.5113690000000 1.0
C      1  0.4884490000000  0.5271540000000  0.5392120000000 1.0
C      1  0.5152850000000  0.5248480000000  0.4663170000000 1.0
C      1  0.4883510000000  0.4741860000000  0.4604650000000 1.0
C      1  0.5151120000000  0.4763210000000  0.5334350000000 1.0
C      1  0.4915870000000  0.5087460000000  0.5623000000000 1.0
C      1  0.5158610000000  0.5101260000000  0.4403620000000 1.0
C      1  0.5159400000000  0.4910690000000  0.5593540000000 1.0
C      1  0.4913710000000  0.4926690000000  0.4373770000000 1.0
C      1  0.5619500000000  0.5087870000000  0.4868760000000 1.0
C      1  0.4395990000000  0.5084820000000  0.5108670000000 1.0
C      1  0.5609920000000  0.4933180000000  0.5118910000000 1.0
C      1  0.4393360000000  0.4923170000000  0.4883750000000 1.0
C      1  0.5097940000000  0.4558450000000  0.4683200000000 1.0
C      1  0.4938010000000  0.4552000000000  0.5301660000000 1.0
C      1  0.4943390000000  0.5462750000000  0.4698640000000 1.0
C      1  0.5101360000000  0.5452130000000  0.5313650000000 1.0
C      1  0.4733160000000  0.4549850000000  0.5080150000000 1.0
C      1  0.5301080000000  0.4580800000000  0.4900890000000 1.0
C      1  0.4735280000000  0.5466670000000  0.4917240000000 1.0
C      1  0.5305550000000  0.5429020000000  0.5097120000000 1.0
C      1  0.4734040000000  0.5706640000000  0.5064300000000 1.0
C      1  0.5259460000000  0.5635530000000  0.4905540000000 1.0
C      1  0.5251000000000  0.4376000000000  0.5093500000000 1.0
C      1  0.4726630000000  0.4309730000000  0.4932830000000 1.0
C      1  0.5101870000000  0.5701210000000  0.4715870000000 1.0
C      1  0.4911260000000  0.5654590000000  0.5240860000000 1.0
C      1  0.5093010000000  0.4311440000000  0.5283620000000 1.0
C      1  0.4905200000000  0.4358610000000  0.4756270000000 1.0
C      1  0.4861860000000  0.5009350000000  0.4998280000000 1.0
END
