TITL C-2441164-471-392 0.213677762699194 125000 -19693.274244156 0 0 164 (C1) n - 1
REM
REM in /home/bkarasulu/work/CARBON/AIRSS/Generating-Clusters/ReaxFF-fromJPCA2015/Units_Real/with-SteepDescent/Higher-Symm
REM
REM
REM
REM
REM
REM ./C.cell (1df0a924f5614ab8850e4351716899ee)
REM
REM compiler GCC version 9.2.1 20190827 (Red Hat 9.2.1-1)
REM options -cpp -mtune=generic -march=x86-64 -g -O0 -fpre-include=/usr/include/finclude/math-vector-fortran.h
REM seed -686771057 -205999021 933756545 -1442954053 -2115759785 -1922553979 1399416599 593177805 -161119748 502177450 1503868169 1956817070 2136396738 741430369 -279471944 1279901775 446025093 -1049744940 1727903972 -558639548 1992485465 1451832520 -1846658326 -1479794262 -1743891266 114673327 130528864 1622607889 -1189592451 -548906723 1292960499 -156209889 1527675470
REM
CELL 1.54180   50.00000   50.00000   50.00000   90.00000   90.00000   90.00000
LATT -1
SFAC C  
C      1  0.5691870000000  0.4432910000000  0.4633990000000 1.0
C      1  0.5685170000000  0.5381990000000  0.4432370000000 1.0
C      1  0.5702640000000  0.5553920000000  0.5305350000000 1.0
C      1  0.5702960000000  0.4691170000000  0.5564030000000 1.0
C      1  0.4291740000000  0.4436570000000  0.4707020000000 1.0
C      1  0.4294670000000  0.5298540000000  0.4430350000000 1.0
C      1  0.4301370000000  0.5567790000000  0.5295050000000 1.0
C      1  0.4298840000000  0.4703990000000  0.5571440000000 1.0
C      1  0.4065400000000  0.4636060000000  0.5028300000000 1.0
C      1  0.4097910000000  0.4975720000000  0.4658030000000 1.0
C      1  0.4064680000000  0.5368010000000  0.4972170000000 1.0
C      1  0.4069740000000  0.5029130000000  0.5360960000000 1.0
C      1  0.5926900000000  0.4634980000000  0.5019480000000 1.0
C      1  0.5908200000000  0.4989820000000  0.4641680000000 1.0
C      1  0.5922260000000  0.5357320000000  0.4979040000000 1.0
C      1  0.5935800000000  0.5020280000000  0.5364280000000 1.0
C      1  0.4856070000000  0.5408030000000  0.4131200000000 1.0
C      1  0.4861270000000  0.5869300000000  0.5410560000000 1.0
C      1  0.4863400000000  0.4594160000000  0.5851390000000 1.0
C      1  0.4862520000000  0.4142520000000  0.4587620000000 1.0
C      1  0.5132980000000  0.5389110000000  0.4096300000000 1.0
C      1  0.5136250000000  0.5900300000000  0.5395580000000 1.0
C      1  0.5133730000000  0.4605720000000  0.5902350000000 1.0
C      1  0.5133500000000  0.4098710000000  0.4607280000000 1.0
C      1  0.5205730000000  0.5243470000000  0.5436480000000 1.0
C      1  0.5204540000000  0.4563110000000  0.5245190000000 1.0
C      1  0.5149290000000  0.4727490000000  0.4541400000000 1.0
C      1  0.5206270000000  0.5431400000000  0.4756120000000 1.0
C      1  0.4798230000000  0.5261530000000  0.5431230000000 1.0
C      1  0.4793750000000  0.4586150000000  0.5240450000000 1.0
C      1  0.4852880000000  0.4719700000000  0.4558460000000 1.0
C      1  0.4792860000000  0.5421630000000  0.4745530000000 1.0
C      1  0.5255850000000  0.5929810000000  0.4733420000000 1.0
C      1  0.5255380000000  0.5264310000000  0.5936180000000 1.0
C      1  0.5249860000000  0.4062130000000  0.5264690000000 1.0
C      1  0.5251420000000  0.4736860000000  0.4063040000000 1.0
C      1  0.4733710000000  0.5955700000000  0.4754650000000 1.0
C      1  0.4725260000000  0.5233360000000  0.5963770000000 1.0
C      1  0.4725890000000  0.4039350000000  0.5235470000000 1.0
C      1  0.4724340000000  0.4755570000000  0.4040620000000 1.0
C      1  0.5515330000000  0.5598690000000  0.4461410000000 1.0
C      1  0.5474220000000  0.5586610000000  0.5627960000000 1.0
C      1  0.5466080000000  0.4370750000000  0.5559990000000 1.0
C      1  0.5515830000000  0.4462080000000  0.4420010000000 1.0
C      1  0.4546040000000  0.5661340000000  0.4404980000000 1.0
C      1  0.4546300000000  0.5578350000000  0.5656860000000 1.0
C      1  0.4553390000000  0.4346240000000  0.5575240000000 1.0
C      1  0.4542540000000  0.4397090000000  0.4336040000000 1.0
C      1  0.4111540000000  0.4538860000000  0.5422830000000 1.0
C      1  0.4100600000000  0.4574820000000  0.4541370000000 1.0
C      1  0.4105050000000  0.5461060000000  0.4575790000000 1.0
C      1  0.4113510000000  0.5422500000000  0.5461770000000 1.0
C      1  0.5886290000000  0.4536340000000  0.5423310000000 1.0
C      1  0.5904850000000  0.4599370000000  0.4526830000000 1.0
C      1  0.5905650000000  0.5481570000000  0.4589710000000 1.0
C      1  0.5894470000000  0.5418040000000  0.5452940000000 1.0
C      1  0.5156630000000  0.5766410000000  0.4281190000000 1.0
C      1  0.5122510000000  0.5718340000000  0.5777290000000 1.0
C      1  0.5154260000000  0.4202600000000  0.5724200000000 1.0
C      1  0.5198040000000  0.4310760000000  0.4214110000000 1.0
C      1  0.4927410000000  0.5829690000000  0.4352790000000 1.0
C      1  0.4907050000000  0.5637420000000  0.5849640000000 1.0
C      1  0.4897140000000  0.4152730000000  0.5642300000000 1.0
C      1  0.4941220000000  0.4352420000000  0.4163270000000 1.0
C      1  0.5223540000000  0.5208560000000  0.4544760000000 1.0
C      1  0.5229870000000  0.5454440000000  0.5220170000000 1.0
C      1  0.5231740000000  0.4785510000000  0.5455020000000 1.0
C      1  0.5240890000000  0.4547790000000  0.4782690000000 1.0
C      1  0.4763710000000  0.5184110000000  0.4549430000000 1.0
C      1  0.4769440000000  0.5455070000000  0.5205000000000 1.0
C      1  0.4763790000000  0.4807280000000  0.5457460000000 1.0
C      1  0.4760900000000  0.4553620000000  0.4789700000000 1.0
C      1  0.4154200000000  0.4837690000000  0.4401950000000 1.0
C      1  0.4156610000000  0.5602350000000  0.4833200000000 1.0
C      1  0.4156560000000  0.5162630000000  0.5600880000000 1.0
C      1  0.4161820000000  0.4400560000000  0.5164120000000 1.0
C      1  0.5840970000000  0.4850450000000  0.4391760000000 1.0
C      1  0.5846660000000  0.5609640000000  0.4846660000000 1.0
C      1  0.5844440000000  0.5162120000000  0.5599140000000 1.0
C      1  0.5838470000000  0.4395110000000  0.5160220000000 1.0
C      1  0.5992990000000  0.4755860000000  0.5269940000000 1.0
C      1  0.5991220000000  0.4739180000000  0.4758450000000 1.0
C      1  0.5996620000000  0.5248370000000  0.4724730000000 1.0
C      1  0.6004580000000  0.5264520000000  0.5239380000000 1.0
C      1  0.4003960000000  0.4760220000000  0.5274390000000 1.0
C      1  0.4004490000000  0.4729310000000  0.4764430000000 1.0
C      1  0.3999990000000  0.5239440000000  0.4728840000000 1.0
C      1  0.4005260000000  0.5275050000000  0.5239760000000 1.0
C      1  0.4879060000000  0.5010960000000  0.5324340000000 1.0
C      1  0.4873330000000  0.4713940000000  0.4990210000000 1.0
C      1  0.4855060000000  0.4969300000000  0.4699810000000 1.0
C      1  0.4875360000000  0.5311820000000  0.5001240000000 1.0
C      1  0.5117550000000  0.4996530000000  0.5317550000000 1.0
C      1  0.5120310000000  0.4680990000000  0.4995260000000 1.0
C      1  0.5114740000000  0.4987960000000  0.4681030000000 1.0
C      1  0.5113800000000  0.5327250000000  0.5009400000000 1.0
C      1  0.5571120000000  0.4204350000000  0.4492920000000 1.0
C      1  0.5575090000000  0.5531380000000  0.4202730000000 1.0
C      1  0.5640230000000  0.5725230000000  0.5487930000000 1.0
C      1  0.5624180000000  0.4499440000000  0.5729380000000 1.0
C      1  0.4381820000000  0.4294670000000  0.4495170000000 1.0
C      1  0.4379780000000  0.5511750000000  0.4286020000000 1.0
C      1  0.4387190000000  0.5719880000000  0.5509870000000 1.0
C      1  0.4385400000000  0.4487490000000  0.5716070000000 1.0
C      1  0.4725530000000  0.5656250000000  0.4201760000000 1.0
C      1  0.4706850000000  0.5799760000000  0.5646720000000 1.0
C      1  0.4716170000000  0.4357820000000  0.5797970000000 1.0
C      1  0.4736540000000  0.4208520000000  0.4341660000000 1.0
C      1  0.5314230000000  0.5622080000000  0.4106420000000 1.0
C      1  0.5315410000000  0.5858380000000  0.5641450000000 1.0
C      1  0.5320150000000  0.4374160000000  0.5878790000000 1.0
C      1  0.5318680000000  0.4116440000000  0.4380800000000 1.0
C      1  0.4482980000000  0.4858820000000  0.4648800000000 1.0
C      1  0.4522830000000  0.5372840000000  0.4843660000000 1.0
C      1  0.4526670000000  0.5166930000000  0.5373420000000 1.0
C      1  0.4522530000000  0.4639030000000  0.5158660000000 1.0
C      1  0.5488700000000  0.4866030000000  0.4666510000000 1.0
C      1  0.5472140000000  0.5359380000000  0.4857630000000 1.0
C      1  0.5474790000000  0.5147160000000  0.5371420000000 1.0
C      1  0.5474290000000  0.4625600000000  0.5154910000000 1.0
C      1  0.5536660000000  0.5361540000000  0.5163670000000 1.0
C      1  0.5535420000000  0.4832290000000  0.5369700000000 1.0
C      1  0.5525760000000  0.4644300000000  0.4851540000000 1.0
C      1  0.5529040000000  0.5151330000000  0.4654030000000 1.0
C      1  0.4461210000000  0.5360800000000  0.5144920000000 1.0
C      1  0.4456930000000  0.4854350000000  0.5361810000000 1.0
C      1  0.4467580000000  0.4638440000000  0.4846490000000 1.0
C      1  0.4461540000000  0.5154970000000  0.4634490000000 1.0
C      1  0.5627780000000  0.4190360000000  0.5145880000000 1.0
C      1  0.5627410000000  0.4847610000000  0.4191710000000 1.0
C      1  0.5632280000000  0.5809890000000  0.4860260000000 1.0
C      1  0.5631690000000  0.5148780000000  0.5802770000000 1.0
C      1  0.4360990000000  0.4188940000000  0.5131770000000 1.0
C      1  0.4360370000000  0.4857320000000  0.4194590000000 1.0
C      1  0.4363440000000  0.5806720000000  0.4856050000000 1.0
C      1  0.4359840000000  0.5132760000000  0.5809880000000 1.0
C      1  0.4799440000000  0.4837320000000  0.5739540000000 1.0
C      1  0.4800090000000  0.4264780000000  0.4837050000000 1.0
C      1  0.4777720000000  0.5165660000000  0.4259860000000 1.0
C      1  0.4782400000000  0.5742370000000  0.5169490000000 1.0
C      1  0.5200610000000  0.4841190000000  0.5748530000000 1.0
C      1  0.5196280000000  0.4253630000000  0.4841740000000 1.0
C      1  0.5221720000000  0.5172200000000  0.4257350000000 1.0
C      1  0.5215770000000  0.5745400000000  0.5174150000000 1.0
C      1  0.4602430000000  0.4982610000000  0.5897280000000 1.0
C      1  0.4607370000000  0.4105250000000  0.4986550000000 1.0
C      1  0.4602140000000  0.5006540000000  0.4099790000000 1.0
C      1  0.4603510000000  0.5897470000000  0.5008230000000 1.0
C      1  0.5387400000000  0.5009630000000  0.5894760000000 1.0
C      1  0.5381020000000  0.4102760000000  0.5008870000000 1.0
C      1  0.5383210000000  0.4987010000000  0.4109970000000 1.0
C      1  0.5382100000000  0.5895680000000  0.4994630000000 1.0
C      1  0.5484540000000  0.4161610000000  0.5397070000000 1.0
C      1  0.5477450000000  0.4596620000000  0.4172810000000 1.0
C      1  0.5492780000000  0.5824500000000  0.4610560000000 1.0
C      1  0.5485720000000  0.5401780000000  0.5827830000000 1.0
C      1  0.4506550000000  0.4141080000000  0.5383110000000 1.0
C      1  0.4510240000000  0.4610650000000  0.4151200000000 1.0
C      1  0.4514210000000  0.5848000000000  0.4612570000000 1.0
C      1  0.4507450000000  0.5380110000000  0.5858970000000 1.0
C      1  0.4987610000000  0.5900760000000  0.4630800000000 1.0
C      1  0.4979910000000  0.5352510000000  0.5915410000000 1.0
C      1  0.4974860000000  0.4100640000000  0.5360010000000 1.0
C      1  0.4979970000000  0.4639150000000  0.4086380000000 1.0
END
