TITL C-2441154-10-1329 0.0202207804432625 125000 -12270.044427269 0 0 90 (C1) n - 1
REM
REM in /home/bkarasulu/work/CARBON/AIRSS/Generating-Clusters/ReaxFF-fromJPCA2015/Units_Real/with-SteepDescent/Higher-Symm
REM
REM
REM
REM
REM
REM ./C.cell (1df0a924f5614ab8850e4351716899ee)
REM
REM compiler GCC version 9.2.1 20190827 (Red Hat 9.2.1-1)
REM options -cpp -mtune=generic -march=x86-64 -g -O0 -fpre-include=/usr/include/finclude/math-vector-fortran.h
REM seed -306836897 -657170408 213401310 758478635 -363223665 -711290766 1363316113 -1487314312 884414487 -1210214405 1536539998 384383598 1392080521 166307506 745419418 -1151294998 -829439032 -2106931744 594093684 -1735686542 -799624295 -1046410855 2047564571 732609917 -1449425250 -1446289017 1792881506 -750397691 1723378601 -638984864 1716961865 1581541944 -1943223292
REM
CELL 1.54180   50.00000   50.00000   50.00000   90.00000   90.00000   90.00000
LATT -1
SFAC C  
C      1  0.5494640000000  0.4862690000000  0.5234660000000 1.0
C      1  0.5500440000000  0.5129670000000  0.5243970000000 1.0
C      1  0.5086520000000  0.5777990000000  0.5030020000000 1.0
C      1  0.5068830000000  0.4215100000000  0.5024720000000 1.0
C      1  0.4850970000000  0.4387680000000  0.5495510000000 1.0
C      1  0.4853220000000  0.5613770000000  0.5489150000000 1.0
C      1  0.5470770000000  0.5270690000000  0.4355870000000 1.0
C      1  0.5469670000000  0.4732450000000  0.4356030000000 1.0
C      1  0.5476140000000  0.4788900000000  0.4969990000000 1.0
C      1  0.5483720000000  0.5211590000000  0.4974740000000 1.0
C      1  0.5224790000000  0.4862820000000  0.4221100000000 1.0
C      1  0.5225250000000  0.5143430000000  0.4222330000000 1.0
C      1  0.4583980000000  0.5571430000000  0.5383410000000 1.0
C      1  0.4580180000000  0.4423520000000  0.5391710000000 1.0
C      1  0.5205000000000  0.4448430000000  0.5133410000000 1.0
C      1  0.5203220000000  0.5540400000000  0.5146230000000 1.0
C      1  0.4717950000000  0.5148340000000  0.4716090000000 1.0
C      1  0.4718950000000  0.4851150000000  0.4713420000000 1.0
C      1  0.4435330000000  0.4755390000000  0.5160380000000 1.0
C      1  0.4441280000000  0.5231100000000  0.5164870000000 1.0
C      1  0.4489100000000  0.4466070000000  0.4578370000000 1.0
C      1  0.4480400000000  0.5537980000000  0.4567790000000 1.0
C      1  0.5319210000000  0.5489210000000  0.4502620000000 1.0
C      1  0.5328590000000  0.4508860000000  0.4503630000000 1.0
C      1  0.5319220000000  0.5656060000000  0.4735370000000 1.0
C      1  0.5322250000000  0.4346240000000  0.4743350000000 1.0
C      1  0.5049600000000  0.4858860000000  0.5300680000000 1.0
C      1  0.5040340000000  0.5141430000000  0.5309220000000 1.0
C      1  0.5496150000000  0.4418090000000  0.5179520000000 1.0
C      1  0.5495010000000  0.5581410000000  0.5177130000000 1.0
C      1  0.5285640000000  0.4767860000000  0.5413480000000 1.0
C      1  0.5288890000000  0.5229430000000  0.5414760000000 1.0
C      1  0.4941380000000  0.4756270000000  0.4256540000000 1.0
C      1  0.4942370000000  0.5253170000000  0.4260860000000 1.0
C      1  0.4777030000000  0.5133170000000  0.5533450000000 1.0
C      1  0.4767770000000  0.4856200000000  0.5514990000000 1.0
C      1  0.4516500000000  0.5146710000000  0.5643680000000 1.0
C      1  0.4500720000000  0.4846740000000  0.5649030000000 1.0
C      1  0.5218180000000  0.4842980000000  0.4884950000000 1.0
C      1  0.5220160000000  0.5158920000000  0.4886240000000 1.0
C      1  0.5776700000000  0.5157390000000  0.5371980000000 1.0
C      1  0.5781060000000  0.4842770000000  0.5338800000000 1.0
C      1  0.4946590000000  0.4389130000000  0.4541720000000 1.0
C      1  0.4933150000000  0.5615420000000  0.4568120000000 1.0
C      1  0.5669550000000  0.5329530000000  0.4796530000000 1.0
C      1  0.5667580000000  0.4673290000000  0.4796610000000 1.0
C      1  0.5557810000000  0.4400860000000  0.4886780000000 1.0
C      1  0.5551120000000  0.5599820000000  0.4882050000000 1.0
C      1  0.4247860000000  0.5161470000000  0.4744290000000 1.0
C      1  0.4242750000000  0.4865150000000  0.4740780000000 1.0
C      1  0.4898170000000  0.4842290000000  0.5776120000000 1.0
C      1  0.4903610000000  0.5161560000000  0.5766180000000 1.0
C      1  0.4277450000000  0.5341980000000  0.4962820000000 1.0
C      1  0.4239040000000  0.4720310000000  0.4982040000000 1.0
C      1  0.4904880000000  0.5822240000000  0.5280510000000 1.0
C      1  0.4917960000000  0.4172750000000  0.5297350000000 1.0
C      1  0.4672500000000  0.5144540000000  0.4285090000000 1.0
C      1  0.4669490000000  0.4859440000000  0.4286520000000 1.0
C      1  0.4849810000000  0.5740540000000  0.4827020000000 1.0
C      1  0.4867910000000  0.4277270000000  0.4802960000000 1.0
C      1  0.4497030000000  0.4309860000000  0.5118380000000 1.0
C      1  0.4486510000000  0.5660970000000  0.5106240000000 1.0
C      1  0.4993800000000  0.4578660000000  0.5685600000000 1.0
C      1  0.4997340000000  0.5424920000000  0.5680370000000 1.0
C      1  0.4712230000000  0.4842440000000  0.5019160000000 1.0
C      1  0.4708130000000  0.5150140000000  0.5021370000000 1.0
C      1  0.4684560000000  0.5875540000000  0.5098540000000 1.0
C      1  0.4685180000000  0.4101280000000  0.5147040000000 1.0
C      1  0.5647880000000  0.5150440000000  0.4560140000000 1.0
C      1  0.5648010000000  0.4852090000000  0.4559870000000 1.0
C      1  0.4597530000000  0.4377200000000  0.4846900000000 1.0
C      1  0.4590970000000  0.5562880000000  0.4845860000000 1.0
C      1  0.5401500000000  0.5129690000000  0.5785460000000 1.0
C      1  0.5399280000000  0.4874240000000  0.5782710000000 1.0
C      1  0.4427330000000  0.5334310000000  0.5439910000000 1.0
C      1  0.4417380000000  0.4660100000000  0.5442330000000 1.0
C      1  0.4710390000000  0.5545290000000  0.4399290000000 1.0
C      1  0.4707830000000  0.4463000000000  0.4396650000000 1.0
C      1  0.5189040000000  0.5245720000000  0.4633390000000 1.0
C      1  0.5187870000000  0.4753220000000  0.4634800000000 1.0
C      1  0.5709760000000  0.5437740000000  0.5337690000000 1.0
C      1  0.5704600000000  0.4563230000000  0.5351060000000 1.0
C      1  0.4456580000000  0.4760570000000  0.4542520000000 1.0
C      1  0.4456220000000  0.5243400000000  0.4533790000000 1.0
C      1  0.5285810000000  0.4637430000000  0.5672410000000 1.0
C      1  0.5287730000000  0.5366370000000  0.5670890000000 1.0
C      1  0.4948310000000  0.4728710000000  0.4559000000000 1.0
C      1  0.4947100000000  0.5279880000000  0.4568200000000 1.0
C      1  0.5022760000000  0.4716570000000  0.5069290000000 1.0
C      1  0.5026990000000  0.5294120000000  0.5073590000000 1.0
END
