TITL C-2441156-4686-4 0.1317023073679 125000 -19980.2087006633 0 0 158 (C1) n - 1
REM
REM in /home/bkarasulu/work/CARBON/AIRSS/Generating-Clusters/ReaxFF-fromJPCA2015/Units_Real/with-SteepDescent/Higher-Symm
REM
REM
REM
REM
REM
REM ./C.cell (1df0a924f5614ab8850e4351716899ee)
REM
REM compiler GCC version 9.2.1 20190827 (Red Hat 9.2.1-1)
REM options -cpp -mtune=generic -march=x86-64 -g -O0 -fpre-include=/usr/include/finclude/math-vector-fortran.h
REM seed -917132277 1404057849 2068810769 1230194527 1054371156 -1155829500 -782118858 1953344711 -777758924 768803682 -1314606898 -1326722538 -1549504094 1733983810 -1346246336 -1663198477 1890450669 1648359232 -311014670 -189535222 -522531044 45079638 -1376866765 -1292537924 1540236793 732172636 -1768336858 -1385625702 250140616 -1124940536 229897845 -388124116 1952626922
REM
CELL 1.54180   50.00000   50.00000   50.00000   90.00000   90.00000   90.00000
LATT -1
SFAC C  
C      1  0.5247620000000  0.5093290000000  0.4523940000000 1.0
C      1  0.4332990000000  0.4416910000000  0.4581210000000 1.0
C      1  0.5871440000000  0.4890510000000  0.4587320000000 1.0
C      1  0.4735750000000  0.4855920000000  0.5234240000000 1.0
C      1  0.4270670000000  0.5785120000000  0.5010290000000 1.0
C      1  0.4531710000000  0.5054470000000  0.5324260000000 1.0
C      1  0.4742170000000  0.5752590000000  0.5715870000000 1.0
C      1  0.4448240000000  0.5997050000000  0.4975880000000 1.0
C      1  0.5730450000000  0.5405590000000  0.5491710000000 1.0
C      1  0.5588220000000  0.5033580000000  0.4237670000000 1.0
C      1  0.5419110000000  0.5707840000000  0.4927230000000 1.0
C      1  0.4875850000000  0.6022790000000  0.5264360000000 1.0
C      1  0.5188140000000  0.5529690000000  0.5307230000000 1.0
C      1  0.4848780000000  0.5408270000000  0.4073770000000 1.0
C      1  0.4495350000000  0.5307260000000  0.5144330000000 1.0
C      1  0.5046090000000  0.4628060000000  0.5751460000000 1.0
C      1  0.5140510000000  0.5420540000000  0.4380350000000 1.0
C      1  0.5929910000000  0.4416930000000  0.4765480000000 1.0
C      1  0.4215870000000  0.5385070000000  0.5243490000000 1.0
C      1  0.5518260000000  0.5671950000000  0.4513660000000 1.0
C      1  0.5282300000000  0.4073330000000  0.4911460000000 1.0
C      1  0.5240830000000  0.5073950000000  0.5980580000000 1.0
C      1  0.5567120000000  0.4415760000000  0.4426010000000 1.0
C      1  0.4256760000000  0.5566100000000  0.4802520000000 1.0
C      1  0.4016600000000  0.5422470000000  0.4749440000000 1.0
C      1  0.4924340000000  0.5245640000000  0.4934100000000 1.0
C      1  0.4629880000000  0.4899310000000  0.4839710000000 1.0
C      1  0.5040760000000  0.5875930000000  0.5063080000000 1.0
C      1  0.5763430000000  0.4194740000000  0.4844940000000 1.0
C      1  0.4989350000000  0.4009700000000  0.4907940000000 1.0
C      1  0.4838270000000  0.4950840000000  0.4652020000000 1.0
C      1  0.5183030000000  0.4849670000000  0.4915970000000 1.0
C      1  0.5152010000000  0.5814510000000  0.5666220000000 1.0
C      1  0.4409100000000  0.5159160000000  0.4161830000000 1.0
C      1  0.5123430000000  0.4529410000000  0.4093070000000 1.0
C      1  0.4793450000000  0.4053930000000  0.5131820000000 1.0
C      1  0.6041300000000  0.5099560000000  0.4900740000000 1.0
C      1  0.5537060000000  0.5443760000000  0.4334320000000 1.0
C      1  0.5558780000000  0.5512810000000  0.4759200000000 1.0
C      1  0.5257270000000  0.4589590000000  0.5956460000000 1.0
C      1  0.4475650000000  0.4100470000000  0.5031950000000 1.0
C      1  0.5347520000000  0.5039280000000  0.4070450000000 1.0
C      1  0.4899020000000  0.5295950000000  0.5818070000000 1.0
C      1  0.4402690000000  0.4620040000000  0.5491760000000 1.0
C      1  0.4156500000000  0.4907300000000  0.4550270000000 1.0
C      1  0.5829060000000  0.5435180000000  0.4800270000000 1.0
C      1  0.3963620000000  0.5176430000000  0.4904990000000 1.0
C      1  0.4308270000000  0.5559480000000  0.5483260000000 1.0
C      1  0.5574190000000  0.5183990000000  0.5369260000000 1.0
C      1  0.5657510000000  0.4788150000000  0.5801750000000 1.0
C      1  0.5244950000000  0.4419000000000  0.5720200000000 1.0
C      1  0.5927200000000  0.5175700000000  0.4665080000000 1.0
C      1  0.5186610000000  0.4268510000000  0.5315330000000 1.0
C      1  0.4902640000000  0.5550550000000  0.5338150000000 1.0
C      1  0.4949190000000  0.5053160000000  0.5990870000000 1.0
C      1  0.4841830000000  0.4177880000000  0.5738860000000 1.0
C      1  0.4209520000000  0.5435990000000  0.4528990000000 1.0
C      1  0.4904440000000  0.4223900000000  0.4442700000000 1.0
C      1  0.5449960000000  0.4762870000000  0.5275110000000 1.0
C      1  0.5938430000000  0.5222420000000  0.5603070000000 1.0
C      1  0.4442840000000  0.4852950000000  0.4137750000000 1.0
C      1  0.4525900000000  0.5538840000000  0.5676060000000 1.0
C      1  0.4484860000000  0.4475160000000  0.4844030000000 1.0
C      1  0.4113420000000  0.4651780000000  0.5443730000000 1.0
C      1  0.4087950000000  0.5165230000000  0.5141620000000 1.0
C      1  0.4818910000000  0.4062630000000  0.4674190000000 1.0
C      1  0.4467090000000  0.4768900000000  0.5247780000000 1.0
C      1  0.4083690000000  0.4934210000000  0.5518770000000 1.0
C      1  0.4563740000000  0.4579960000000  0.4107120000000 1.0
C      1  0.5807880000000  0.5435190000000  0.5089780000000 1.0
C      1  0.5581500000000  0.5256990000000  0.5082580000000 1.0
C      1  0.4493610000000  0.4355430000000  0.5410010000000 1.0
C      1  0.4976940000000  0.5522410000000  0.4871920000000 1.0
C      1  0.5237930000000  0.4312360000000  0.4757470000000 1.0
C      1  0.5933130000000  0.4864950000000  0.5306870000000 1.0
C      1  0.5424910000000  0.4673210000000  0.4582630000000 1.0
C      1  0.4732330000000  0.4377870000000  0.5224050000000 1.0
C      1  0.4726250000000  0.5656830000000  0.4891830000000 1.0
C      1  0.4290520000000  0.4626810000000  0.5017070000000 1.0
C      1  0.4894640000000  0.5256340000000  0.5332080000000 1.0
C      1  0.5498450000000  0.4312460000000  0.5558620000000 1.0
C      1  0.4927350000000  0.4728100000000  0.4495420000000 1.0
C      1  0.4477880000000  0.5065300000000  0.5835850000000 1.0
C      1  0.6080420000000  0.5110010000000  0.5367870000000 1.0
C      1  0.5214840000000  0.4916230000000  0.5175420000000 1.0
C      1  0.5472600000000  0.4786490000000  0.4843520000000 1.0
C      1  0.5317020000000  0.5820070000000  0.4669160000000 1.0
C      1  0.5202270000000  0.4812950000000  0.4466730000000 1.0
C      1  0.5187260000000  0.5227460000000  0.5296820000000 1.0
C      1  0.4664210000000  0.5664490000000  0.4610000000000 1.0
C      1  0.4390420000000  0.5748790000000  0.5288200000000 1.0
C      1  0.5006970000000  0.4765680000000  0.5294670000000 1.0
C      1  0.5054880000000  0.4885330000000  0.5577710000000 1.0
C      1  0.4638390000000  0.5183380000000  0.4922810000000 1.0
C      1  0.4746180000000  0.4536620000000  0.4966730000000 1.0
C      1  0.5528740000000  0.5490440000000  0.5679060000000 1.0
C      1  0.4591750000000  0.5328360000000  0.5859130000000 1.0
C      1  0.4298490000000  0.4239310000000  0.5215250000000 1.0
C      1  0.5108310000000  0.5612350000000  0.4614160000000 1.0
C      1  0.4975960000000  0.4067150000000  0.5363990000000 1.0
C      1  0.4528720000000  0.4425880000000  0.4357630000000 1.0
C      1  0.4008340000000  0.4946090000000  0.4781740000000 1.0
C      1  0.4344720000000  0.5059170000000  0.5572840000000 1.0
C      1  0.5599090000000  0.4300420000000  0.5263670000000 1.0
C      1  0.5179360000000  0.5114310000000  0.4806850000000 1.0
C      1  0.5955100000000  0.4704430000000  0.4802110000000 1.0
C      1  0.4246370000000  0.5185490000000  0.4388690000000 1.0
C      1  0.4633540000000  0.4655920000000  0.5753100000000 1.0
C      1  0.5475870000000  0.5810870000000  0.5200970000000 1.0
C      1  0.5129550000000  0.4313780000000  0.4295370000000 1.0
C      1  0.5006650000000  0.6060590000000  0.4563020000000 1.0
C      1  0.4857730000000  0.4647050000000  0.4037360000000 1.0
C      1  0.5552860000000  0.4122380000000  0.5038540000000 1.0
C      1  0.5763760000000  0.4818220000000  0.4318070000000 1.0
C      1  0.5326930000000  0.4274690000000  0.4483910000000 1.0
C      1  0.4106880000000  0.4596310000000  0.4589900000000 1.0
C      1  0.5526170000000  0.5182770000000  0.4479320000000 1.0
C      1  0.5045040000000  0.4538090000000  0.4886820000000 1.0
C      1  0.4903750000000  0.6036210000000  0.4834940000000 1.0
C      1  0.4557520000000  0.4848960000000  0.4395910000000 1.0
C      1  0.5622670000000  0.4567100000000  0.5126310000000 1.0
C      1  0.4818550000000  0.5173300000000  0.4480620000000 1.0
C      1  0.6061240000000  0.5271120000000  0.5126760000000 1.0
C      1  0.5344260000000  0.4733770000000  0.4082420000000 1.0
C      1  0.5152270000000  0.4510810000000  0.5163660000000 1.0
C      1  0.5658590000000  0.4924680000000  0.5349750000000 1.0
C      1  0.4639800000000  0.5408220000000  0.4474660000000 1.0
C      1  0.4884130000000  0.5119500000000  0.5576480000000 1.0
C      1  0.5780200000000  0.4297750000000  0.4584680000000 1.0
C      1  0.5505260000000  0.5094740000000  0.4860990000000 1.0
C      1  0.4969770000000  0.4906480000000  0.4039220000000 1.0
C      1  0.5800230000000  0.5006810000000  0.5717950000000 1.0
C      1  0.4036240000000  0.4673740000000  0.4862230000000 1.0
C      1  0.4646510000000  0.5601550000000  0.5176310000000 1.0
C      1  0.4782900000000  0.4475430000000  0.4488430000000 1.0
C      1  0.4689450000000  0.6114430000000  0.5041030000000 1.0
C      1  0.5321960000000  0.5342060000000  0.4158570000000 1.0
C      1  0.5269350000000  0.5998350000000  0.5174770000000 1.0
C      1  0.4908120000000  0.5141910000000  0.4195030000000 1.0
C      1  0.4892810000000  0.5772650000000  0.4442050000000 1.0
C      1  0.5382750000000  0.5684800000000  0.5497900000000 1.0
C      1  0.4909210000000  0.5942990000000  0.5549500000000 1.0
C      1  0.5009380000000  0.5609290000000  0.4207820000000 1.0
C      1  0.4126160000000  0.4478210000000  0.5206110000000 1.0
C      1  0.5586410000000  0.4621070000000  0.4202090000000 1.0
C      1  0.4627360000000  0.4366970000000  0.5725250000000 1.0
C      1  0.4929050000000  0.4343490000000  0.5453620000000 1.0
C      1  0.5892580000000  0.4685190000000  0.5087900000000 1.0
C      1  0.4546550000000  0.4125400000000  0.4760370000000 1.0
C      1  0.5305460000000  0.5125400000000  0.5551280000000 1.0
C      1  0.3997010000000  0.5171860000000  0.5382110000000 1.0
C      1  0.4983510000000  0.5630500000000  0.5811690000000 1.0
C      1  0.5668580000000  0.4532610000000  0.5624530000000 1.0
C      1  0.5348130000000  0.5286070000000  0.5786970000000 1.0
C      1  0.4579570000000  0.5401490000000  0.4183360000000 1.0
C      1  0.4707530000000  0.4889170000000  0.5913540000000 1.0
C      1  0.5408770000000  0.4837950000000  0.5972130000000 1.0
C      1  0.4438300000000  0.4862630000000  0.4627100000000 1.0
END
