TITL C-2441163-1170-478 0.0083979464531227 125000 -8117.57753777983 0 0 59 (C1) n - 1
REM
REM in /home/bkarasulu/work/CARBON/AIRSS/Generating-Clusters/ReaxFF-fromJPCA2015/Units_Real/with-SteepDescent/Higher-Symm
REM
REM
REM
REM
REM
REM ./C.cell (1df0a924f5614ab8850e4351716899ee)
REM
REM compiler GCC version 9.2.1 20190827 (Red Hat 9.2.1-1)
REM options -cpp -mtune=generic -march=x86-64 -g -O0 -fpre-include=/usr/include/finclude/math-vector-fortran.h
REM seed 1289149336 970802869 338056097 -1596006338 -1630953574 -147988743 1181386098 -2122013598 1933757710 707781804 -1068754775 -150139612 -1009164196 -1489858679 631750264 597839700 -998536932 -1018725342 -386560975 919743030 -208714887 2028361800 459828909 -1428164345 -836553760 -341433485 -1232458187 706256862 -196579552 1899757357 2024687350 1036874323 -1070268526
REM
CELL 1.54180   50.00000   50.00000   50.00000   90.00000   90.00000   90.00000
LATT -1
SFAC C  
C      1  0.5560340000000  0.5355390000000  0.4483750000000 1.0
C      1  0.5555450000000  0.5631030000000  0.4969200000000 1.0
C      1  0.5528920000000  0.5430670000000  0.5473690000000 1.0
C      1  0.5524260000000  0.4909780000000  0.5628750000000 1.0
C      1  0.5522550000000  0.4466060000000  0.5346000000000 1.0
C      1  0.5518340000000  0.4385600000000  0.4798620000000 1.0
C      1  0.5542460000000  0.4809970000000  0.4400350000000 1.0
C      1  0.4932830000000  0.5228620000000  0.4468520000000 1.0
C      1  0.4962620000000  0.5529680000000  0.4839100000000 1.0
C      1  0.4920410000000  0.5467810000000  0.5321790000000 1.0
C      1  0.4915410000000  0.5006700000000  0.5511690000000 1.0
C      1  0.4904580000000  0.4519030000000  0.5383260000000 1.0
C      1  0.4952010000000  0.4497250000000  0.4896330000000 1.0
C      1  0.4917660000000  0.4739210000000  0.4489980000000 1.0
C      1  0.4718140000000  0.5028930000000  0.5292180000000 1.0
C      1  0.4554500000000  0.4837530000000  0.5125200000000 1.0
C      1  0.4709290000000  0.4663820000000  0.4901200000000 1.0
C      1  0.4823550000000  0.4873580000000  0.4730140000000 1.0
C      1  0.4725220000000  0.5163690000000  0.4673830000000 1.0
C      1  0.4775910000000  0.5332300000000  0.4897370000000 1.0
C      1  0.4752900000000  0.5283210000000  0.5169180000000 1.0
C      1  0.5321120000000  0.4447440000000  0.4600240000000 1.0
C      1  0.5318800000000  0.4947430000000  0.4292210000000 1.0
C      1  0.5334720000000  0.5523210000000  0.4515480000000 1.0
C      1  0.5326630000000  0.5706150000000  0.5121580000000 1.0
C      1  0.5293810000000  0.5354950000000  0.5622960000000 1.0
C      1  0.5318470000000  0.4705730000000  0.5607650000000 1.0
C      1  0.5329780000000  0.4323360000000  0.5162470000000 1.0
C      1  0.5033240000000  0.4737430000000  0.5532410000000 1.0
C      1  0.5046970000000  0.4409950000000  0.5146840000000 1.0
C      1  0.5055070000000  0.4519250000000  0.4632070000000 1.0
C      1  0.5040980000000  0.4975350000000  0.4369930000000 1.0
C      1  0.5068530000000  0.5461980000000  0.4576000000000 1.0
C      1  0.5052030000000  0.5617460000000  0.5100300000000 1.0
C      1  0.5035140000000  0.5279520000000  0.5517680000000 1.0
C      1  0.4606630000000  0.4500160000000  0.5374900000000 1.0
C      1  0.4501940000000  0.4439400000000  0.4832870000000 1.0
C      1  0.4514240000000  0.4768670000000  0.4409480000000 1.0
C      1  0.4521520000000  0.5302770000000  0.4481120000000 1.0
C      1  0.4415790000000  0.5595560000000  0.4909820000000 1.0
C      1  0.4525490000000  0.5510220000000  0.5453180000000 1.0
C      1  0.4515890000000  0.4966990000000  0.5641660000000 1.0
C      1  0.5523240000000  0.5190840000000  0.5623950000000 1.0
C      1  0.5521900000000  0.4734880000000  0.5420010000000 1.0
C      1  0.5540050000000  0.4475220000000  0.5065010000000 1.0
C      1  0.5529260000000  0.4628010000000  0.4614350000000 1.0
C      1  0.5513050000000  0.5080550000000  0.4441270000000 1.0
C      1  0.5524330000000  0.5527970000000  0.4711120000000 1.0
C      1  0.5503990000000  0.5496970000000  0.5204160000000 1.0
C      1  0.4502160000000  0.5247170000000  0.5592710000000 1.0
C      1  0.4547890000000  0.4728910000000  0.5533730000000 1.0
C      1  0.4463780000000  0.4423370000000  0.5118200000000 1.0
C      1  0.4410880000000  0.4534820000000  0.4568610000000 1.0
C      1  0.4425380000000  0.5053080000000  0.4360890000000 1.0
C      1  0.4429850000000  0.5485100000000  0.4677600000000 1.0
C      1  0.4449360000000  0.5640790000000  0.5191030000000 1.0
C      1  0.5275140000000  0.5010290000000  0.5022320000000 1.0
C      1  0.4326390000000  0.4933070000000  0.5058350000000 1.0
C      1  0.5081410000000  0.4951520000000  0.4896920000000 1.0
END
