TITL C-2441168-9922-735 0.0867281208020809 125000 -20167.3743951 0 0 148 (C1) n - 1
REM
REM in /home/bkarasulu/work/CARBON/AIRSS/Generating-Clusters/ReaxFF-fromJPCA2015/Units_Real/with-SteepDescent/Higher-Symm
REM
REM
REM
REM
REM
REM ./C.cell (1df0a924f5614ab8850e4351716899ee)
REM
REM compiler GCC version 9.2.1 20190827 (Red Hat 9.2.1-1)
REM options -cpp -mtune=generic -march=x86-64 -g -O0 -fpre-include=/usr/include/finclude/math-vector-fortran.h
REM seed -1578091594 1549514431 212196146 1351240034 892016556 278382706 -734851941 -1306164871 506930503 -1528187669 -596709097 -63123511 635656675 1072556799 750906994 -1873520127 1147137876 1002324530 531621081 1559300714 -2081711980 -965199227 -1034774902 1919457896 989221312 634722501 1683020192 81636807 1909386448 2016335405 -1084788246 130380196 -563613108
REM
CELL 1.54180   50.00000   50.00000   50.00000   90.00000   90.00000   90.00000
LATT -1
SFAC C  
C      1  0.5165620000000  0.4799170000000  0.5509930000000 1.0
C      1  0.5084390000000  0.4495760000000  0.5131680000000 1.0
C      1  0.5176410000000  0.4545150000000  0.4670780000000 1.0
C      1  0.5133430000000  0.4958130000000  0.4492590000000 1.0
C      1  0.5100430000000  0.5394930000000  0.4648610000000 1.0
C      1  0.5129170000000  0.5520160000000  0.5105760000000 1.0
C      1  0.5150980000000  0.5268650000000  0.5437570000000 1.0
C      1  0.4906290000000  0.5341110000000  0.5059780000000 1.0
C      1  0.4915890000000  0.5185570000000  0.5306160000000 1.0
C      1  0.4926900000000  0.4905130000000  0.5369830000000 1.0
C      1  0.4874160000000  0.4606010000000  0.4990640000000 1.0
C      1  0.4944140000000  0.4707010000000  0.4752550000000 1.0
C      1  0.4907810000000  0.4974560000000  0.4667090000000 1.0
C      1  0.4883020000000  0.5246630000000  0.4777850000000 1.0
C      1  0.5716800000000  0.5652800000000  0.5216790000000 1.0
C      1  0.5719100000000  0.5263290000000  0.5688970000000 1.0
C      1  0.5714240000000  0.4651440000000  0.5656850000000 1.0
C      1  0.5736620000000  0.4287090000000  0.5110500000000 1.0
C      1  0.5729450000000  0.4434720000000  0.4508400000000 1.0
C      1  0.5699470000000  0.5079550000000  0.4308610000000 1.0
C      1  0.5695880000000  0.5596690000000  0.4546440000000 1.0
C      1  0.5524240000000  0.4712320000000  0.5847470000000 1.0
C      1  0.5541090000000  0.4203200000000  0.5291920000000 1.0
C      1  0.5544050000000  0.4237870000000  0.4530640000000 1.0
C      1  0.5539020000000  0.4895610000000  0.4170290000000 1.0
C      1  0.5486130000000  0.5596530000000  0.4357480000000 1.0
C      1  0.5542930000000  0.5822700000000  0.5075440000000 1.0
C      1  0.5533260000000  0.5467040000000  0.5742430000000 1.0
C      1  0.5958170000000  0.4798610000000  0.5268930000000 1.0
C      1  0.6018210000000  0.4683660000000  0.5010740000000 1.0
C      1  0.5986830000000  0.4796560000000  0.4750130000000 1.0
C      1  0.6031820000000  0.5070640000000  0.4679120000000 1.0
C      1  0.6024810000000  0.5308180000000  0.4856210000000 1.0
C      1  0.6038120000000  0.5287310000000  0.5140620000000 1.0
C      1  0.6034500000000  0.5069040000000  0.5340920000000 1.0
C      1  0.5005610000000  0.5909790000000  0.4586810000000 1.0
C      1  0.5023810000000  0.5905220000000  0.5458310000000 1.0
C      1  0.4987020000000  0.5155110000000  0.5885640000000 1.0
C      1  0.5017560000000  0.4346620000000  0.5781430000000 1.0
C      1  0.5020680000000  0.4020530000000  0.4971320000000 1.0
C      1  0.5020800000000  0.4398900000000  0.4194470000000 1.0
C      1  0.4893680000000  0.5162400000000  0.4235650000000 1.0
C      1  0.4561110000000  0.5326270000000  0.4099170000000 1.0
C      1  0.4541340000000  0.5863210000000  0.4702430000000 1.0
C      1  0.4519920000000  0.5771160000000  0.5513930000000 1.0
C      1  0.4535710000000  0.5093080000000  0.5926450000000 1.0
C      1  0.4508950000000  0.4322830000000  0.5633320000000 1.0
C      1  0.4559280000000  0.4085020000000  0.4878590000000 1.0
C      1  0.4560070000000  0.4528460000000  0.4216230000000 1.0
C      1  0.4745310000000  0.5915980000000  0.5487760000000 1.0
C      1  0.4772370000000  0.5136660000000  0.6066910000000 1.0
C      1  0.4737610000000  0.4320220000000  0.5779440000000 1.0
C      1  0.4792480000000  0.3941340000000  0.4901410000000 1.0
C      1  0.4787520000000  0.4421720000000  0.4098810000000 1.0
C      1  0.4842490000000  0.5307680000000  0.4009120000000 1.0
C      1  0.4741770000000  0.6015910000000  0.4588200000000 1.0
C      1  0.5073890000000  0.4205210000000  0.5168010000000 1.0
C      1  0.5078730000000  0.4357710000000  0.4458770000000 1.0
C      1  0.5095560000000  0.4980720000000  0.4208390000000 1.0
C      1  0.5070430000000  0.5639300000000  0.4500240000000 1.0
C      1  0.5106550000000  0.5797010000000  0.5197930000000 1.0
C      1  0.5109950000000  0.5352330000000  0.5710840000000 1.0
C      1  0.5087410000000  0.4625830000000  0.5734610000000 1.0
C      1  0.5522620000000  0.4131150000000  0.5015260000000 1.0
C      1  0.5547120000000  0.4415960000000  0.4300170000000 1.0
C      1  0.5497660000000  0.5177030000000  0.4133170000000 1.0
C      1  0.5499970000000  0.5783550000000  0.4577550000000 1.0
C      1  0.5529290000000  0.5795460000000  0.5362320000000 1.0
C      1  0.5499430000000  0.5203910000000  0.5857290000000 1.0
C      1  0.5531110000000  0.4451620000000  0.5721930000000 1.0
C      1  0.4287300000000  0.5413110000000  0.5306910000000 1.0
C      1  0.4299610000000  0.5011390000000  0.5508410000000 1.0
C      1  0.4164450000000  0.4582480000000  0.5287720000000 1.0
C      1  0.4254240000000  0.4388090000000  0.4862120000000 1.0
C      1  0.4251820000000  0.4750290000000  0.4599990000000 1.0
C      1  0.4232150000000  0.5173710000000  0.4531570000000 1.0
C      1  0.4240100000000  0.5499690000000  0.4850330000000 1.0
C      1  0.4042260000000  0.4829150000000  0.4806550000000 1.0
C      1  0.4008160000000  0.5083460000000  0.4699210000000 1.0
C      1  0.3972870000000  0.5337550000000  0.4835790000000 1.0
C      1  0.3950680000000  0.5270870000000  0.5098600000000 1.0
C      1  0.3947760000000  0.5194970000000  0.5352990000000 1.0
C      1  0.3935550000000  0.4915710000000  0.5314710000000 1.0
C      1  0.4017170000000  0.4754130000000  0.5097090000000 1.0
C      1  0.5078680000000  0.5487900000000  0.4066070000000 1.0
C      1  0.5132550000000  0.5970390000000  0.4831690000000 1.0
C      1  0.5136510000000  0.5755750000000  0.5668640000000 1.0
C      1  0.5109810000000  0.4932270000000  0.6009790000000 1.0
C      1  0.5131140000000  0.4192030000000  0.5568260000000 1.0
C      1  0.5144230000000  0.4035880000000  0.4738720000000 1.0
C      1  0.5148030000000  0.4595380000000  0.4066900000000 1.0
C      1  0.4450650000000  0.4615630000000  0.5710560000000 1.0
C      1  0.4480640000000  0.4186580000000  0.5146730000000 1.0
C      1  0.4485400000000  0.4376440000000  0.4455580000000 1.0
C      1  0.4491500000000  0.5041260000000  0.4190230000000 1.0
C      1  0.4474180000000  0.5635940000000  0.4498010000000 1.0
C      1  0.4464290000000  0.5801390000000  0.5204900000000 1.0
C      1  0.4480040000000  0.5332940000000  0.5752520000000 1.0
C      1  0.5381890000000  0.4200950000000  0.4768380000000 1.0
C      1  0.5409620000000  0.4644220000000  0.4186400000000 1.0
C      1  0.5340150000000  0.5412820000000  0.4187930000000 1.0
C      1  0.5390250000000  0.5851130000000  0.4834200000000 1.0
C      1  0.5398830000000  0.5671330000000  0.5589170000000 1.0
C      1  0.5353960000000  0.4949260000000  0.5843870000000 1.0
C      1  0.5395680000000  0.4291880000000  0.5519370000000 1.0
C      1  0.5408870000000  0.4696530000000  0.4780990000000 1.0
C      1  0.5337210000000  0.4992190000000  0.4708980000000 1.0
C      1  0.5336530000000  0.5278870000000  0.4766680000000 1.0
C      1  0.5362050000000  0.5363010000000  0.5041780000000 1.0
C      1  0.5345330000000  0.5151530000000  0.5248930000000 1.0
C      1  0.5412720000000  0.4816040000000  0.5331890000000 1.0
C      1  0.5310950000000  0.4681890000000  0.5086520000000 1.0
C      1  0.4238410000000  0.4724250000000  0.5542290000000 1.0
C      1  0.4245930000000  0.4347040000000  0.5129300000000 1.0
C      1  0.4258920000000  0.4456450000000  0.4600440000000 1.0
C      1  0.4286460000000  0.4958440000000  0.4362800000000 1.0
C      1  0.4254840000000  0.5474760000000  0.4566110000000 1.0
C      1  0.4249190000000  0.5634660000000  0.5121130000000 1.0
C      1  0.4246210000000  0.5295330000000  0.5580440000000 1.0
C      1  0.4524410000000  0.5283420000000  0.5191850000000 1.0
C      1  0.4507690000000  0.5027420000000  0.5325800000000 1.0
C      1  0.4672950000000  0.4796320000000  0.5290290000000 1.0
C      1  0.4616140000000  0.4678500000000  0.5035870000000 1.0
C      1  0.4503480000000  0.4812660000000  0.4801520000000 1.0
C      1  0.4483580000000  0.5078330000000  0.4743260000000 1.0
C      1  0.4513270000000  0.5313630000000  0.4901040000000 1.0
C      1  0.5772430000000  0.5385770000000  0.4716020000000 1.0
C      1  0.5781130000000  0.5376770000000  0.5242970000000 1.0
C      1  0.5777410000000  0.5166450000000  0.5438280000000 1.0
C      1  0.5696450000000  0.4776010000000  0.5407780000000 1.0
C      1  0.5808470000000  0.4503270000000  0.4962590000000 1.0
C      1  0.5729520000000  0.4629130000000  0.4715990000000 1.0
C      1  0.5783000000000  0.5148370000000  0.4562340000000 1.0
C      1  0.4922910000000  0.4134030000000  0.5391550000000 1.0
C      1  0.4928350000000  0.4131340000000  0.4562930000000 1.0
C      1  0.4938310000000  0.4794650000000  0.4048220000000 1.0
C      1  0.4917250000000  0.5636020000000  0.4257210000000 1.0
C      1  0.4929700000000  0.5940390000000  0.5023450000000 1.0
C      1  0.4936360000000  0.5576690000000  0.5753140000000 1.0
C      1  0.4905090000000  0.4744250000000  0.5923100000000 1.0
C      1  0.4650620000000  0.5865920000000  0.4987140000000 1.0
C      1  0.4649040000000  0.5559000000000  0.5692340000000 1.0
C      1  0.4625660000000  0.4805920000000  0.5856130000000 1.0
C      1  0.4641060000000  0.4201490000000  0.5388240000000 1.0
C      1  0.4647840000000  0.4204460000000  0.4617910000000 1.0
C      1  0.4657120000000  0.4807100000000  0.4145500000000 1.0
C      1  0.4633940000000  0.5554140000000  0.4277250000000 1.0
C      1  0.5205060000000  0.4982120000000  0.5016320000000 1.0
END
