TITL C-2441164-471-596 0.0472455768891616 125000 -9090.59943340088 0 0 77 (C1) n - 1
REM
REM in /home/bkarasulu/work/CARBON/AIRSS/Generating-Clusters/ReaxFF-fromJPCA2015/Units_Real/with-SteepDescent/Higher-Symm
REM
REM
REM
REM
REM
REM ./C.cell (1df0a924f5614ab8850e4351716899ee)
REM
REM compiler GCC version 9.2.1 20190827 (Red Hat 9.2.1-1)
REM options -cpp -mtune=generic -march=x86-64 -g -O0 -fpre-include=/usr/include/finclude/math-vector-fortran.h
REM seed 177207637 538475222 1861429697 -1773114379 -1376051946 -506616662 -1444543493 -1375617159 2131703201 -333197036 971473420 173713812 -90047874 1365931621 605023820 1275344350 -1747220566 1611205676 1274480772 1253405594 -1836501413 -1907386137 1109712368 762871594 -721172252 599525265 -777098141 589761374 -531315205 85997143 2122213213 602074140 776139343
REM
CELL 1.54180   50.00000   50.00000   50.00000   90.00000   90.00000   90.00000
LATT -1
SFAC C  
C      1  0.4755580000000  0.4823380000000  0.4265030000000 1.0
C      1  0.5023030000000  0.4662400000000  0.4296060000000 1.0
C      1  0.5288880000000  0.5089180000000  0.4263010000000 1.0
C      1  0.5044120000000  0.5289400000000  0.4255940000000 1.0
C      1  0.4765980000000  0.5138460000000  0.4261290000000 1.0
C      1  0.5203090000000  0.4858970000000  0.5720350000000 1.0
C      1  0.4889550000000  0.4773000000000  0.5704850000000 1.0
C      1  0.4722730000000  0.5027930000000  0.5739890000000 1.0
C      1  0.4918810000000  0.5268060000000  0.5728640000000 1.0
C      1  0.5217530000000  0.5169840000000  0.5730260000000 1.0
C      1  0.5139650000000  0.5562780000000  0.4520360000000 1.0
C      1  0.4523690000000  0.5291360000000  0.4476250000000 1.0
C      1  0.4530620000000  0.4639930000000  0.4487830000000 1.0
C      1  0.5152710000000  0.4443140000000  0.4461940000000 1.0
C      1  0.5538800000000  0.5109280000000  0.4399320000000 1.0
C      1  0.4819320000000  0.5562920000000  0.5513820000000 1.0
C      1  0.5466230000000  0.5301090000000  0.5472310000000 1.0
C      1  0.5428880000000  0.4637310000000  0.5485110000000 1.0
C      1  0.4769150000000  0.4476240000000  0.5494670000000 1.0
C      1  0.4428230000000  0.5062040000000  0.5461660000000 1.0
C      1  0.4263260000000  0.5173920000000  0.4572900000000 1.0
C      1  0.4606240000000  0.4374350000000  0.4573650000000 1.0
C      1  0.5397210000000  0.4472660000000  0.4591780000000 1.0
C      1  0.5676570000000  0.5275040000000  0.4588340000000 1.0
C      1  0.4975240000000  0.5774580000000  0.4645000000000 1.0
C      1  0.5708520000000  0.5265020000000  0.5321330000000 1.0
C      1  0.5430460000000  0.4390040000000  0.5334650000000 1.0
C      1  0.4535660000000  0.4390240000000  0.5325400000000 1.0
C      1  0.4266640000000  0.5258980000000  0.5312940000000 1.0
C      1  0.5066750000000  0.5694210000000  0.5413010000000 1.0
C      1  0.5225910000000  0.5315870000000  0.5141110000000 1.0
C      1  0.4808880000000  0.5312380000000  0.5204230000000 1.0
C      1  0.4653130000000  0.4883450000000  0.5183440000000 1.0
C      1  0.4955350000000  0.4642180000000  0.5186140000000 1.0
C      1  0.5349710000000  0.4883970000000  0.5192340000000 1.0
C      1  0.4767160000000  0.5299050000000  0.4786340000000 1.0
C      1  0.5203330000000  0.5326030000000  0.4830200000000 1.0
C      1  0.5393970000000  0.4926430000000  0.4790640000000 1.0
C      1  0.5019060000000  0.4632980000000  0.4786550000000 1.0
C      1  0.4648000000000  0.4878130000000  0.4777590000000 1.0
C      1  0.5356830000000  0.5562700000000  0.4739510000000 1.0
C      1  0.4563440000000  0.5504510000000  0.4769640000000 1.0
C      1  0.4382400000000  0.4766720000000  0.4754830000000 1.0
C      1  0.5042860000000  0.4341000000000  0.4757720000000 1.0
C      1  0.5649670000000  0.4803720000000  0.4834350000000 1.0
C      1  0.4648120000000  0.5544890000000  0.5258360000000 1.0
C      1  0.5409020000000  0.5531670000000  0.5238440000000 1.0
C      1  0.5603730000000  0.4768580000000  0.5274390000000 1.0
C      1  0.4947710000000  0.4358290000000  0.5259420000000 1.0
C      1  0.4361580000000  0.4854960000000  0.5245510000000 1.0
C      1  0.5748320000000  0.4944830000000  0.5074070000000 1.0
C      1  0.5209030000000  0.5731630000000  0.5163680000000 1.0
C      1  0.4405820000000  0.5472320000000  0.5107450000000 1.0
C      1  0.4376020000000  0.4580120000000  0.5139710000000 1.0
C      1  0.5189750000000  0.4281020000000  0.5115080000000 1.0
C      1  0.4227720000000  0.5006860000000  0.4813170000000 1.0
C      1  0.4740110000000  0.5722490000000  0.4830460000000 1.0
C      1  0.5613480000000  0.5441400000000  0.4813570000000 1.0
C      1  0.5575490000000  0.4522090000000  0.4804320000000 1.0
C      1  0.4748160000000  0.4286930000000  0.4803380000000 1.0
C      1  0.5162470000000  0.4757390000000  0.5334720000000 1.0
C      1  0.5337450000000  0.5123670000000  0.5277240000000 1.0
C      1  0.5026900000000  0.5391550000000  0.5370360000000 1.0
C      1  0.4681540000000  0.5109920000000  0.5325990000000 1.0
C      1  0.4767750000000  0.4709390000000  0.5330000000000 1.0
C      1  0.4793640000000  0.4708420000000  0.4639210000000 1.0
C      1  0.4673940000000  0.5106900000000  0.4647940000000 1.0
C      1  0.4998970000000  0.5334140000000  0.4639450000000 1.0
C      1  0.5403950000000  0.5147450000000  0.4673900000000 1.0
C      1  0.5177830000000  0.4834110000000  0.4691760000000 1.0
C      1  0.5013550000000  0.5796160000000  0.4929340000000 1.0
C      1  0.4554800000000  0.4360100000000  0.5038700000000 1.0
C      1  0.5463100000000  0.4371190000000  0.5052030000000 1.0
C      1  0.4234680000000  0.5233970000000  0.5034170000000 1.0
C      1  0.5731730000000  0.5245930000000  0.5044370000000 1.0
C      1  0.5130210000000  0.4899910000000  0.4421740000000 1.0
C      1  0.5036760000000  0.4915030000000  0.5498660000000 1.0
END
