TITL C-2441164-471-738 0.155620755704957 125000 -20046.3594723994 0 0 159 (C1) n - 1
REM
REM in /home/bkarasulu/work/CARBON/AIRSS/Generating-Clusters/ReaxFF-fromJPCA2015/Units_Real/with-SteepDescent/Higher-Symm
REM
REM
REM
REM
REM
REM ./C.cell (1df0a924f5614ab8850e4351716899ee)
REM
REM compiler GCC version 9.2.1 20190827 (Red Hat 9.2.1-1)
REM options -cpp -mtune=generic -march=x86-64 -g -O0 -fpre-include=/usr/include/finclude/math-vector-fortran.h
REM seed 1002466204 -764799282 -623911654 1063903534 -50309728 -87842214 1495165067 1902742337 -1555847664 74931052 -1216049537 1836130998 -1594078512 -1181577150 406848155 -2058249242 241316687 744783217 1135125711 1850497677 240336131 1482510535 1438561837 -201290328 -237679164 1577900441 1823396819 -1658474051 367425889 171449131 -956650454 1306148461 -2012345118
REM
CELL 1.54180   50.00000   50.00000   50.00000   90.00000   90.00000   90.00000
LATT -1
SFAC C  
C      1  0.4461140000000  0.5307360000000  0.4407440000000 1.0
C      1  0.4467710000000  0.4727920000000  0.5552200000000 1.0
C      1  0.5510040000000  0.5219420000000  0.4398290000000 1.0
C      1  0.5540730000000  0.4758900000000  0.5627140000000 1.0
C      1  0.4456820000000  0.5625400000000  0.5648460000000 1.0
C      1  0.4564060000000  0.4306490000000  0.4294860000000 1.0
C      1  0.5540700000000  0.5664040000000  0.5639990000000 1.0
C      1  0.5382140000000  0.4303900000000  0.4318030000000 1.0
C      1  0.4071180000000  0.5306660000000  0.4578140000000 1.0
C      1  0.4058760000000  0.4673520000000  0.5408960000000 1.0
C      1  0.5933420000000  0.5306560000000  0.4653990000000 1.0
C      1  0.5941010000000  0.4662330000000  0.5368900000000 1.0
C      1  0.4850120000000  0.5527270000000  0.5938050000000 1.0
C      1  0.4762070000000  0.4532940000000  0.4025400000000 1.0
C      1  0.5151280000000  0.5522350000000  0.5948670000000 1.0
C      1  0.5211680000000  0.4523890000000  0.4013090000000 1.0
C      1  0.4816150000000  0.5950160000000  0.4528790000000 1.0
C      1  0.4832950000000  0.4037690000000  0.5482870000000 1.0
C      1  0.5108570000000  0.5900710000000  0.4491860000000 1.0
C      1  0.5120970000000  0.4084640000000  0.5506500000000 1.0
C      1  0.5518410000000  0.4964240000000  0.4552420000000 1.0
C      1  0.5546780000000  0.4978860000000  0.5434770000000 1.0
C      1  0.4449970000000  0.4960190000000  0.4648080000000 1.0
C      1  0.4409280000000  0.5182880000000  0.5396940000000 1.0
C      1  0.5677270000000  0.5429840000000  0.5676540000000 1.0
C      1  0.5545430000000  0.4496920000000  0.4413420000000 1.0
C      1  0.4374890000000  0.5336180000000  0.5618010000000 1.0
C      1  0.4418950000000  0.4529530000000  0.4405180000000 1.0
C      1  0.4616030000000  0.4460030000000  0.4800350000000 1.0
C      1  0.4552940000000  0.5551480000000  0.5201460000000 1.0
C      1  0.5376750000000  0.4439180000000  0.4820170000000 1.0
C      1  0.5450160000000  0.5596100000000  0.5185600000000 1.0
C      1  0.5799940000000  0.5193510000000  0.4892290000000 1.0
C      1  0.5812090000000  0.4794830000000  0.5131230000000 1.0
C      1  0.4172800000000  0.5234300000000  0.4834190000000 1.0
C      1  0.4199220000000  0.4819390000000  0.5174160000000 1.0
C      1  0.4422560000000  0.4144400000000  0.5052880000000 1.0
C      1  0.4421770000000  0.5859570000000  0.4954240000000 1.0
C      1  0.5530790000000  0.4181970000000  0.5170990000000 1.0
C      1  0.5538640000000  0.5822110000000  0.4825430000000 1.0
C      1  0.4665400000000  0.4637050000000  0.5780340000000 1.0
C      1  0.4644030000000  0.5386580000000  0.4190220000000 1.0
C      1  0.5330790000000  0.4617160000000  0.5772790000000 1.0
C      1  0.5312750000000  0.5365340000000  0.4236230000000 1.0
C      1  0.5255650000000  0.4377930000000  0.5590350000000 1.0
C      1  0.5272410000000  0.5670690000000  0.4382820000000 1.0
C      1  0.4787550000000  0.4409390000000  0.5659840000000 1.0
C      1  0.4777100000000  0.5607490000000  0.4304430000000 1.0
C      1  0.4168310000000  0.5098150000000  0.5309130000000 1.0
C      1  0.4176970000000  0.4866180000000  0.4624310000000 1.0
C      1  0.5809400000000  0.5119720000000  0.5397710000000 1.0
C      1  0.5788620000000  0.4863300000000  0.4605930000000 1.0
C      1  0.4694130000000  0.5699140000000  0.5775300000000 1.0
C      1  0.4845830000000  0.4349110000000  0.4267440000000 1.0
C      1  0.5256040000000  0.5627610000000  0.5708510000000 1.0
C      1  0.5149160000000  0.4287780000000  0.4171910000000 1.0
C      1  0.4735680000000  0.5195020000000  0.4813910000000 1.0
C      1  0.4724260000000  0.4800790000000  0.5082310000000 1.0
C      1  0.5233520000000  0.5153880000000  0.4845680000000 1.0
C      1  0.5287090000000  0.4771620000000  0.5075100000000 1.0
C      1  0.4353460000000  0.4273870000000  0.5477630000000 1.0
C      1  0.4349790000000  0.5713620000000  0.4516730000000 1.0
C      1  0.5751500000000  0.4348410000000  0.5560460000000 1.0
C      1  0.5758280000000  0.5628520000000  0.4448740000000 1.0
C      1  0.4861890000000  0.5150520000000  0.4541480000000 1.0
C      1  0.4865550000000  0.4918270000000  0.5460810000000 1.0
C      1  0.5146810000000  0.5178550000000  0.4576530000000 1.0
C      1  0.5137600000000  0.4922800000000  0.5461630000000 1.0
C      1  0.5138060000000  0.5218230000000  0.4069820000000 1.0
C      1  0.5155750000000  0.4768970000000  0.5937040000000 1.0
C      1  0.4825970000000  0.5201980000000  0.4056120000000 1.0
C      1  0.4854540000000  0.4786350000000  0.5933790000000 1.0
C      1  0.4865610000000  0.4590390000000  0.5422940000000 1.0
C      1  0.4862530000000  0.5452120000000  0.4525330000000 1.0
C      1  0.5150840000000  0.4594510000000  0.5409080000000 1.0
C      1  0.5137020000000  0.5468520000000  0.4611800000000 1.0
C      1  0.4854080000000  0.4069590000000  0.5195420000000 1.0
C      1  0.4843610000000  0.5878770000000  0.4806520000000 1.0
C      1  0.5137720000000  0.4058180000000  0.5214080000000 1.0
C      1  0.5126090000000  0.5906760000000  0.4788730000000 1.0
C      1  0.4856310000000  0.4020610000000  0.4769020000000 1.0
C      1  0.4860120000000  0.5913960000000  0.5242650000000 1.0
C      1  0.5154740000000  0.4033780000000  0.4780630000000 1.0
C      1  0.5152500000000  0.5931870000000  0.5217160000000 1.0
C      1  0.4233370000000  0.4779510000000  0.4346670000000 1.0
C      1  0.4198450000000  0.5100340000000  0.5717300000000 1.0
C      1  0.5823200000000  0.4863390000000  0.4298760000000 1.0
C      1  0.5794640000000  0.5183400000000  0.5692060000000 1.0
C      1  0.5619320000000  0.4359620000000  0.4658040000000 1.0
C      1  0.5655910000000  0.5709040000000  0.5357520000000 1.0
C      1  0.4378100000000  0.4381320000000  0.4651510000000 1.0
C      1  0.4337100000000  0.5663360000000  0.5367550000000 1.0
C      1  0.4128750000000  0.5596860000000  0.4629830000000 1.0
C      1  0.4123690000000  0.4388440000000  0.5376350000000 1.0
C      1  0.5932830000000  0.5601250000000  0.4686150000000 1.0
C      1  0.5921150000000  0.4377470000000  0.5325070000000 1.0
C      1  0.4848260000000  0.5265950000000  0.5779340000000 1.0
C      1  0.4828400000000  0.4794640000000  0.4177290000000 1.0
C      1  0.5127700000000  0.5236070000000  0.5890880000000 1.0
C      1  0.5176590000000  0.4785930000000  0.4164540000000 1.0
C      1  0.4857920000000  0.4534630000000  0.5120100000000 1.0
C      1  0.4881380000000  0.5370370000000  0.4976660000000 1.0
C      1  0.5148910000000  0.4528520000000  0.5134760000000 1.0
C      1  0.5142910000000  0.5449690000000  0.4919160000000 1.0
C      1  0.5877340000000  0.4722700000000  0.4851490000000 1.0
C      1  0.5869670000000  0.5282380000000  0.5168200000000 1.0
C      1  0.4112220000000  0.4732240000000  0.4873100000000 1.0
C      1  0.4094070000000  0.5296320000000  0.5108260000000 1.0
C      1  0.5340910000000  0.4747030000000  0.4424820000000 1.0
C      1  0.5155490000000  0.5476570000000  0.5481360000000 1.0
C      1  0.4752860000000  0.4643810000000  0.4413830000000 1.0
C      1  0.4882380000000  0.5400790000000  0.5479060000000 1.0
C      1  0.4205270000000  0.5218570000000  0.4321200000000 1.0
C      1  0.4189110000000  0.4800200000000  0.5633250000000 1.0
C      1  0.5777890000000  0.5335260000000  0.4402530000000 1.0
C      1  0.5780810000000  0.4631460000000  0.5608180000000 1.0
C      1  0.4656940000000  0.3997220000000  0.4993840000000 1.0
C      1  0.4666490000000  0.5980920000000  0.5018940000000 1.0
C      1  0.5336100000000  0.4028950000000  0.5013000000000 1.0
C      1  0.5324890000000  0.5951980000000  0.4977490000000 1.0
C      1  0.5216910000000  0.5669510000000  0.5282010000000 1.0
C      1  0.5141080000000  0.4312240000000  0.4712240000000 1.0
C      1  0.4784800000000  0.5655340000000  0.5329960000000 1.0
C      1  0.4846930000000  0.4305190000000  0.4725430000000 1.0
C      1  0.4197900000000  0.4291530000000  0.5083740000000 1.0
C      1  0.4189890000000  0.5717000000000  0.4921590000000 1.0
C      1  0.5787350000000  0.4293450000000  0.5092080000000 1.0
C      1  0.5792190000000  0.5709320000000  0.4921260000000 1.0
C      1  0.4694730000000  0.5039880000000  0.5937190000000 1.0
C      1  0.4626790000000  0.4995700000000  0.4071340000000 1.0
C      1  0.5333440000000  0.5006880000000  0.5992480000000 1.0
C      1  0.5337090000000  0.4998800000000  0.4031490000000 1.0
C      1  0.4339580000000  0.4987610000000  0.4175630000000 1.0
C      1  0.4411810000000  0.5034410000000  0.5893910000000 1.0
C      1  0.5618100000000  0.4938220000000  0.4103560000000 1.0
C      1  0.5592270000000  0.5069640000000  0.5893120000000 1.0
C      1  0.5834630000000  0.4436080000000  0.4842440000000 1.0
C      1  0.5847810000000  0.5577920000000  0.5180840000000 1.0
C      1  0.4156490000000  0.4458500000000  0.4828500000000 1.0
C      1  0.4129080000000  0.5577200000000  0.5179800000000 1.0
C      1  0.4814380000000  0.5165400000000  0.5315000000000 1.0
C      1  0.4876350000000  0.4761510000000  0.4636250000000 1.0
C      1  0.5277380000000  0.5167420000000  0.5382220000000 1.0
C      1  0.5151480000000  0.4739210000000  0.4641410000000 1.0
C      1  0.4570780000000  0.5260340000000  0.5197750000000 1.0
C      1  0.4635460000000  0.4762500000000  0.4805550000000 1.0
C      1  0.5427510000000  0.5311080000000  0.5156470000000 1.0
C      1  0.5357850000000  0.4728180000000  0.4820180000000 1.0
C      1  0.5518100000000  0.5220750000000  0.4900730000000 1.0
C      1  0.5538170000000  0.4799260000000  0.5225350000000 1.0
C      1  0.4460900000000  0.5253740000000  0.4721300000000 1.0
C      1  0.4491010000000  0.4762620000000  0.5270000000000 1.0
C      1  0.5509290000000  0.5760440000000  0.4535480000000 1.0
C      1  0.5493840000000  0.4247710000000  0.5452610000000 1.0
C      1  0.4586000000000  0.5815140000000  0.4395490000000 1.0
C      1  0.4599120000000  0.4192010000000  0.5594140000000 1.0
C      1  0.4973710000000  0.4582470000000  0.3826650000000 1.0
C      1  0.4994950000000  0.5207010000000  0.6159860000000 1.0
C      1  0.5035540000000  0.4990190000000  0.5056090000000 1.0
END
