TITL C-2441157-2117-1493 0.00565454428761343 125000 -9286.69336497171 0 0 65 (C1) n - 1
REM
REM in /home/bkarasulu/work/CARBON/AIRSS/Generating-Clusters/ReaxFF-fromJPCA2015/Units_Real/with-SteepDescent/Higher-Symm
REM
REM
REM
REM
REM
REM ./C.cell (1df0a924f5614ab8850e4351716899ee)
REM
REM compiler GCC version 9.2.1 20190827 (Red Hat 9.2.1-1)
REM options -cpp -mtune=generic -march=x86-64 -g -O0 -fpre-include=/usr/include/finclude/math-vector-fortran.h
REM seed -318857755 -1170755472 -2130238983 -638107530 -1414992395 -94570582 177638184 1991654965 1860932113 -1931828300 1679199142 490435070 -794281629 -19777884 -1727311551 -1592581224 -2022881008 -1730770455 -467999709 -217473448 1286829437 966691177 -1655382540 142408282 247136448 -365516659 1297121509 -2074483065 -1110390886 -642169564 1867123015 -1442316695 -934893091
REM
CELL 1.54180   50.00000   50.00000   50.00000   90.00000   90.00000   90.00000
LATT -1
SFAC C  
C      1  0.5349800000000  0.4329060000000  0.5203770000000 1.0
C      1  0.5356600000000  0.5612670000000  0.5233160000000 1.0
C      1  0.4265400000000  0.4979600000000  0.5220230000000 1.0
C      1  0.4651890000000  0.4357290000000  0.4818730000000 1.0
C      1  0.4635970000000  0.5643460000000  0.4797860000000 1.0
C      1  0.5720770000000  0.4975620000000  0.4823230000000 1.0
C      1  0.4894290000000  0.4719270000000  0.4906400000000 1.0
C      1  0.5269020000000  0.5079710000000  0.4909050000000 1.0
C      1  0.4779010000000  0.5211720000000  0.4909620000000 1.0
C      1  0.5054590000000  0.4706200000000  0.5117440000000 1.0
C      1  0.4712680000000  0.5089150000000  0.5121860000000 1.0
C      1  0.5200630000000  0.5218870000000  0.5117130000000 1.0
C      1  0.5182150000000  0.5183690000000  0.4648910000000 1.0
C      1  0.4716710000000  0.5093410000000  0.4606110000000 1.0
C      1  0.5034720000000  0.4718810000000  0.4612700000000 1.0
C      1  0.4772070000000  0.5188270000000  0.5439140000000 1.0
C      1  0.5231630000000  0.5098680000000  0.5395530000000 1.0
C      1  0.4923960000000  0.4722280000000  0.5384990000000 1.0
C      1  0.5684580000000  0.5210840000000  0.4647930000000 1.0
C      1  0.4458770000000  0.5475760000000  0.4625600000000 1.0
C      1  0.4874390000000  0.4292310000000  0.4630420000000 1.0
C      1  0.4314250000000  0.5222160000000  0.5387790000000 1.0
C      1  0.5539830000000  0.5460170000000  0.5396810000000 1.0
C      1  0.5125190000000  0.4315240000000  0.5418610000000 1.0
C      1  0.4880140000000  0.4510020000000  0.4442790000000 1.0
C      1  0.5590940000000  0.5098920000000  0.4359490000000 1.0
C      1  0.4634730000000  0.5345660000000  0.4430630000000 1.0
C      1  0.5272620000000  0.4499760000000  0.5572740000000 1.0
C      1  0.4510660000000  0.5124840000000  0.5593080000000 1.0
C      1  0.5425860000000  0.5489220000000  0.5685230000000 1.0
C      1  0.4915860000000  0.5467720000000  0.5486380000000 1.0
C      1  0.4626770000000  0.4637130000000  0.5441180000000 1.0
C      1  0.5481030000000  0.4990470000000  0.5491700000000 1.0
C      1  0.5097970000000  0.5471950000000  0.4574040000000 1.0
C      1  0.5359060000000  0.4651540000000  0.4574510000000 1.0
C      1  0.4527570000000  0.4843620000000  0.4571820000000 1.0
C      1  0.4736720000000  0.4334170000000  0.5081820000000 1.0
C      1  0.5710140000000  0.5084990000000  0.5077760000000 1.0
C      1  0.4517750000000  0.5591080000000  0.5050950000000 1.0
C      1  0.5254650000000  0.4319880000000  0.4940170000000 1.0
C      1  0.4245110000000  0.5137180000000  0.4984740000000 1.0
C      1  0.5491990000000  0.5555190000000  0.4996290000000 1.0
C      1  0.4847740000000  0.4326600000000  0.5322140000000 1.0
C      1  0.5655110000000  0.5177550000000  0.5339170000000 1.0
C      1  0.4408250000000  0.5444260000000  0.5233720000000 1.0
C      1  0.5152380000000  0.4328340000000  0.4699370000000 1.0
C      1  0.4321050000000  0.5292540000000  0.4789180000000 1.0
C      1  0.5590730000000  0.5422120000000  0.4796490000000 1.0
C      1  0.4487730000000  0.4582890000000  0.4698010000000 1.0
C      1  0.5531390000000  0.4730400000000  0.4795190000000 1.0
C      1  0.4932860000000  0.5619760000000  0.4768990000000 1.0
C      1  0.5493400000000  0.4587830000000  0.5242470000000 1.0
C      1  0.4446560000000  0.4742660000000  0.5218950000000 1.0
C      1  0.5052630000000  0.5590780000000  0.5263380000000 1.0
C      1  0.4604650000000  0.4610450000000  0.4423160000000 1.0
C      1  0.5473850000000  0.4848700000000  0.4410910000000 1.0
C      1  0.4880130000000  0.5472660000000  0.4401170000000 1.0
C      1  0.5479340000000  0.4689900000000  0.5518780000000 1.0
C      1  0.4527100000000  0.4847410000000  0.5599780000000 1.0
C      1  0.5138780000000  0.5487210000000  0.5647330000000 1.0
C      1  0.5359520000000  0.4768550000000  0.5036030000000 1.0
C      1  0.4636810000000  0.4821110000000  0.5005410000000 1.0
C      1  0.4974810000000  0.5435240000000  0.5009760000000 1.0
C      1  0.4981800000000  0.4981450000000  0.5495940000000 1.0
C      1  0.4993520000000  0.5004410000000  0.4533540000000 1.0
END
