TITL C-2441154-10-637 0.20191007554284 125000 -22021.3576438638 0 0 179 (C1) n - 1
REM
REM in /home/bkarasulu/work/CARBON/AIRSS/Generating-Clusters/ReaxFF-fromJPCA2015/Units_Real/with-SteepDescent/Higher-Symm
REM
REM
REM
REM
REM
REM ./C.cell (1df0a924f5614ab8850e4351716899ee)
REM
REM compiler GCC version 9.2.1 20190827 (Red Hat 9.2.1-1)
REM options -cpp -mtune=generic -march=x86-64 -g -O0 -fpre-include=/usr/include/finclude/math-vector-fortran.h
REM seed 538234126 -2133646952 1518444776 -1244582621 -211358843 700801754 1581965685 -381087867 -2072203331 774265246 -728108692 644720460 1102317969 2031597110 -432441295 837758001 -1330662198 784302299 -1158561166 1025254510 1693886278 -1836491253 -255043716 -1806306589 -1381217270 -924128082 -1128200594 -1067894923 1411538226 839887326 -596823619 1352949617 99805857
REM
CELL 1.54180   50.00000   50.00000   50.00000   90.00000   90.00000   90.00000
LATT -1
SFAC C  
C      1  0.5497950000000  0.4241670000000  0.5463030000000 1.0
C      1  0.5166570000000  0.4238640000000  0.4288370000000 1.0
C      1  0.4369960000000  0.4257480000000  0.5196990000000 1.0
C      1  0.5175220000000  0.5155980000000  0.3964700000000 1.0
C      1  0.3909940000000  0.4973900000000  0.5390180000000 1.0
C      1  0.5841340000000  0.5133190000000  0.5667340000000 1.0
C      1  0.5108350000000  0.3936550000000  0.5209370000000 1.0
C      1  0.5036660000000  0.3969070000000  0.4653970000000 1.0
C      1  0.4806610000000  0.3954270000000  0.5019810000000 1.0
C      1  0.4514470000000  0.5104030000000  0.5255840000000 1.0
C      1  0.5395410000000  0.5129650000000  0.5274880000000 1.0
C      1  0.5035760000000  0.5089320000000  0.4547060000000 1.0
C      1  0.4728550000000  0.5282060000000  0.5343880000000 1.0
C      1  0.5462930000000  0.5305240000000  0.5073710000000 1.0
C      1  0.4808060000000  0.5291770000000  0.4588010000000 1.0
C      1  0.5669350000000  0.5425230000000  0.4235500000000 1.0
C      1  0.3952720000000  0.5445910000000  0.4853860000000 1.0
C      1  0.5321030000000  0.5443830000000  0.5946070000000 1.0
C      1  0.5649320000000  0.4665600000000  0.5588720000000 1.0
C      1  0.5169040000000  0.4675470000000  0.4144590000000 1.0
C      1  0.4194060000000  0.4664600000000  0.5269600000000 1.0
C      1  0.5299070000000  0.4924920000000  0.4081640000000 1.0
C      1  0.4091470000000  0.4946120000000  0.5158240000000 1.0
C      1  0.5646180000000  0.4945990000000  0.5711910000000 1.0
C      1  0.4659650000000  0.5540800000000  0.5271600000000 1.0
C      1  0.5424810000000  0.5517980000000  0.5213820000000 1.0
C      1  0.4948740000000  0.5547760000000  0.4589620000000 1.0
C      1  0.4099530000000  0.5369310000000  0.4624530000000 1.0
C      1  0.5033540000000  0.5501820000000  0.5952270000000 1.0
C      1  0.5807490000000  0.5518260000000  0.4482710000000 1.0
C      1  0.5682080000000  0.4148430000000  0.5033010000000 1.0
C      1  0.4807320000000  0.4056350000000  0.4482290000000 1.0
C      1  0.4635040000000  0.4148260000000  0.5591040000000 1.0
C      1  0.5017690000000  0.4200980000000  0.5220470000000 1.0
C      1  0.5111570000000  0.4192790000000  0.4823050000000 1.0
C      1  0.4899160000000  0.4223330000000  0.4984680000000 1.0
C      1  0.4875530000000  0.4805740000000  0.4964810000000 1.0
C      1  0.5246220000000  0.4943070000000  0.5095620000000 1.0
C      1  0.5034890000000  0.4976770000000  0.4834790000000 1.0
C      1  0.5701090000000  0.4928850000000  0.4170040000000 1.0
C      1  0.3879290000000  0.4972660000000  0.4832330000000 1.0
C      1  0.5371100000000  0.4943430000000  0.6004640000000 1.0
C      1  0.4673090000000  0.4638310000000  0.4902220000000 1.0
C      1  0.5072840000000  0.4576550000000  0.5294620000000 1.0
C      1  0.5211140000000  0.4563770000000  0.4761690000000 1.0
C      1  0.4845750000000  0.5993080000000  0.4580900000000 1.0
C      1  0.4705590000000  0.5997290000000  0.5352940000000 1.0
C      1  0.5441330000000  0.5962810000000  0.5080590000000 1.0
C      1  0.4446750000000  0.4494430000000  0.5697220000000 1.0
C      1  0.5902180000000  0.4534960000000  0.5229110000000 1.0
C      1  0.4656380000000  0.4434590000000  0.4214800000000 1.0
C      1  0.4592990000000  0.5412120000000  0.4170860000000 1.0
C      1  0.4490910000000  0.5406690000000  0.5745070000000 1.0
C      1  0.5935700000000  0.5413400000000  0.5040340000000 1.0
C      1  0.5973000000000  0.5061860000000  0.4742330000000 1.0
C      1  0.4409930000000  0.5020980000000  0.4323410000000 1.0
C      1  0.4768020000000  0.5085810000000  0.6032440000000 1.0
C      1  0.5290280000000  0.5690570000000  0.5597420000000 1.0
C      1  0.5347080000000  0.5764700000000  0.4354600000000 1.0
C      1  0.4330340000000  0.5694980000000  0.4955990000000 1.0
C      1  0.4422810000000  0.4299930000000  0.5476910000000 1.0
C      1  0.5730320000000  0.4298090000000  0.5276160000000 1.0
C      1  0.4870410000000  0.4243930000000  0.4272000000000 1.0
C      1  0.5380140000000  0.6002250000000  0.4791960000000 1.0
C      1  0.4625830000000  0.6012330000000  0.4778160000000 1.0
C      1  0.4992280000000  0.6007220000000  0.5423250000000 1.0
C      1  0.5349450000000  0.5419940000000  0.4642240000000 1.0
C      1  0.4516520000000  0.5491630000000  0.4862550000000 1.0
C      1  0.5175660000000  0.5521520000000  0.5355790000000 1.0
C      1  0.4075130000000  0.5603100000000  0.5066480000000 1.0
C      1  0.5501120000000  0.5583590000000  0.5764340000000 1.0
C      1  0.5424390000000  0.5571410000000  0.4158900000000 1.0
C      1  0.5680070000000  0.5413730000000  0.5593090000000 1.0
C      1  0.5198430000000  0.5380800000000  0.4147380000000 1.0
C      1  0.4183810000000  0.5449730000000  0.5287210000000 1.0
C      1  0.5751030000000  0.4717940000000  0.4372240000000 1.0
C      1  0.4007520000000  0.4834840000000  0.4632270000000 1.0
C      1  0.5182790000000  0.4732130000000  0.5988450000000 1.0
C      1  0.5281570000000  0.4016500000000  0.5429700000000 1.0
C      1  0.5273100000000  0.4049820000000  0.4485690000000 1.0
C      1  0.4529630000000  0.4049470000000  0.5041880000000 1.0
C      1  0.5376180000000  0.4492690000000  0.4975040000000 1.0
C      1  0.4755630000000  0.4504260000000  0.4666420000000 1.0
C      1  0.4821030000000  0.4508860000000  0.5359980000000 1.0
C      1  0.5559330000000  0.5164210000000  0.4295980000000 1.0
C      1  0.4073370000000  0.5193910000000  0.4823780000000 1.0
C      1  0.5267030000000  0.5180830000000  0.5810100000000 1.0
C      1  0.4528030000000  0.5831210000000  0.5522920000000 1.0
C      1  0.5685630000000  0.5807330000000  0.5165000000000 1.0
C      1  0.4807900000000  0.5846800000000  0.4329420000000 1.0
C      1  0.5050700000000  0.5677410000000  0.4345620000000 1.0
C      1  0.4411180000000  0.5602190000000  0.5386540000000 1.0
C      1  0.5674960000000  0.5570560000000  0.5335500000000 1.0
C      1  0.3810360000000  0.4943560000000  0.5116360000000 1.0
C      1  0.5644090000000  0.4954630000000  0.5947920000000 1.0
C      1  0.5533960000000  0.4966090000000  0.3941070000000 1.0
C      1  0.5316260000000  0.5244320000000  0.4859050000000 1.0
C      1  0.4693930000000  0.5255190000000  0.4877450000000 1.0
C      1  0.5010360000000  0.5242130000000  0.5311890000000 1.0
C      1  0.6021150000000  0.4615740000000  0.4690950000000 1.0
C      1  0.4175440000000  0.4573290000000  0.4273690000000 1.0
C      1  0.4792130000000  0.4651840000000  0.6023940000000 1.0
C      1  0.5101310000000  0.5943430000000  0.4722250000000 1.0
C      1  0.4706410000000  0.5975170000000  0.5059600000000 1.0
C      1  0.5173070000000  0.5953220000000  0.5195830000000 1.0
C      1  0.4072860000000  0.4773880000000  0.5516820000000 1.0
C      1  0.5909640000000  0.4718240000000  0.5440930000000 1.0
C      1  0.4927550000000  0.4757420000000  0.3981290000000 1.0
C      1  0.4781190000000  0.5688830000000  0.5069420000000 1.0
C      1  0.5068760000000  0.5683060000000  0.5110730000000 1.0
C      1  0.5126380000000  0.5651370000000  0.4790730000000 1.0
C      1  0.4512760000000  0.4800940000000  0.5711400000000 1.0
C      1  0.5906980000000  0.4726290000000  0.4972770000000 1.0
C      1  0.4666770000000  0.4688350000000  0.4064730000000 1.0
C      1  0.5439970000000  0.5181240000000  0.5558010000000 1.0
C      1  0.5264940000000  0.5237570000000  0.4405230000000 1.0
C      1  0.4275530000000  0.5200200000000  0.5162130000000 1.0
C      1  0.5079660000000  0.4776430000000  0.4415550000000 1.0
C      1  0.4464240000000  0.4822380000000  0.5215370000000 1.0
C      1  0.5467060000000  0.4724990000000  0.5392050000000 1.0
C      1  0.4373120000000  0.5447730000000  0.4584880000000 1.0
C      1  0.4912280000000  0.5251320000000  0.5823280000000 1.0
C      1  0.5626470000000  0.5374860000000  0.4656110000000 1.0
C      1  0.5570050000000  0.4452490000000  0.4420990000000 1.0
C      1  0.4244150000000  0.4385380000000  0.4798920000000 1.0
C      1  0.5199350000000  0.4390050000000  0.5783520000000 1.0
C      1  0.4386300000000  0.4370640000000  0.4294900000000 1.0
C      1  0.4644700000000  0.4322460000000  0.5826100000000 1.0
C      1  0.5865430000000  0.4285720000000  0.4875610000000 1.0
C      1  0.4571540000000  0.5691180000000  0.4259420000000 1.0
C      1  0.4606780000000  0.5683420000000  0.5759290000000 1.0
C      1  0.5842830000000  0.5679750000000  0.4954020000000 1.0
C      1  0.5521480000000  0.5855950000000  0.4578120000000 1.0
C      1  0.4378850000000  0.5867990000000  0.4721020000000 1.0
C      1  0.5077480000000  0.5873970000000  0.5671870000000 1.0
C      1  0.4253250000000  0.4971220000000  0.5623780000000 1.0
C      1  0.5947960000000  0.5010950000000  0.5433040000000 1.0
C      1  0.4915000000000  0.5041350000000  0.3953110000000 1.0
C      1  0.5351310000000  0.4442080000000  0.4229290000000 1.0
C      1  0.4179640000000  0.4430810000000  0.5076760000000 1.0
C      1  0.5467160000000  0.4414710000000  0.5682750000000 1.0
C      1  0.6062730000000  0.4986210000000  0.4997740000000 1.0
C      1  0.4524970000000  0.4944000000000  0.4073590000000 1.0
C      1  0.4504940000000  0.4993250000000  0.5957670000000 1.0
C      1  0.5315860000000  0.4771630000000  0.4596580000000 1.0
C      1  0.4449970000000  0.4786550000000  0.4935690000000 1.0
C      1  0.5202710000000  0.4764470000000  0.5485980000000 1.0
C      1  0.4950340000000  0.4862960000000  0.6114160000000 1.0
C      1  0.5951470000000  0.4851150000000  0.4534420000000 1.0
C      1  0.4148000000000  0.4833370000000  0.4405080000000 1.0
C      1  0.4906990000000  0.4427410000000  0.5933100000000 1.0
C      1  0.5869760000000  0.4382600000000  0.4612850000000 1.0
C      1  0.4194610000000  0.4414110000000  0.4513910000000 1.0
C      1  0.6030610000000  0.5182620000000  0.5205100000000 1.0
C      1  0.4664250000000  0.5182960000000  0.4000380000000 1.0
C      1  0.4322200000000  0.5177700000000  0.5825920000000 1.0
C      1  0.4875670000000  0.4232660000000  0.5474160000000 1.0
C      1  0.5418120000000  0.4218630000000  0.4881190000000 1.0
C      1  0.4634230000000  0.4253400000000  0.4607070000000 1.0
C      1  0.5780450000000  0.5745110000000  0.4664950000000 1.0
C      1  0.4376160000000  0.5720680000000  0.4471170000000 1.0
C      1  0.4885950000000  0.5727140000000  0.5843990000000 1.0
C      1  0.5477370000000  0.4714250000000  0.5117240000000 1.0
C      1  0.4802540000000  0.4720890000000  0.4490420000000 1.0
C      1  0.4669700000000  0.4712280000000  0.5358000000000 1.0
C      1  0.5497400000000  0.4203580000000  0.4581720000000 1.0
C      1  0.4432950000000  0.4168870000000  0.4794850000000 1.0
C      1  0.5127900000000  0.4152030000000  0.5635350000000 1.0
C      1  0.4584430000000  0.4898760000000  0.4529950000000 1.0
C      1  0.4778290000000  0.4853670000000  0.5570510000000 1.0
C      1  0.5635860000000  0.4836530000000  0.4918690000000 1.0
C      1  0.4536190000000  0.5281940000000  0.4407600000000 1.0
C      1  0.4703390000000  0.5259900000000  0.5619380000000 1.0
C      1  0.5777940000000  0.5246450000000  0.4851030000000 1.0
C      1  0.5018920000000  0.4990950000000  0.5498580000000 1.0
C      1  0.5459410000000  0.4973940000000  0.4741680000000 1.0
C      1  0.4523230000000  0.5012350000000  0.4785070000000 1.0
C      1  0.4998510000000  0.5252340000000  0.5004790000000 1.0
C      1  0.5043430000000  0.4595440000000  0.5005620000000 1.0
END
