TITL C-2441160-1326-387 0.22391688730505 125000 -11557.0863692796 0 0 120 (C1) n - 1
REM
REM in /home/bkarasulu/work/CARBON/AIRSS/Generating-Clusters/ReaxFF-fromJPCA2015/Units_Real/with-SteepDescent/Higher-Symm
REM
REM
REM
REM
REM
REM ./C.cell (1df0a924f5614ab8850e4351716899ee)
REM
REM compiler GCC version 9.2.1 20190827 (Red Hat 9.2.1-1)
REM options -cpp -mtune=generic -march=x86-64 -g -O0 -fpre-include=/usr/include/finclude/math-vector-fortran.h
REM seed -542845123 979789509 1417805747 -724561499 -407135630 -1115913630 1267791909 1246971749 -1376315757 -417292328 -1057658828 -1271685639 1539296397 411959864 -395551113 -1113805339 1831449674 -1289669205 1231839623 -351498704 -699797318 323788525 8673516 -623707368 -1260805032 -1428902927 -1756901751 -146467103 1567464814 -430626136 585121450 107810270 690032055
REM
CELL 1.54180   50.00000   50.00000   50.00000   90.00000   90.00000   90.00000
LATT -1
SFAC C  
C      1  0.5618960000000  0.4511130000000  0.4502260000000 1.0
C      1  0.5629590000000  0.5488370000000  0.5493520000000 1.0
C      1  0.4381900000000  0.4512300000000  0.4504350000000 1.0
C      1  0.4377500000000  0.5494150000000  0.5498630000000 1.0
C      1  0.5514090000000  0.4522250000000  0.5508880000000 1.0
C      1  0.5525860000000  0.5478090000000  0.4486990000000 1.0
C      1  0.4475100000000  0.4522210000000  0.5512900000000 1.0
C      1  0.4486850000000  0.5477770000000  0.4499200000000 1.0
C      1  0.5494390000000  0.5292810000000  0.5676600000000 1.0
C      1  0.5498770000000  0.4711220000000  0.4312160000000 1.0
C      1  0.4500630000000  0.5288740000000  0.5686150000000 1.0
C      1  0.4499720000000  0.4713190000000  0.4315400000000 1.0
C      1  0.4876070000000  0.5476420000000  0.4624780000000 1.0
C      1  0.4869140000000  0.4580290000000  0.5376130000000 1.0
C      1  0.5132150000000  0.5459530000000  0.4616230000000 1.0
C      1  0.5127940000000  0.4522270000000  0.5368710000000 1.0
C      1  0.4863640000000  0.5641800000000  0.4402970000000 1.0
C      1  0.4856170000000  0.4379650000000  0.5593150000000 1.0
C      1  0.5148750000000  0.5636080000000  0.4401410000000 1.0
C      1  0.5133620000000  0.4361790000000  0.5590470000000 1.0
C      1  0.4648740000000  0.5423780000000  0.4744400000000 1.0
C      1  0.4635030000000  0.4509050000000  0.5278320000000 1.0
C      1  0.5362020000000  0.5454270000000  0.4732570000000 1.0
C      1  0.5355750000000  0.4544620000000  0.5260060000000 1.0
C      1  0.5249370000000  0.5184930000000  0.5794750000000 1.0
C      1  0.5255580000000  0.4845920000000  0.4216610000000 1.0
C      1  0.4746660000000  0.5156530000000  0.5777870000000 1.0
C      1  0.4743050000000  0.4845740000000  0.4217940000000 1.0
C      1  0.5642750000000  0.4328190000000  0.4740250000000 1.0
C      1  0.5645010000000  0.5681630000000  0.5259320000000 1.0
C      1  0.4351900000000  0.4325530000000  0.4739630000000 1.0
C      1  0.4356260000000  0.5673030000000  0.5261880000000 1.0
C      1  0.4587010000000  0.5758430000000  0.4872010000000 1.0
C      1  0.4596310000000  0.4252110000000  0.5157980000000 1.0
C      1  0.5401700000000  0.5735280000000  0.4843400000000 1.0
C      1  0.5408590000000  0.4257630000000  0.5147980000000 1.0
C      1  0.5675950000000  0.4825960000000  0.5260330000000 1.0
C      1  0.5673130000000  0.5173490000000  0.4739930000000 1.0
C      1  0.4325130000000  0.4830490000000  0.5266760000000 1.0
C      1  0.4319990000000  0.5169910000000  0.4745440000000 1.0
C      1  0.4652450000000  0.4673250000000  0.4794560000000 1.0
C      1  0.4633370000000  0.5321760000000  0.5203080000000 1.0
C      1  0.5365980000000  0.4682260000000  0.4803180000000 1.0
C      1  0.5360990000000  0.5313390000000  0.5189730000000 1.0
C      1  0.5177080000000  0.4888660000000  0.5748950000000 1.0
C      1  0.5179520000000  0.5128640000000  0.4226920000000 1.0
C      1  0.4819220000000  0.4871890000000  0.5777400000000 1.0
C      1  0.4825260000000  0.5128520000000  0.4239850000000 1.0
C      1  0.5138600000000  0.5034300000000  0.4600360000000 1.0
C      1  0.5136870000000  0.4952240000000  0.5412150000000 1.0
C      1  0.4857380000000  0.5043090000000  0.4601000000000 1.0
C      1  0.4850930000000  0.4927970000000  0.5394930000000 1.0
C      1  0.4186860000000  0.4695010000000  0.4623520000000 1.0
C      1  0.4182290000000  0.5309980000000  0.5379150000000 1.0
C      1  0.5813200000000  0.4694040000000  0.4622510000000 1.0
C      1  0.5815930000000  0.5295330000000  0.5379160000000 1.0
C      1  0.4853010000000  0.5171390000000  0.5055750000000 1.0
C      1  0.4862170000000  0.4763430000000  0.4953580000000 1.0
C      1  0.5131450000000  0.5220780000000  0.5047350000000 1.0
C      1  0.5133790000000  0.4795010000000  0.4944810000000 1.0
C      1  0.5850540000000  0.5224910000000  0.5097990000000 1.0
C      1  0.5847040000000  0.4776470000000  0.4905970000000 1.0
C      1  0.4150830000000  0.5225780000000  0.5095480000000 1.0
C      1  0.4158930000000  0.4776520000000  0.4906880000000 1.0
C      1  0.4877100000000  0.4676710000000  0.4401100000000 1.0
C      1  0.4874690000000  0.5315970000000  0.5585440000000 1.0
C      1  0.5123890000000  0.4678830000000  0.4401340000000 1.0
C      1  0.5120860000000  0.5324450000000  0.5576820000000 1.0
C      1  0.5240370000000  0.4836150000000  0.5186720000000 1.0
C      1  0.5230350000000  0.5147860000000  0.4818800000000 1.0
C      1  0.4780860000000  0.4920210000000  0.5140880000000 1.0
C      1  0.4749660000000  0.5177090000000  0.4815320000000 1.0
C      1  0.5777710000000  0.4508560000000  0.5282130000000 1.0
C      1  0.5778180000000  0.5493520000000  0.4721790000000 1.0
C      1  0.4219100000000  0.4502270000000  0.5271490000000 1.0
C      1  0.4219030000000  0.5492550000000  0.4715410000000 1.0
C      1  0.4853040000000  0.4206430000000  0.4516450000000 1.0
C      1  0.4856430000000  0.5776300000000  0.5481160000000 1.0
C      1  0.5148680000000  0.4210720000000  0.4515150000000 1.0
C      1  0.5150180000000  0.5776610000000  0.5492910000000 1.0
C      1  0.5424560000000  0.4859540000000  0.4568660000000 1.0
C      1  0.5433280000000  0.5143460000000  0.5433140000000 1.0
C      1  0.4576680000000  0.4857780000000  0.4572620000000 1.0
C      1  0.4562460000000  0.5138930000000  0.5434140000000 1.0
C      1  0.4062630000000  0.4728180000000  0.5169170000000 1.0
C      1  0.4057300000000  0.5272670000000  0.4831180000000 1.0
C      1  0.5940200000000  0.4728530000000  0.5170510000000 1.0
C      1  0.5938510000000  0.5272970000000  0.4831410000000 1.0
C      1  0.5382200000000  0.5295310000000  0.4337370000000 1.0
C      1  0.5385100000000  0.4710320000000  0.5663720000000 1.0
C      1  0.4613680000000  0.5297430000000  0.4333840000000 1.0
C      1  0.4617030000000  0.4704210000000  0.5667840000000 1.0
C      1  0.4872070000000  0.4260470000000  0.5050420000000 1.0
C      1  0.4868070000000  0.5720490000000  0.4946630000000 1.0
C      1  0.5134100000000  0.4278230000000  0.5049560000000 1.0
C      1  0.5131920000000  0.5741810000000  0.4954070000000 1.0
C      1  0.4860270000000  0.5580510000000  0.5702000000000 1.0
C      1  0.4852710000000  0.4397620000000  0.4290710000000 1.0
C      1  0.5158090000000  0.5575460000000  0.5716320000000 1.0
C      1  0.5147310000000  0.4410660000000  0.4303030000000 1.0
C      1  0.4783040000000  0.5631820000000  0.5217470000000 1.0
C      1  0.4780120000000  0.4364100000000  0.4784950000000 1.0
C      1  0.5223070000000  0.5635770000000  0.5215210000000 1.0
C      1  0.5223440000000  0.4371630000000  0.4784790000000 1.0
C      1  0.5697630000000  0.4961680000000  0.4559930000000 1.0
C      1  0.5699790000000  0.5036140000000  0.5442420000000 1.0
C      1  0.4302190000000  0.4963230000000  0.4562700000000 1.0
C      1  0.4295170000000  0.5040360000000  0.5441420000000 1.0
C      1  0.4426580000000  0.4861540000000  0.5005680000000 1.0
C      1  0.4414230000000  0.5148140000000  0.5008920000000 1.0
C      1  0.5581550000000  0.4856840000000  0.4995880000000 1.0
C      1  0.5584140000000  0.5141870000000  0.5005940000000 1.0
C      1  0.4577970000000  0.5846580000000  0.5196890000000 1.0
C      1  0.4573960000000  0.4152160000000  0.4778390000000 1.0
C      1  0.5422760000000  0.5851020000000  0.5218600000000 1.0
C      1  0.5422110000000  0.4154270000000  0.4800460000000 1.0
C      1  0.5660380000000  0.4375930000000  0.5045190000000 1.0
C      1  0.5652870000000  0.5634100000000  0.4956270000000 1.0
C      1  0.4348110000000  0.4370590000000  0.5043140000000 1.0
C      1  0.4338080000000  0.5622280000000  0.4953920000000 1.0
END
