TITL C-2441158-471-1272 0.0260815266364068 125000 -12482.3742619517 0 0 92 (C1) n - 1
REM
REM in /home/bkarasulu/work/CARBON/AIRSS/Generating-Clusters/ReaxFF-fromJPCA2015/Units_Real/with-SteepDescent/Higher-Symm
REM
REM
REM
REM
REM
REM ./C.cell (1df0a924f5614ab8850e4351716899ee)
REM
REM compiler GCC version 9.2.1 20190827 (Red Hat 9.2.1-1)
REM options -cpp -mtune=generic -march=x86-64 -g -O0 -fpre-include=/usr/include/finclude/math-vector-fortran.h
REM seed -1576817808 683336172 -233772609 1436635030 1546792741 1834056009 -2027593551 672926908 -187378586 1541048452 956054341 -440561210 1511059771 1383732541 2140843473 1190668181 -2045003315 564596362 1155496008 345193149 1974108430 -27456666 221860809 -1962745505 -1976925451 395891474 -1618962511 1691828843 -908926561 704515060 243308365 -2001963248 2032388085
REM
CELL 1.54180   50.00000   50.00000   50.00000   90.00000   90.00000   90.00000
LATT -1
SFAC C  
C      1  0.5416940000000  0.4759580000000  0.4220310000000 1.0
C      1  0.5412360000000  0.5282990000000  0.4226570000000 1.0
C      1  0.5233430000000  0.4716110000000  0.4640440000000 1.0
C      1  0.5227330000000  0.5276490000000  0.4645130000000 1.0
C      1  0.4540880000000  0.4285640000000  0.5375970000000 1.0
C      1  0.4538240000000  0.5724940000000  0.5384560000000 1.0
C      1  0.5421520000000  0.5505010000000  0.4578840000000 1.0
C      1  0.5436330000000  0.4501190000000  0.4583380000000 1.0
C      1  0.5426140000000  0.4852340000000  0.4891620000000 1.0
C      1  0.5426280000000  0.5133320000000  0.4889970000000 1.0
C      1  0.5570900000000  0.4504000000000  0.5200580000000 1.0
C      1  0.5569840000000  0.5487470000000  0.5185230000000 1.0
C      1  0.4969930000000  0.5558190000000  0.5593980000000 1.0
C      1  0.4966140000000  0.4447620000000  0.5592750000000 1.0
C      1  0.5651980000000  0.4485130000000  0.5427170000000 1.0
C      1  0.5651430000000  0.5517540000000  0.5414520000000 1.0
C      1  0.4413580000000  0.5412930000000  0.4566420000000 1.0
C      1  0.4415620000000  0.4585340000000  0.4564000000000 1.0
C      1  0.5399070000000  0.5774140000000  0.4975290000000 1.0
C      1  0.5393460000000  0.4198550000000  0.4988830000000 1.0
C      1  0.4107680000000  0.5326650000000  0.4984010000000 1.0
C      1  0.4117030000000  0.4680300000000  0.4979970000000 1.0
C      1  0.4436330000000  0.5686990000000  0.5132760000000 1.0
C      1  0.4467360000000  0.4335830000000  0.5121430000000 1.0
C      1  0.5717610000000  0.5191140000000  0.4864020000000 1.0
C      1  0.5715290000000  0.4788350000000  0.4860280000000 1.0
C      1  0.5464210000000  0.5135360000000  0.5422350000000 1.0
C      1  0.5461140000000  0.4862720000000  0.5423730000000 1.0
C      1  0.4695790000000  0.4833350000000  0.4958210000000 1.0
C      1  0.4691500000000  0.5140950000000  0.4951770000000 1.0
C      1  0.5182060000000  0.5692430000000  0.5445700000000 1.0
C      1  0.5175940000000  0.4306850000000  0.5447580000000 1.0
C      1  0.4651580000000  0.5874110000000  0.5182710000000 1.0
C      1  0.4653800000000  0.4125350000000  0.5181650000000 1.0
C      1  0.4402290000000  0.5209500000000  0.5436130000000 1.0
C      1  0.4396570000000  0.4804750000000  0.5442700000000 1.0
C      1  0.5212680000000  0.4868050000000  0.4054490000000 1.0
C      1  0.5210290000000  0.5158070000000  0.4065210000000 1.0
C      1  0.4190840000000  0.5137870000000  0.5184760000000 1.0
C      1  0.4191690000000  0.4869290000000  0.5184880000000 1.0
C      1  0.5784730000000  0.5398000000000  0.5055190000000 1.0
C      1  0.5781420000000  0.4573340000000  0.5052770000000 1.0
C      1  0.5660590000000  0.4309920000000  0.5020250000000 1.0
C      1  0.5658170000000  0.5634300000000  0.4943910000000 1.0
C      1  0.5249500000000  0.5686490000000  0.4743520000000 1.0
C      1  0.5281620000000  0.4314260000000  0.4747020000000 1.0
C      1  0.5356280000000  0.5230360000000  0.5159080000000 1.0
C      1  0.5353230000000  0.4764050000000  0.5162700000000 1.0
C      1  0.5084840000000  0.5308020000000  0.5654870000000 1.0
C      1  0.5079630000000  0.4696990000000  0.5657580000000 1.0
C      1  0.4675360000000  0.5281190000000  0.5333550000000 1.0
C      1  0.4667400000000  0.4735740000000  0.5342090000000 1.0
C      1  0.5373430000000  0.4690840000000  0.5651100000000 1.0
C      1  0.5378950000000  0.5310930000000  0.5646700000000 1.0
C      1  0.4407540000000  0.5355380000000  0.5678350000000 1.0
C      1  0.4401190000000  0.4648410000000  0.5679700000000 1.0
C      1  0.4408660000000  0.5151080000000  0.4416310000000 1.0
C      1  0.4401310000000  0.4849800000000  0.4417000000000 1.0
C      1  0.4648910000000  0.5586510000000  0.4622970000000 1.0
C      1  0.4636930000000  0.4399900000000  0.4614070000000 1.0
C      1  0.5678120000000  0.5362230000000  0.4626450000000 1.0
C      1  0.5671430000000  0.4681100000000  0.4591770000000 1.0
C      1  0.4662930000000  0.5514980000000  0.5517820000000 1.0
C      1  0.4659060000000  0.4495150000000  0.5516310000000 1.0
C      1  0.4231410000000  0.4414140000000  0.4991450000000 1.0
C      1  0.4212420000000  0.5589950000000  0.4991450000000 1.0
C      1  0.5077590000000  0.5246270000000  0.5191640000000 1.0
C      1  0.5073520000000  0.4747490000000  0.5196390000000 1.0
C      1  0.4776760000000  0.4854940000000  0.4673790000000 1.0
C      1  0.4782420000000  0.5130470000000  0.4672230000000 1.0
C      1  0.5166680000000  0.5779750000000  0.5159420000000 1.0
C      1  0.5158770000000  0.4201550000000  0.5168910000000 1.0
C      1  0.4918330000000  0.4639630000000  0.4994490000000 1.0
C      1  0.4903590000000  0.5351200000000  0.4999530000000 1.0
C      1  0.5141700000000  0.5157500000000  0.4357510000000 1.0
C      1  0.5145800000000  0.4844250000000  0.4348620000000 1.0
C      1  0.4904780000000  0.5853810000000  0.5043490000000 1.0
C      1  0.4904230000000  0.4138070000000  0.5036700000000 1.0
C      1  0.4204400000000  0.4539120000000  0.4749850000000 1.0
C      1  0.4193350000000  0.5463980000000  0.4745070000000 1.0
C      1  0.5052360000000  0.4509020000000  0.4760930000000 1.0
C      1  0.5028260000000  0.5476740000000  0.4755280000000 1.0
C      1  0.4687690000000  0.4840130000000  0.4377910000000 1.0
C      1  0.4695980000000  0.5139610000000  0.4381890000000 1.0
C      1  0.5434540000000  0.5592650000000  0.5573020000000 1.0
C      1  0.5427320000000  0.4409620000000  0.5575680000000 1.0
C      1  0.5627670000000  0.5180680000000  0.4393470000000 1.0
C      1  0.5629970000000  0.4876660000000  0.4378310000000 1.0
C      1  0.4926640000000  0.4846450000000  0.5424670000000 1.0
C      1  0.4930940000000  0.5159820000000  0.5421770000000 1.0
C      1  0.4788770000000  0.5808590000000  0.4761970000000 1.0
C      1  0.4789800000000  0.4192510000000  0.4753640000000 1.0
END
