TITL C-2441163-1170-925 0.0426641010523649 125000 -18615.772414565 0 0 134 (C1) n - 1
REM
REM in /home/bkarasulu/work/CARBON/AIRSS/Generating-Clusters/ReaxFF-fromJPCA2015/Units_Real/with-SteepDescent/Higher-Symm
REM
REM
REM
REM
REM
REM ./C.cell (1df0a924f5614ab8850e4351716899ee)
REM
REM compiler GCC version 9.2.1 20190827 (Red Hat 9.2.1-1)
REM options -cpp -mtune=generic -march=x86-64 -g -O0 -fpre-include=/usr/include/finclude/math-vector-fortran.h
REM seed -1403768078 -634049640 -2024989113 1414275133 842513332 1742623334 190993877 399465891 33278572 198351481 800647374 -651749888 -152170745 1226707718 -1870381941 -1618917374 -782043300 713295665 -865268509 1363473023 171530882 -1781633235 -728880929 -992225453 1368345439 1598532749 359738995 -1669151928 1552980185 -1421725412 -615780033 1562237151 -1126892390
REM
CELL 1.54180   50.00000   50.00000   50.00000   90.00000   90.00000   90.00000
LATT -1
SFAC C  
C      1  0.4589700000000  0.5461390000000  0.4988280000000 1.0
C      1  0.5668370000000  0.5131350000000  0.4965060000000 1.0
C      1  0.4821180000000  0.4351400000000  0.4937260000000 1.0
C      1  0.4634900000000  0.4555410000000  0.5011670000000 1.0
C      1  0.5666230000000  0.4863080000000  0.5062350000000 1.0
C      1  0.4782710000000  0.5665840000000  0.5030480000000 1.0
C      1  0.5436120000000  0.4511980000000  0.5065620000000 1.0
C      1  0.4294630000000  0.4861570000000  0.5045620000000 1.0
C      1  0.5203960000000  0.5620150000000  0.5047490000000 1.0
C      1  0.5437990000000  0.5485110000000  0.4951020000000 1.0
C      1  0.4277760000000  0.5125600000000  0.4947570000000 1.0
C      1  0.5241200000000  0.4326200000000  0.4964450000000 1.0
C      1  0.4658210000000  0.4132460000000  0.4626510000000 1.0
C      1  0.4415010000000  0.5694370000000  0.4621690000000 1.0
C      1  0.5925710000000  0.5169050000000  0.4595830000000 1.0
C      1  0.4647060000000  0.5884930000000  0.5395320000000 1.0
C      1  0.4447440000000  0.4294700000000  0.5351360000000 1.0
C      1  0.5918390000000  0.4831380000000  0.5410430000000 1.0
C      1  0.5359820000000  0.5864840000000  0.5379040000000 1.0
C      1  0.5592120000000  0.4280800000000  0.5376230000000 1.0
C      1  0.4089100000000  0.4821670000000  0.5409230000000 1.0
C      1  0.5334480000000  0.4121840000000  0.4589340000000 1.0
C      1  0.5577270000000  0.5728460000000  0.4617440000000 1.0
C      1  0.4070730000000  0.5173950000000  0.4587730000000 1.0
C      1  0.5813650000000  0.4344560000000  0.5197570000000 1.0
C      1  0.4060190000000  0.4559820000000  0.5303730000000 1.0
C      1  0.5163340000000  0.6010850000000  0.5213680000000 1.0
C      1  0.5807840000000  0.5656970000000  0.4783070000000 1.0
C      1  0.4050050000000  0.5442130000000  0.4682110000000 1.0
C      1  0.5107050000000  0.3930140000000  0.4672130000000 1.0
C      1  0.4192250000000  0.5653240000000  0.4805720000000 1.0
C      1  0.5956530000000  0.5440770000000  0.4673240000000 1.0
C      1  0.4839860000000  0.3962890000000  0.4781480000000 1.0
C      1  0.4211680000000  0.4353690000000  0.5178240000000 1.0
C      1  0.5984920000000  0.4563690000000  0.5303880000000 1.0
C      1  0.4895700000000  0.6016510000000  0.5324840000000 1.0
C      1  0.4795150000000  0.4745210000000  0.4838710000000 1.0
C      1  0.4876630000000  0.5217320000000  0.4725920000000 1.0
C      1  0.5249180000000  0.4974970000000  0.4727240000000 1.0
C      1  0.4797970000000  0.5290080000000  0.5229070000000 1.0
C      1  0.4893980000000  0.4828420000000  0.5241300000000 1.0
C      1  0.5253180000000  0.5039270000000  0.5251590000000 1.0
C      1  0.5097140000000  0.5251950000000  0.5142570000000 1.0
C      1  0.5155810000000  0.4791060000000  0.5126890000000 1.0
C      1  0.4718810000000  0.5024290000000  0.5146080000000 1.0
C      1  0.5092180000000  0.4763440000000  0.4839610000000 1.0
C      1  0.5136600000000  0.5219470000000  0.4849630000000 1.0
C      1  0.4709400000000  0.5020930000000  0.4856750000000 1.0
C      1  0.5224310000000  0.5303960000000  0.5820450000000 1.0
C      1  0.5156740000000  0.4663080000000  0.5842760000000 1.0
C      1  0.4606900000000  0.5097820000000  0.5854470000000 1.0
C      1  0.5261420000000  0.4717780000000  0.4101980000000 1.0
C      1  0.5193150000000  0.5359210000000  0.4177970000000 1.0
C      1  0.4605070000000  0.4898780000000  0.4128170000000 1.0
C      1  0.4707990000000  0.4625710000000  0.4127770000000 1.0
C      1  0.4889030000000  0.5364350000000  0.4188780000000 1.0
C      1  0.5368090000000  0.4983920000000  0.4183060000000 1.0
C      1  0.4742530000000  0.5346060000000  0.5780280000000 1.0
C      1  0.4860240000000  0.4614960000000  0.5877790000000 1.0
C      1  0.5355720000000  0.5035530000000  0.5808320000000 1.0
C      1  0.4869140000000  0.4351020000000  0.4639610000000 1.0
C      1  0.4521150000000  0.5420570000000  0.4666820000000 1.0
C      1  0.5646770000000  0.5191270000000  0.4677500000000 1.0
C      1  0.4860160000000  0.5710710000000  0.5329510000000 1.0
C      1  0.4549700000000  0.4573040000000  0.5358420000000 1.0
C      1  0.5624950000000  0.4799800000000  0.5358220000000 1.0
C      1  0.5168120000000  0.5632100000000  0.5378920000000 1.0
C      1  0.5456750000000  0.4543530000000  0.5360670000000 1.0
C      1  0.4372500000000  0.4810240000000  0.5327970000000 1.0
C      1  0.5166120000000  0.4340020000000  0.4678230000000 1.0
C      1  0.5481180000000  0.5430950000000  0.4622270000000 1.0
C      1  0.4354360000000  0.5178620000000  0.4667290000000 1.0
C      1  0.5265640000000  0.5046110000000  0.4452320000000 1.0
C      1  0.4844650000000  0.4595580000000  0.4388550000000 1.0
C      1  0.4766230000000  0.5293720000000  0.4461800000000 1.0
C      1  0.5365440000000  0.4955800000000  0.5511490000000 1.0
C      1  0.4861190000000  0.5337040000000  0.5518180000000 1.0
C      1  0.4703980000000  0.4664880000000  0.5639260000000 1.0
C      1  0.4686440000000  0.4928400000000  0.5644490000000 1.0
C      1  0.5128010000000  0.5405930000000  0.5564040000000 1.0
C      1  0.5197320000000  0.4724320000000  0.5563680000000 1.0
C      1  0.4739120000000  0.5025150000000  0.4355580000000 1.0
C      1  0.5100160000000  0.4655920000000  0.4333960000000 1.0
C      1  0.5289610000000  0.5316780000000  0.4443510000000 1.0
C      1  0.5172700000000  0.4106980000000  0.5130750000000 1.0
C      1  0.4164990000000  0.5291930000000  0.5145630000000 1.0
C      1  0.5705090000000  0.5563560000000  0.5083000000000 1.0
C      1  0.5146040000000  0.5893880000000  0.4916060000000 1.0
C      1  0.4167340000000  0.4704350000000  0.4855920000000 1.0
C      1  0.5694100000000  0.4432660000000  0.4920650000000 1.0
C      1  0.4835330000000  0.5877140000000  0.4854320000000 1.0
C      1  0.5824740000000  0.4713180000000  0.4884960000000 1.0
C      1  0.4323150000000  0.4448190000000  0.4902090000000 1.0
C      1  0.4866920000000  0.4089580000000  0.5085560000000 1.0
C      1  0.5835150000000  0.5286280000000  0.5136870000000 1.0
C      1  0.4311530000000  0.5564820000000  0.5094250000000 1.0
C      1  0.4868940000000  0.4193310000000  0.5570620000000 1.0
C      1  0.4359020000000  0.5544390000000  0.5547150000000 1.0
C      1  0.5778650000000  0.5262220000000  0.5569110000000 1.0
C      1  0.4862170000000  0.5820850000000  0.4410780000000 1.0
C      1  0.4360460000000  0.4475640000000  0.4445140000000 1.0
C      1  0.5754690000000  0.4753200000000  0.4463730000000 1.0
C      1  0.5160530000000  0.5820190000000  0.4433840000000 1.0
C      1  0.5607540000000  0.4491800000000  0.4441250000000 1.0
C      1  0.4242140000000  0.4738190000000  0.4449550000000 1.0
C      1  0.5166120000000  0.4201190000000  0.5566550000000 1.0
C      1  0.5632480000000  0.5517610000000  0.5559270000000 1.0
C      1  0.4224490000000  0.5284780000000  0.5562890000000 1.0
C      1  0.5487270000000  0.5435470000000  0.5819220000000 1.0
C      1  0.5172940000000  0.4359340000000  0.5823400000000 1.0
C      1  0.4346640000000  0.5236660000000  0.5825950000000 1.0
C      1  0.5514940000000  0.4579570000000  0.4168610000000 1.0
C      1  0.5175110000000  0.5661300000000  0.4172850000000 1.0
C      1  0.4333280000000  0.4793600000000  0.4176510000000 1.0
C      1  0.4441290000000  0.4521450000000  0.4163600000000 1.0
C      1  0.4879860000000  0.5657530000000  0.4164490000000 1.0
C      1  0.5635080000000  0.4847610000000  0.4204830000000 1.0
C      1  0.4489800000000  0.5490140000000  0.5803710000000 1.0
C      1  0.4879500000000  0.4330090000000  0.5839800000000 1.0
C      1  0.5620850000000  0.5172640000000  0.5812350000000 1.0
C      1  0.5923170000000  0.4867860000000  0.4659120000000 1.0
C      1  0.4413550000000  0.4290860000000  0.4657290000000 1.0
C      1  0.4664300000000  0.5863370000000  0.4621780000000 1.0
C      1  0.5930320000000  0.5131050000000  0.5362360000000 1.0
C      1  0.4410610000000  0.5726040000000  0.5337140000000 1.0
C      1  0.4693910000000  0.4140290000000  0.5346760000000 1.0
C      1  0.4085200000000  0.5129070000000  0.5368550000000 1.0
C      1  0.5602660000000  0.5707640000000  0.5346120000000 1.0
C      1  0.5348980000000  0.4111260000000  0.5361220000000 1.0
C      1  0.4079230000000  0.4873140000000  0.4640370000000 1.0
C      1  0.5573300000000  0.4288650000000  0.4643590000000 1.0
C      1  0.5331240000000  0.5875090000000  0.4657540000000 1.0
C      1  0.4926640000000  0.4838340000000  0.5504400000000 1.0
C      1  0.4943250000000  0.4856760000000  0.4444270000000 1.0
END
