TITL C-2441158-471-499 0.00786926057961053 125000 -11045.5388543144 0 0 78 (C1) n - 1
REM
REM in /home/bkarasulu/work/CARBON/AIRSS/Generating-Clusters/ReaxFF-fromJPCA2015/Units_Real/with-SteepDescent/Higher-Symm
REM
REM
REM
REM
REM
REM ./C.cell (1df0a924f5614ab8850e4351716899ee)
REM
REM compiler GCC version 9.2.1 20190827 (Red Hat 9.2.1-1)
REM options -cpp -mtune=generic -march=x86-64 -g -O0 -fpre-include=/usr/include/finclude/math-vector-fortran.h
REM seed 1123298304 -1198076933 -973750502 -30242804 -676699556 1288788639 1661926526 1768831750 1497606532 1781632035 484721111 -1891263730 -216726785 1275058077 -681936605 -173294231 -837667330 -1362956537 2036611597 259378027 1335322502 1138901946 -1712413692 -1127205615 -1117164416 -1551549778 1244440837 1839447153 -130025766 -1626554232 -119767802 1678067617 803927903
REM
CELL 1.54180   50.00000   50.00000   50.00000   90.00000   90.00000   90.00000
LATT -1
SFAC C  
C      1  0.5398800000000  0.5359350000000  0.5561270000000 1.0
C      1  0.4370810000000  0.4581940000000  0.4800140000000 1.0
C      1  0.4425580000000  0.5238570000000  0.4639650000000 1.0
C      1  0.4913720000000  0.4341150000000  0.5416940000000 1.0
C      1  0.4919520000000  0.4977210000000  0.4650230000000 1.0
C      1  0.4236650000000  0.5060800000000  0.5078850000000 1.0
C      1  0.5255760000000  0.5611360000000  0.5511180000000 1.0
C      1  0.4529010000000  0.5472630000000  0.5325160000000 1.0
C      1  0.4628550000000  0.4366790000000  0.5466410000000 1.0
C      1  0.4800150000000  0.5421540000000  0.4562580000000 1.0
C      1  0.4589960000000  0.4640370000000  0.5585510000000 1.0
C      1  0.5310470000000  0.4555580000000  0.5487970000000 1.0
C      1  0.5265440000000  0.4997040000000  0.4911130000000 1.0
C      1  0.4632240000000  0.5669660000000  0.4875960000000 1.0
C      1  0.5281940000000  0.5288800000000  0.4445300000000 1.0
C      1  0.5264550000000  0.4380110000000  0.4685060000000 1.0
C      1  0.4693460000000  0.4402760000000  0.4506740000000 1.0
C      1  0.4988690000000  0.4934400000000  0.4199140000000 1.0
C      1  0.5489070000000  0.5229810000000  0.5299000000000 1.0
C      1  0.4794520000000  0.5102370000000  0.5050660000000 1.0
C      1  0.4953170000000  0.4425560000000  0.4407160000000 1.0
C      1  0.4540090000000  0.4385130000000  0.4940420000000 1.0
C      1  0.4937880000000  0.5290560000000  0.5209010000000 1.0
C      1  0.5315660000000  0.5260310000000  0.4919950000000 1.0
C      1  0.4491950000000  0.5218430000000  0.5466800000000 1.0
C      1  0.4398120000000  0.4705450000000  0.5377670000000 1.0
C      1  0.5150230000000  0.4210360000000  0.5097650000000 1.0
C      1  0.4767150000000  0.4288420000000  0.4764330000000 1.0
C      1  0.4868060000000  0.5208890000000  0.4808250000000 1.0
C      1  0.5222180000000  0.5299110000000  0.5177700000000 1.0
C      1  0.5331200000000  0.5762610000000  0.5264010000000 1.0
C      1  0.5738750000000  0.4970180000000  0.4736710000000 1.0
C      1  0.4976450000000  0.4433330000000  0.5149830000000 1.0
C      1  0.5087360000000  0.5209580000000  0.4229480000000 1.0
C      1  0.4507150000000  0.4999880000000  0.4487620000000 1.0
C      1  0.5188160000000  0.4749290000000  0.4306320000000 1.0
C      1  0.5372440000000  0.5645890000000  0.4783600000000 1.0
C      1  0.4972640000000  0.5574240000000  0.5560890000000 1.0
C      1  0.4896790000000  0.5708610000000  0.5002310000000 1.0
C      1  0.5658550000000  0.5397960000000  0.5099690000000 1.0
C      1  0.5065890000000  0.4802380000000  0.5450210000000 1.0
C      1  0.5555860000000  0.5408050000000  0.4820520000000 1.0
C      1  0.4716900000000  0.5124080000000  0.5629290000000 1.0
C      1  0.5406060000000  0.4552470000000  0.4875440000000 1.0
C      1  0.5612940000000  0.4904730000000  0.5274370000000 1.0
C      1  0.5171030000000  0.4314010000000  0.5536120000000 1.0
C      1  0.5194570000000  0.5218200000000  0.5716100000000 1.0
C      1  0.5768120000000  0.4879110000000  0.5023690000000 1.0
C      1  0.4805690000000  0.4845380000000  0.5584480000000 1.0
C      1  0.4776430000000  0.4748120000000  0.4742250000000 1.0
C      1  0.5422980000000  0.4887060000000  0.4426770000000 1.0
C      1  0.4946940000000  0.5633660000000  0.4624270000000 1.0
C      1  0.4532000000000  0.4682850000000  0.4566320000000 1.0
C      1  0.4448680000000  0.5513990000000  0.5053180000000 1.0
C      1  0.4328190000000  0.5284000000000  0.4914240000000 1.0
C      1  0.5089900000000  0.4895300000000  0.5125840000000 1.0
C      1  0.5215140000000  0.5559820000000  0.4556690000000 1.0
C      1  0.4647670000000  0.4840820000000  0.4984790000000 1.0
C      1  0.5568850000000  0.5659440000000  0.5149740000000 1.0
C      1  0.5494550000000  0.4677270000000  0.5350180000000 1.0
C      1  0.4814970000000  0.5567010000000  0.5302060000000 1.0
C      1  0.5062470000000  0.4210800000000  0.4817350000000 1.0
C      1  0.4359490000000  0.4815590000000  0.4973500000000 1.0
C      1  0.4920240000000  0.5325470000000  0.5700460000000 1.0
C      1  0.4557710000000  0.5510330000000  0.4631910000000 1.0
C      1  0.4814650000000  0.5299260000000  0.4270570000000 1.0
C      1  0.5575910000000  0.5104210000000  0.4537140000000 1.0
C      1  0.4699660000000  0.5034050000000  0.4273730000000 1.0
C      1  0.5247250000000  0.4925120000000  0.5665300000000 1.0
C      1  0.4481370000000  0.4449240000000  0.5224520000000 1.0
C      1  0.5109800000000  0.4607220000000  0.4556380000000 1.0
C      1  0.5526670000000  0.4966520000000  0.5648270000000 1.0
C      1  0.5166390000000  0.4629140000000  0.5038950000000 1.0
C      1  0.5185810000000  0.5749060000000  0.4997780000000 1.0
C      1  0.4338360000000  0.4997660000000  0.5345220000000 1.0
C      1  0.5661710000000  0.4692780000000  0.4834870000000 1.0
C      1  0.5341600000000  0.4303650000000  0.5303250000000 1.0
C      1  0.5204650000000  0.5006110000000  0.4625960000000 1.0
END
