TITL C-2441160-1326-1490 0.0476332121708642 125000 -12719.162937168 0 0 100 (C1) n - 1
REM
REM in /home/bkarasulu/work/CARBON/AIRSS/Generating-Clusters/ReaxFF-fromJPCA2015/Units_Real/with-SteepDescent/Higher-Symm
REM
REM
REM
REM
REM
REM ./C.cell (1df0a924f5614ab8850e4351716899ee)
REM
REM compiler GCC version 9.2.1 20190827 (Red Hat 9.2.1-1)
REM options -cpp -mtune=generic -march=x86-64 -g -O0 -fpre-include=/usr/include/finclude/math-vector-fortran.h
REM seed 1691257064 1265128484 1358506014 -1126098912 535338713 189848779 -1626214597 1679727380 -1740086920 1750515469 -1511009881 -159344921 1115238517 512577637 -1053986126 376902584 -851594719 1085124080 1526853894 -714685189 1518262892 -417492546 -413599831 -1917463299 -886939750 -719642013 151427455 -1990011003 -1308223929 312147293 1167282551 2087699379 -1001130340
REM
CELL 1.54180   50.00000   50.00000   50.00000   90.00000   90.00000   90.00000
LATT -1
SFAC C  
C      1  0.5186400000000  0.4778030000000  0.5220110000000 1.0
C      1  0.5204990000000  0.4704250000000  0.4948070000000 1.0
C      1  0.5149530000000  0.4828520000000  0.4710020000000 1.0
C      1  0.5185550000000  0.5117420000000  0.4687920000000 1.0
C      1  0.5258880000000  0.5275410000000  0.4911190000000 1.0
C      1  0.5187350000000  0.5264230000000  0.5174650000000 1.0
C      1  0.5235340000000  0.5024930000000  0.5298550000000 1.0
C      1  0.5235360000000  0.4550800000000  0.5731130000000 1.0
C      1  0.5214990000000  0.4170180000000  0.5093310000000 1.0
C      1  0.5217130000000  0.4356000000000  0.4413330000000 1.0
C      1  0.5232950000000  0.5074300000000  0.4129330000000 1.0
C      1  0.5219080000000  0.5718450000000  0.4526580000000 1.0
C      1  0.5225520000000  0.5812190000000  0.5274450000000 1.0
C      1  0.5224600000000  0.5293910000000  0.5793570000000 1.0
C      1  0.4295390000000  0.5102210000000  0.4531940000000 1.0
C      1  0.4255990000000  0.5464570000000  0.4778700000000 1.0
C      1  0.4377830000000  0.5381950000000  0.5147550000000 1.0
C      1  0.4263030000000  0.5136580000000  0.5491360000000 1.0
C      1  0.4253190000000  0.4663640000000  0.5403010000000 1.0
C      1  0.4378670000000  0.4591390000000  0.5011950000000 1.0
C      1  0.4254170000000  0.4652740000000  0.4604830000000 1.0
C      1  0.4847540000000  0.5264260000000  0.5157360000000 1.0
C      1  0.4817740000000  0.5069900000000  0.5354680000000 1.0
C      1  0.4844940000000  0.4799070000000  0.5260240000000 1.0
C      1  0.4888290000000  0.4630370000000  0.5009920000000 1.0
C      1  0.4777010000000  0.4757260000000  0.4758340000000 1.0
C      1  0.4905790000000  0.5195290000000  0.4620660000000 1.0
C      1  0.4799420000000  0.5284940000000  0.4861440000000 1.0
C      1  0.5531850000000  0.4996620000000  0.4152250000000 1.0
C      1  0.5518460000000  0.5670220000000  0.4477110000000 1.0
C      1  0.5525260000000  0.5826130000000  0.5192810000000 1.0
C      1  0.5526010000000  0.5364750000000  0.5757340000000 1.0
C      1  0.5523030000000  0.4640760000000  0.5759910000000 1.0
C      1  0.5505820000000  0.4181410000000  0.5174020000000 1.0
C      1  0.5521170000000  0.4338730000000  0.4470900000000 1.0
C      1  0.4164850000000  0.4531660000000  0.4850850000000 1.0
C      1  0.4196020000000  0.4888300000000  0.4488700000000 1.0
C      1  0.4159350000000  0.5251030000000  0.4665040000000 1.0
C      1  0.4133260000000  0.5420670000000  0.5026140000000 1.0
C      1  0.4174600000000  0.5366190000000  0.5318400000000 1.0
C      1  0.4210320000000  0.4907330000000  0.5462600000000 1.0
C      1  0.4158100000000  0.4535720000000  0.5155950000000 1.0
C      1  0.4895960000000  0.4365390000000  0.4667100000000 1.0
C      1  0.4885080000000  0.4810100000000  0.4316020000000 1.0
C      1  0.4885210000000  0.5434790000000  0.4453250000000 1.0
C      1  0.4897910000000  0.5689380000000  0.4965700000000 1.0
C      1  0.4894380000000  0.5457120000000  0.5495000000000 1.0
C      1  0.4897080000000  0.4862040000000  0.5684500000000 1.0
C      1  0.4889000000000  0.4379210000000  0.5345310000000 1.0
C      1  0.5670000000000  0.5226020000000  0.4553510000000 1.0
C      1  0.5698300000000  0.5482940000000  0.4889350000000 1.0
C      1  0.5675470000000  0.5384620000000  0.5302520000000 1.0
C      1  0.5688910000000  0.4998110000000  0.5481250000000 1.0
C      1  0.5661620000000  0.4612530000000  0.5307940000000 1.0
C      1  0.5680530000000  0.4523450000000  0.4883650000000 1.0
C      1  0.5654370000000  0.4785430000000  0.4555270000000 1.0
C      1  0.4504370000000  0.4609940000000  0.4509810000000 1.0
C      1  0.4511450000000  0.5137500000000  0.4374540000000 1.0
C      1  0.4510820000000  0.5565280000000  0.4706370000000 1.0
C      1  0.4522850000000  0.5576910000000  0.5249390000000 1.0
C      1  0.4511310000000  0.5150300000000  0.5600780000000 1.0
C      1  0.4509090000000  0.4620210000000  0.5499340000000 1.0
C      1  0.4510670000000  0.4372630000000  0.5013580000000 1.0
C      1  0.5732850000000  0.5275610000000  0.5575790000000 1.0
C      1  0.5732290000000  0.4719000000000  0.5573710000000 1.0
C      1  0.5719570000000  0.4374900000000  0.5135350000000 1.0
C      1  0.5727960000000  0.4501910000000  0.4590540000000 1.0
C      1  0.5727240000000  0.5002690000000  0.4366400000000 1.0
C      1  0.5730740000000  0.5513270000000  0.4597060000000 1.0
C      1  0.5733760000000  0.5630630000000  0.5145300000000 1.0
C      1  0.5325260000000  0.5765760000000  0.4999290000000 1.0
C      1  0.5326030000000  0.5490030000000  0.5594880000000 1.0
C      1  0.5309890000000  0.4838820000000  0.5758110000000 1.0
C      1  0.5300080000000  0.4305870000000  0.5343720000000 1.0
C      1  0.5331270000000  0.4298750000000  0.4682100000000 1.0
C      1  0.5327410000000  0.4813930000000  0.4235670000000 1.0
C      1  0.5326560000000  0.5482270000000  0.4376360000000 1.0
C      1  0.4622430000000  0.5422620000000  0.5490200000000 1.0
C      1  0.4618850000000  0.4871190000000  0.5640500000000 1.0
C      1  0.4619100000000  0.4420270000000  0.5308810000000 1.0
C      1  0.4620880000000  0.4392750000000  0.4724450000000 1.0
C      1  0.4619910000000  0.4852190000000  0.4366350000000 1.0
C      1  0.4599290000000  0.5416000000000  0.4469510000000 1.0
C      1  0.4623140000000  0.5658250000000  0.4967660000000 1.0
C      1  0.5360740000000  0.4762760000000  0.4522140000000 1.0
C      1  0.5383370000000  0.5227580000000  0.4497690000000 1.0
C      1  0.5401350000000  0.5512320000000  0.4871270000000 1.0
C      1  0.5383330000000  0.5419740000000  0.5320980000000 1.0
C      1  0.5393100000000  0.5005900000000  0.5527590000000 1.0
C      1  0.5370680000000  0.4589350000000  0.5332430000000 1.0
C      1  0.5388340000000  0.4495860000000  0.4885550000000 1.0
C      1  0.4985700000000  0.5080460000000  0.4274890000000 1.0
C      1  0.4986280000000  0.5642270000000  0.4673110000000 1.0
C      1  0.4991200000000  0.5649160000000  0.5264300000000 1.0
C      1  0.4987530000000  0.5204770000000  0.5658750000000 1.0
C      1  0.4991800000000  0.4596190000000  0.5584620000000 1.0
C      1  0.4966010000000  0.4319650000000  0.5060760000000 1.0
C      1  0.4985120000000  0.4523240000000  0.4448750000000 1.0
C      1  0.4820560000000  0.5072730000000  0.4978140000000 1.0
C      1  0.4562500000000  0.4912710000000  0.4867630000000 1.0
END
