TITL C-2441165-58-6 2.58277272399515e-08 125000 -753.412402089596 0 0 6 (D6h) n - 1
REM
REM in /home/bkarasulu/work/CARBON/AIRSS/Generating-Clusters/ReaxFF-fromJPCA2015/Units_Real/with-SteepDescent/Higher-Symm
REM
REM
REM
REM
REM
REM ./C.cell (1df0a924f5614ab8850e4351716899ee)
REM
REM compiler GCC version 9.2.1 20190827 (Red Hat 9.2.1-1)
REM options -cpp -mtune=generic -march=x86-64 -g -O0 -fpre-include=/usr/include/finclude/math-vector-fortran.h
REM seed 1218827177 1608429659 -2062661570 -1210163532 -459288861 -1716966014 1928914001 1017024329 -1671850874 -504653327 1205984344 -208660015 400295478 -1740670842 -1238407497 -221899838 -1734829254 1695019803 -255292956 -1620075865 524875369 802635497 439681496 1323461983 1686692907 -767846459 -1885148976 -1579279330 -1689999747 -334665981 88484093 -1848911433 -1999232397
REM
CELL 1.54180   50.00000   50.00000   50.00000   90.00000   90.00000   90.00000
LATT -1
SFAC C  
C      1  0.4793880000000  0.5000000000000  0.5217040000000 1.0
C      1  0.4708980000000  0.5000000000000  0.4930010000000 1.0
C      1  0.4915100000000  0.5000000000000  0.4712980000000 1.0
C      1  0.5206120000000  0.5000000000000  0.4782960000000 1.0
C      1  0.5291020000000  0.5000000000000  0.5069990000000 1.0
C      1  0.5084900000000  0.5000000000000  0.5287020000000 1.0
END
