TITL C-2441160-1326-1248 0.0610048825857469 125000 -14990.2552006107 0 0 114 (C1) n - 1
REM
REM in /home/bkarasulu/work/CARBON/AIRSS/Generating-Clusters/ReaxFF-fromJPCA2015/Units_Real/with-SteepDescent/Higher-Symm
REM
REM
REM
REM
REM
REM ./C.cell (1df0a924f5614ab8850e4351716899ee)
REM
REM compiler GCC version 9.2.1 20190827 (Red Hat 9.2.1-1)
REM options -cpp -mtune=generic -march=x86-64 -g -O0 -fpre-include=/usr/include/finclude/math-vector-fortran.h
REM seed 1015507209 148705117 993268784 1723887151 304199041 1010225253 1699194907 21939030 -768348497 -245202034 1078561376 1758651963 1324305963 2144755762 -281990917 -1915700993 -1813925174 513355195 -1985236756 -117339977 -1811781058 -2134591649 -1138290903 -1338482129 -973926114 -432457520 -1206886198 812293900 -1645120833 165664548 -412681532 580632652 466023883
REM
CELL 1.54180   50.00000   50.00000   50.00000   90.00000   90.00000   90.00000
LATT -1
SFAC C  
C      1  0.4432710000000  0.5641320000000  0.5064820000000 1.0
C      1  0.4936620000000  0.4346630000000  0.4432460000000 1.0
C      1  0.5580430000000  0.5660860000000  0.4938820000000 1.0
C      1  0.5062170000000  0.4347160000000  0.5576660000000 1.0
C      1  0.4664440000000  0.5237210000000  0.5309130000000 1.0
C      1  0.4676240000000  0.4727040000000  0.4642200000000 1.0
C      1  0.5369590000000  0.5279150000000  0.4695300000000 1.0
C      1  0.5301360000000  0.4731800000000  0.5375540000000 1.0
C      1  0.5234290000000  0.5490430000000  0.4839790000000 1.0
C      1  0.5151180000000  0.4535410000000  0.5218870000000 1.0
C      1  0.4793320000000  0.5455880000000  0.5162610000000 1.0
C      1  0.4855270000000  0.4529100000000  0.4783330000000 1.0
C      1  0.5372120000000  0.5709950000000  0.4721620000000 1.0
C      1  0.5266850000000  0.4313240000000  0.5362020000000 1.0
C      1  0.4594040000000  0.5638640000000  0.5321260000000 1.0
C      1  0.4715010000000  0.4307110000000  0.4651780000000 1.0
C      1  0.4903740000000  0.4885440000000  0.4537750000000 1.0
C      1  0.5443920000000  0.5108860000000  0.4936420000000 1.0
C      1  0.5053320000000  0.4893360000000  0.5461080000000 1.0
C      1  0.4630380000000  0.5058080000000  0.5061040000000 1.0
C      1  0.4837350000000  0.4756400000000  0.5333700000000 1.0
C      1  0.4678360000000  0.5228200000000  0.4833020000000 1.0
C      1  0.5166630000000  0.4833290000000  0.4695780000000 1.0
C      1  0.5305750000000  0.5237470000000  0.5151080000000 1.0
C      1  0.4744090000000  0.4974290000000  0.5874890000000 1.0
C      1  0.4131380000000  0.5037090000000  0.4749150000000 1.0
C      1  0.5246460000000  0.4960630000000  0.4137510000000 1.0
C      1  0.5864540000000  0.5034850000000  0.5251410000000 1.0
C      1  0.5751060000000  0.5469840000000  0.5071930000000 1.0
C      1  0.4919860000000  0.4529110000000  0.5754960000000 1.0
C      1  0.4255010000000  0.5450470000000  0.4941280000000 1.0
C      1  0.5055350000000  0.4547320000000  0.4258710000000 1.0
C      1  0.5562000000000  0.4696600000000  0.4855170000000 1.0
C      1  0.5151340000000  0.5300060000000  0.5575480000000 1.0
C      1  0.4419850000000  0.4689770000000  0.5145130000000 1.0
C      1  0.4843670000000  0.5301400000000  0.4423340000000 1.0
C      1  0.4964230000000  0.5212100000000  0.4822460000000 1.0
C      1  0.5115090000000  0.4783220000000  0.4988690000000 1.0
C      1  0.5025230000000  0.5254770000000  0.5102720000000 1.0
C      1  0.4823520000000  0.4823630000000  0.5054410000000 1.0
C      1  0.4626920000000  0.4784670000000  0.4227110000000 1.0
C      1  0.5784360000000  0.5218850000000  0.4633410000000 1.0
C      1  0.5361430000000  0.4793040000000  0.5784780000000 1.0
C      1  0.4210790000000  0.5219400000000  0.5354850000000 1.0
C      1  0.4639390000000  0.5244790000000  0.5864120000000 1.0
C      1  0.4125940000000  0.4766120000000  0.4641200000000 1.0
C      1  0.5346820000000  0.5235370000000  0.4153060000000 1.0
C      1  0.5853810000000  0.4763120000000  0.5359390000000 1.0
C      1  0.5500190000000  0.4774860000000  0.5130260000000 1.0
C      1  0.4876320000000  0.5224570000000  0.5520890000000 1.0
C      1  0.4466000000000  0.4745080000000  0.4868730000000 1.0
C      1  0.5116940000000  0.5224570000000  0.4495950000000 1.0
C      1  0.5199640000000  0.4199620000000  0.4827080000000 1.0
C      1  0.5168590000000  0.5798950000000  0.5201560000000 1.0
C      1  0.4791470000000  0.4204080000000  0.5174540000000 1.0
C      1  0.4823550000000  0.5798170000000  0.4803100000000 1.0
C      1  0.5194990000000  0.5679030000000  0.4480410000000 1.0
C      1  0.5519700000000  0.4321380000000  0.5205780000000 1.0
C      1  0.4808980000000  0.5676690000000  0.5534630000000 1.0
C      1  0.4462730000000  0.4314160000000  0.4805960000000 1.0
C      1  0.5305150000000  0.4687890000000  0.4263700000000 1.0
C      1  0.5740210000000  0.5313240000000  0.5315440000000 1.0
C      1  0.4678500000000  0.4688130000000  0.5746140000000 1.0
C      1  0.4255430000000  0.5304240000000  0.4687090000000 1.0
C      1  0.5756100000000  0.5197130000000  0.4904080000000 1.0
C      1  0.5090620000000  0.4797120000000  0.5770920000000 1.0
C      1  0.4198150000000  0.5230940000000  0.5108630000000 1.0
C      1  0.4897700000000  0.4799180000000  0.4256610000000 1.0
C      1  0.4653970000000  0.5533830000000  0.4903680000000 1.0
C      1  0.5104350000000  0.4435920000000  0.4655310000000 1.0
C      1  0.5351130000000  0.5546300000000  0.5103140000000 1.0
C      1  0.4895140000000  0.4463430000000  0.5351560000000 1.0
C      1  0.5692410000000  0.4561670000000  0.5213500000000 1.0
C      1  0.4797170000000  0.5444510000000  0.5711130000000 1.0
C      1  0.4272060000000  0.4543600000000  0.4788720000000 1.0
C      1  0.5203370000000  0.5442500000000  0.4308580000000 1.0
C      1  0.4400790000000  0.5393190000000  0.5468560000000 1.0
C      1  0.4499300000000  0.4599300000000  0.4402680000000 1.0
C      1  0.5594200000000  0.5399490000000  0.4516010000000 1.0
C      1  0.5477770000000  0.4604930000000  0.5600530000000 1.0
C      1  0.5470750000000  0.4268620000000  0.4917240000000 1.0
C      1  0.5090870000000  0.5735910000000  0.5474160000000 1.0
C      1  0.4517260000000  0.4262680000000  0.5095290000000 1.0
C      1  0.4905750000000  0.5734170000000  0.4533680000000 1.0
C      1  0.4260120000000  0.4767230000000  0.4386340000000 1.0
C      1  0.5607270000000  0.5233830000000  0.4272550000000 1.0
C      1  0.5725280000000  0.4765480000000  0.5617900000000 1.0
C      1  0.4373590000000  0.5234740000000  0.5731210000000 1.0
C      1  0.4238430000000  0.4756460000000  0.5500150000000 1.0
C      1  0.4494520000000  0.5261200000000  0.4230410000000 1.0
C      1  0.5755610000000  0.4745220000000  0.4503410000000 1.0
C      1  0.5499190000000  0.5262110000000  0.5775510000000 1.0
C      1  0.5917540000000  0.4970240000000  0.4978730000000 1.0
C      1  0.5018680000000  0.5026800000000  0.5930130000000 1.0
C      1  0.4075740000000  0.4999210000000  0.5037480000000 1.0
C      1  0.4971170000000  0.5018320000000  0.4086740000000 1.0
C      1  0.5542550000000  0.4454270000000  0.4701090000000 1.0
C      1  0.5304810000000  0.5545690000000  0.5549540000000 1.0
C      1  0.4443820000000  0.4450450000000  0.5307110000000 1.0
C      1  0.4688770000000  0.5548760000000  0.4452160000000 1.0
C      1  0.5525920000000  0.4579520000000  0.4429260000000 1.0
C      1  0.5573180000000  0.5421810000000  0.5539130000000 1.0
C      1  0.4456370000000  0.4565190000000  0.5580360000000 1.0
C      1  0.4417490000000  0.5419130000000  0.4466750000000 1.0
C      1  0.5211050000000  0.5227500000000  0.5841420000000 1.0
C      1  0.4168460000000  0.4786600000000  0.5216030000000 1.0
C      1  0.4783640000000  0.5227350000000  0.4160980000000 1.0
C      1  0.5827990000000  0.4766150000000  0.4791280000000 1.0
C      1  0.5551130000000  0.4992000000000  0.5703010000000 1.0
C      1  0.4378500000000  0.4972090000000  0.5616450000000 1.0
C      1  0.4438970000000  0.4989460000000  0.4299250000000 1.0
C      1  0.5733390000000  0.5021690000000  0.4436290000000 1.0
C      1  0.4992060000000  0.4185160000000  0.5004670000000 1.0
C      1  0.4994370000000  0.5814710000000  0.5003540000000 1.0
END
