TITL C-2441159-1093-803 0.133476178746804 125000 -24515.9654192578 0 0 186 (C1) n - 1
REM
REM in /home/bkarasulu/work/CARBON/AIRSS/Generating-Clusters/ReaxFF-fromJPCA2015/Units_Real/with-SteepDescent/Higher-Symm
REM
REM
REM
REM
REM
REM ./C.cell (1df0a924f5614ab8850e4351716899ee)
REM
REM compiler GCC version 9.2.1 20190827 (Red Hat 9.2.1-1)
REM options -cpp -mtune=generic -march=x86-64 -g -O0 -fpre-include=/usr/include/finclude/math-vector-fortran.h
REM seed -1354292988 531427912 -983761158 977493442 -548924128 279973742 2014089346 1001412354 -122783037 -1962558828 961893088 2039396558 -1800426258 -781443227 -847705611 631408634 1989058192 1859393880 1113435336 763629880 1623574923 1404115585 1213787552 300457073 -461598189 1873148496 -1198277921 -245407701 -1694417368 -2102320726 993800 -883722004 654915462
REM
CELL 1.54180   50.00000   50.00000   50.00000   90.00000   90.00000   90.00000
LATT -1
SFAC C  
C      1  0.4463390000000  0.4484880000000  0.4323020000000 1.0
C      1  0.5529760000000  0.4950920000000  0.5969560000000 1.0
C      1  0.5128430000000  0.4950090000000  0.4522880000000 1.0
C      1  0.5218740000000  0.5165490000000  0.4737240000000 1.0
C      1  0.5637130000000  0.5588850000000  0.5670670000000 1.0
C      1  0.5009110000000  0.5889350000000  0.5619330000000 1.0
C      1  0.4702680000000  0.4949140000000  0.5399070000000 1.0
C      1  0.5028590000000  0.6035460000000  0.5332940000000 1.0
C      1  0.5679540000000  0.4187050000000  0.5275270000000 1.0
C      1  0.4774380000000  0.6130040000000  0.5212930000000 1.0
C      1  0.4538790000000  0.5308580000000  0.4781910000000 1.0
C      1  0.4998930000000  0.5745780000000  0.5241480000000 1.0
C      1  0.5281140000000  0.4570700000000  0.4004750000000 1.0
C      1  0.5788760000000  0.5359480000000  0.5624310000000 1.0
C      1  0.5031730000000  0.4154800000000  0.5707380000000 1.0
C      1  0.4411340000000  0.4394190000000  0.4902410000000 1.0
C      1  0.3991780000000  0.5223260000000  0.5521300000000 1.0
C      1  0.4176980000000  0.5216920000000  0.5311010000000 1.0
C      1  0.5168820000000  0.4596190000000  0.5977260000000 1.0
C      1  0.4399500000000  0.5279790000000  0.4171260000000 1.0
C      1  0.4575660000000  0.4547460000000  0.4061850000000 1.0
C      1  0.4876380000000  0.4546090000000  0.4061790000000 1.0
C      1  0.4852970000000  0.3952550000000  0.5293050000000 1.0
C      1  0.4375730000000  0.4464640000000  0.5577480000000 1.0
C      1  0.5159990000000  0.4525830000000  0.4833140000000 1.0
C      1  0.4979760000000  0.5077720000000  0.4904530000000 1.0
C      1  0.5416640000000  0.4514780000000  0.4247080000000 1.0
C      1  0.4174030000000  0.4937430000000  0.5173150000000 1.0
C      1  0.3928980000000  0.5176900000000  0.4811740000000 1.0
C      1  0.5463160000000  0.4091750000000  0.4916280000000 1.0
C      1  0.4876310000000  0.4491790000000  0.4869420000000 1.0
C      1  0.4643030000000  0.4121590000000  0.5436330000000 1.0
C      1  0.4352130000000  0.5618830000000  0.5525830000000 1.0
C      1  0.4478490000000  0.4813800000000  0.4002660000000 1.0
C      1  0.5826200000000  0.4798940000000  0.5279650000000 1.0
C      1  0.5443010000000  0.5065130000000  0.5294130000000 1.0
C      1  0.4148630000000  0.4420250000000  0.5031340000000 1.0
C      1  0.5648900000000  0.5769670000000  0.5414700000000 1.0
C      1  0.5612010000000  0.5107660000000  0.4060120000000 1.0
C      1  0.4677330000000  0.4919360000000  0.4385260000000 1.0
C      1  0.5263810000000  0.6101070000000  0.5118030000000 1.0
C      1  0.4028880000000  0.4922590000000  0.4388370000000 1.0
C      1  0.4449080000000  0.4889950000000  0.5092130000000 1.0
C      1  0.6007880000000  0.4731550000000  0.4533520000000 1.0
C      1  0.5386140000000  0.4449740000000  0.5568890000000 1.0
C      1  0.4422860000000  0.5031140000000  0.4357440000000 1.0
C      1  0.5084230000000  0.5131620000000  0.4096010000000 1.0
C      1  0.5676990000000  0.5037830000000  0.4640830000000 1.0
C      1  0.5470500000000  0.5046480000000  0.5574200000000 1.0
C      1  0.4548990000000  0.4848920000000  0.5884860000000 1.0
C      1  0.5963680000000  0.4979130000000  0.4379540000000 1.0
C      1  0.4924780000000  0.5711110000000  0.4972370000000 1.0
C      1  0.4708790000000  0.4642320000000  0.4461620000000 1.0
C      1  0.5087250000000  0.4020820000000  0.5451730000000 1.0
C      1  0.6016810000000  0.4464410000000  0.5132090000000 1.0
C      1  0.5209680000000  0.5306640000000  0.6127360000000 1.0
C      1  0.4190420000000  0.5166190000000  0.5735290000000 1.0
C      1  0.5189560000000  0.5631350000000  0.4389860000000 1.0
C      1  0.5746030000000  0.4896820000000  0.4218090000000 1.0
C      1  0.4271510000000  0.5675850000000  0.5240200000000 1.0
C      1  0.4019750000000  0.5177170000000  0.4538050000000 1.0
C      1  0.5852900000000  0.4830760000000  0.5565050000000 1.0
C      1  0.4742720000000  0.4700550000000  0.5718710000000 1.0
C      1  0.4416950000000  0.5349280000000  0.5436130000000 1.0
C      1  0.3962860000000  0.4943960000000  0.4980330000000 1.0
C      1  0.5383020000000  0.5499810000000  0.5092200000000 1.0
C      1  0.4036240000000  0.4742750000000  0.5340880000000 1.0
C      1  0.5012480000000  0.5206900000000  0.5301030000000 1.0
C      1  0.5001720000000  0.4827530000000  0.5686520000000 1.0
C      1  0.4744820000000  0.4185590000000  0.5710110000000 1.0
C      1  0.4733220000000  0.4681760000000  0.4738940000000 1.0
C      1  0.5280630000000  0.5035830000000  0.6095870000000 1.0
C      1  0.6061270000000  0.5208620000000  0.4987550000000 1.0
C      1  0.4360940000000  0.4172850000000  0.4716710000000 1.0
C      1  0.5828030000000  0.5670640000000  0.5211380000000 1.0
C      1  0.4697760000000  0.4083100000000  0.4495310000000 1.0
C      1  0.5631580000000  0.4630260000000  0.5136070000000 1.0
C      1  0.6003960000000  0.5383840000000  0.4767640000000 1.0
C      1  0.4992380000000  0.4472140000000  0.5313830000000 1.0
C      1  0.3913720000000  0.5357500000000  0.5284770000000 1.0
C      1  0.4992510000000  0.4204160000000  0.4370010000000 1.0
C      1  0.5012240000000  0.5633010000000  0.5494390000000 1.0
C      1  0.3862200000000  0.4704490000000  0.5102950000000 1.0
C      1  0.5237570000000  0.4806290000000  0.3850720000000 1.0
C      1  0.5498460000000  0.5110770000000  0.4835470000000 1.0
C      1  0.4707870000000  0.4433780000000  0.5280130000000 1.0
C      1  0.4643250000000  0.5201940000000  0.5531510000000 1.0
C      1  0.5685250000000  0.4516110000000  0.4379380000000 1.0
C      1  0.4444450000000  0.4211200000000  0.4424280000000 1.0
C      1  0.5847280000000  0.4548930000000  0.5604530000000 1.0
C      1  0.4109610000000  0.5484830000000  0.4522730000000 1.0
C      1  0.5088060000000  0.6100790000000  0.4892510000000 1.0
C      1  0.5489440000000  0.5576260000000  0.4305040000000 1.0
C      1  0.4721910000000  0.4991010000000  0.3959140000000 1.0
C      1  0.5397180000000  0.4326160000000  0.4757850000000 1.0
C      1  0.4774170000000  0.5148350000000  0.4731890000000 1.0
C      1  0.4133760000000  0.4188160000000  0.5237000000000 1.0
C      1  0.5158990000000  0.4241050000000  0.5247320000000 1.0
C      1  0.4677580000000  0.5513730000000  0.4597040000000 1.0
C      1  0.5462470000000  0.5353680000000  0.4135490000000 1.0
C      1  0.4290270000000  0.5467240000000  0.4342040000000 1.0
C      1  0.4867700000000  0.5104460000000  0.4462240000000 1.0
C      1  0.5884880000000  0.5262780000000  0.4521500000000 1.0
C      1  0.5601170000000  0.5345150000000  0.4987900000000 1.0
C      1  0.5467880000000  0.4885460000000  0.5052930000000 1.0
C      1  0.5243900000000  0.4982480000000  0.4263440000000 1.0
C      1  0.5019100000000  0.5898690000000  0.4488870000000 1.0
C      1  0.5460650000000  0.5848260000000  0.4778310000000 1.0
C      1  0.5152010000000  0.5552290000000  0.6019890000000 1.0
C      1  0.4339210000000  0.4202550000000  0.5440480000000 1.0
C      1  0.4259840000000  0.5681590000000  0.4691660000000 1.0
C      1  0.5405470000000  0.5042790000000  0.3876710000000 1.0
C      1  0.4028770000000  0.4682110000000  0.4603390000000 1.0
C      1  0.4678200000000  0.4337290000000  0.4998360000000 1.0
C      1  0.5456820000000  0.4188130000000  0.4508230000000 1.0
C      1  0.4957330000000  0.4505260000000  0.4352040000000 1.0
C      1  0.4402790000000  0.5338150000000  0.5837650000000 1.0
C      1  0.4981400000000  0.4043750000000  0.5052050000000 1.0
C      1  0.5336830000000  0.5260770000000  0.5726080000000 1.0
C      1  0.5434380000000  0.4730360000000  0.4643240000000 1.0
C      1  0.5449730000000  0.4381940000000  0.5291560000000 1.0
C      1  0.5071660000000  0.5240280000000  0.5717620000000 1.0
C      1  0.4934830000000  0.4784810000000  0.3908330000000 1.0
C      1  0.5284410000000  0.5296530000000  0.5250990000000 1.0
C      1  0.4563910000000  0.4711050000000  0.5316550000000 1.0
C      1  0.4268040000000  0.4746940000000  0.4682690000000 1.0
C      1  0.5835430000000  0.5589860000000  0.4895210000000 1.0
C      1  0.5847310000000  0.4489400000000  0.4599130000000 1.0
C      1  0.5452380000000  0.4676680000000  0.5948950000000 1.0
C      1  0.5716880000000  0.5509990000000  0.4450640000000 1.0
C      1  0.4871600000000  0.5418420000000  0.5649010000000 1.0
C      1  0.5898760000000  0.5432840000000  0.5362680000000 1.0
C      1  0.4170950000000  0.4679540000000  0.5589700000000 1.0
C      1  0.4755700000000  0.5358870000000  0.5148180000000 1.0
C      1  0.5395490000000  0.5523450000000  0.5834920000000 1.0
C      1  0.5247740000000  0.4720430000000  0.4996050000000 1.0
C      1  0.4667770000000  0.5266360000000  0.4056950000000 1.0
C      1  0.6082740000000  0.4740930000000  0.5157560000000 1.0
C      1  0.4778110000000  0.5816820000000  0.5784490000000 1.0
C      1  0.4807600000000  0.5390700000000  0.4285750000000 1.0
C      1  0.5519500000000  0.4914900000000  0.4413940000000 1.0
C      1  0.4771890000000  0.6103840000000  0.4916980000000 1.0
C      1  0.4539770000000  0.5212810000000  0.5058150000000 1.0
C      1  0.5736210000000  0.4144110000000  0.4992900000000 1.0
C      1  0.4186720000000  0.5592140000000  0.4972420000000 1.0
C      1  0.4274550000000  0.4888780000000  0.5763030000000 1.0
C      1  0.5051970000000  0.3907820000000  0.4811650000000 1.0
C      1  0.5163130000000  0.4661770000000  0.4574600000000 1.0
C      1  0.6092950000000  0.4925670000000  0.4941390000000 1.0
C      1  0.5588240000000  0.4539300000000  0.5729380000000 1.0
C      1  0.5203720000000  0.5371330000000  0.4004270000000 1.0
C      1  0.4735470000000  0.5030810000000  0.6006700000000 1.0
C      1  0.4932660000000  0.5533250000000  0.4756700000000 1.0
C      1  0.5407590000000  0.5741620000000  0.5246980000000 1.0
C      1  0.5729380000000  0.5053570000000  0.5722350000000 1.0
C      1  0.4543210000000  0.5833530000000  0.5613940000000 1.0
C      1  0.5228980000000  0.5991960000000  0.4661090000000 1.0
C      1  0.4754250000000  0.5952400000000  0.4586110000000 1.0
C      1  0.5826920000000  0.5247840000000  0.5152900000000 1.0
C      1  0.5290120000000  0.4251710000000  0.4274780000000 1.0
C      1  0.5878550000000  0.4867300000000  0.4761050000000 1.0
C      1  0.4570350000000  0.6019670000000  0.5383060000000 1.0
C      1  0.5038280000000  0.5530160000000  0.4167210000000 1.0
C      1  0.5083560000000  0.4060690000000  0.4594130000000 1.0
C      1  0.4500360000000  0.4795000000000  0.4831460000000 1.0
C      1  0.5673900000000  0.5695600000000  0.4662110000000 1.0
C      1  0.5160570000000  0.4415050000000  0.5745720000000 1.0
C      1  0.4267130000000  0.4823240000000  0.4219770000000 1.0
C      1  0.4935470000000  0.4960130000000  0.5176790000000 1.0
C      1  0.4616510000000  0.4443300000000  0.5759720000000 1.0
C      1  0.5095660000000  0.4718260000000  0.5228550000000 1.0
C      1  0.4506730000000  0.5814900000000  0.5184430000000 1.0
C      1  0.5505780000000  0.5943900000000  0.5055960000000 1.0
C      1  0.3968940000000  0.5407150000000  0.5002490000000 1.0
C      1  0.4666550000000  0.5824730000000  0.4953820000000 1.0
C      1  0.3941550000000  0.4548230000000  0.4864620000000 1.0
C      1  0.4850690000000  0.5561950000000  0.5934710000000 1.0
C      1  0.5895240000000  0.4363520000000  0.5376830000000 1.0
C      1  0.5032250000000  0.4871760000000  0.5990190000000 1.0
C      1  0.4524860000000  0.5769460000000  0.4579200000000 1.0
C      1  0.5032610000000  0.5070800000000  0.5548510000000 1.0
C      1  0.5316830000000  0.3931050000000  0.4675850000000 1.0
C      1  0.5806970000000  0.4427230000000  0.4921540000000 1.0
C      1  0.5168710000000  0.5443560000000  0.4627800000000 1.0
C      1  0.4649860000000  0.5304160000000  0.5981440000000 1.0
C      1  0.4627280000000  0.4070440000000  0.4774510000000 1.0
END
