TITL C-2441168-9922-1153 0.0678280068402577 125000 -13193.9290897087 0 0 104 (C1) n - 1
REM
REM in /home/bkarasulu/work/CARBON/AIRSS/Generating-Clusters/ReaxFF-fromJPCA2015/Units_Real/with-SteepDescent/Higher-Symm
REM
REM
REM
REM
REM
REM ./C.cell (1df0a924f5614ab8850e4351716899ee)
REM
REM compiler GCC version 9.2.1 20190827 (Red Hat 9.2.1-1)
REM options -cpp -mtune=generic -march=x86-64 -g -O0 -fpre-include=/usr/include/finclude/math-vector-fortran.h
REM seed 1627167911 2032769002 1764530159 1162429896 -1700253695 -507701456 401819113 -529340702 -1044282582 994046193 -1278524425 1987521662 -1267975502 -1675993067 -1632733772 -1279828472 -78404196 -753714554 1646571718 1655840527 -920350337 -745868112 444752639 1704510045 -1058061591 2118616617 -1860007731 -1680235240 -1440911867 -1370138882 1992868550 -1078480882 1026176739
REM
CELL 1.54180   50.00000   50.00000   50.00000   90.00000   90.00000   90.00000
LATT -1
SFAC C  
C      1  0.5680580000000  0.4641630000000  0.4575610000000 1.0
C      1  0.4304910000000  0.4647640000000  0.4631280000000 1.0
C      1  0.5086970000000  0.4699160000000  0.5812240000000 1.0
C      1  0.5318060000000  0.5284600000000  0.5838150000000 1.0
C      1  0.5564930000000  0.5274340000000  0.4319110000000 1.0
C      1  0.4132830000000  0.5288320000000  0.4854430000000 1.0
C      1  0.4139240000000  0.4542250000000  0.4834680000000 1.0
C      1  0.5195190000000  0.4428160000000  0.5795040000000 1.0
C      1  0.5581190000000  0.4534110000000  0.4339570000000 1.0
C      1  0.5435720000000  0.5641010000000  0.5318790000000 1.0
C      1  0.5071110000000  0.5631630000000  0.4486720000000 1.0
C      1  0.4526470000000  0.5653990000000  0.5209270000000 1.0
C      1  0.4745060000000  0.5468310000000  0.4819430000000 1.0
C      1  0.4981910000000  0.5464670000000  0.5297510000000 1.0
C      1  0.5281060000000  0.5502010000000  0.4878660000000 1.0
C      1  0.5801730000000  0.4703880000000  0.4995000000000 1.0
C      1  0.4629120000000  0.4667480000000  0.4317190000000 1.0
C      1  0.4603900000000  0.4695080000000  0.5659030000000 1.0
C      1  0.5048960000000  0.5146960000000  0.5921900000000 1.0
C      1  0.5779080000000  0.5132150000000  0.4470260000000 1.0
C      1  0.4193280000000  0.5135770000000  0.4589910000000 1.0
C      1  0.5499270000000  0.5247350000000  0.5609630000000 1.0
C      1  0.5274870000000  0.5228580000000  0.4299320000000 1.0
C      1  0.4231750000000  0.5249720000000  0.5135740000000 1.0
C      1  0.5405940000000  0.4201370000000  0.4792830000000 1.0
C      1  0.4619070000000  0.4189110000000  0.4784570000000 1.0
C      1  0.5012120000000  0.4220570000000  0.5338710000000 1.0
C      1  0.5620290000000  0.4352640000000  0.4882240000000 1.0
C      1  0.4608240000000  0.4326650000000  0.4543120000000 1.0
C      1  0.4981560000000  0.4347490000000  0.5608820000000 1.0
C      1  0.5890610000000  0.4935280000000  0.4843670000000 1.0
C      1  0.4453410000000  0.4891220000000  0.4260580000000 1.0
C      1  0.4638310000000  0.4909820000000  0.5849010000000 1.0
C      1  0.5541100000000  0.5462890000000  0.4525260000000 1.0
C      1  0.4323350000000  0.5481350000000  0.4777620000000 1.0
C      1  0.5159210000000  0.5480710000000  0.5710430000000 1.0
C      1  0.5019900000000  0.4801580000000  0.4867370000000 1.0
C      1  0.4757930000000  0.4816650000000  0.4981820000000 1.0
C      1  0.5134630000000  0.4844390000000  0.5125090000000 1.0
C      1  0.5339510000000  0.4612560000000  0.4220440000000 1.0
C      1  0.4154030000000  0.4594700000000  0.5109720000000 1.0
C      1  0.5448930000000  0.4559330000000  0.5674970000000 1.0
C      1  0.4686140000000  0.5054310000000  0.4183330000000 1.0
C      1  0.4449240000000  0.5071270000000  0.5687870000000 1.0
C      1  0.5828800000000  0.5096660000000  0.5228910000000 1.0
C      1  0.5279610000000  0.5529950000000  0.4610770000000 1.0
C      1  0.4536450000000  0.5485060000000  0.4974540000000 1.0
C      1  0.5223250000000  0.5478760000000  0.5428620000000 1.0
C      1  0.5155350000000  0.4273820000000  0.4642400000000 1.0
C      1  0.4566400000000  0.4261590000000  0.5070410000000 1.0
C      1  0.5287950000000  0.4268560000000  0.5339650000000 1.0
C      1  0.4706090000000  0.4584870000000  0.4585000000000 1.0
C      1  0.4752690000000  0.4501800000000  0.5509210000000 1.0
C      1  0.5529340000000  0.4608840000000  0.4945040000000 1.0
C      1  0.4556350000000  0.4442030000000  0.5299310000000 1.0
C      1  0.5466840000000  0.4471430000000  0.5246480000000 1.0
C      1  0.4988650000000  0.4467320000000  0.4500950000000 1.0
C      1  0.4604850000000  0.5057460000000  0.4793870000000 1.0
C      1  0.5010400000000  0.5052330000000  0.5452610000000 1.0
C      1  0.5419800000000  0.5088040000000  0.4762540000000 1.0
C      1  0.5189110000000  0.4361760000000  0.4893500000000 1.0
C      1  0.4772010000000  0.4372530000000  0.4941830000000 1.0
C      1  0.4997690000000  0.4388620000000  0.5085230000000 1.0
C      1  0.4880860000000  0.4849940000000  0.4309410000000 1.0
C      1  0.4448480000000  0.4847910000000  0.5474570000000 1.0
C      1  0.5708780000000  0.4833380000000  0.5260910000000 1.0
C      1  0.4921420000000  0.4889010000000  0.5961120000000 1.0
C      1  0.5864240000000  0.4868080000000  0.4563240000000 1.0
C      1  0.4229060000000  0.4874670000000  0.4455480000000 1.0
C      1  0.4353260000000  0.4690130000000  0.4912710000000 1.0
C      1  0.5269960000000  0.4772830000000  0.5607570000000 1.0
C      1  0.5412020000000  0.4688660000000  0.4498900000000 1.0
C      1  0.4567340000000  0.5439310000000  0.4443420000000 1.0
C      1  0.4743990000000  0.5452190000000  0.5656280000000 1.0
C      1  0.5736170000000  0.5462110000000  0.4897340000000 1.0
C      1  0.5272040000000  0.5023770000000  0.4522440000000 1.0
C      1  0.4417320000000  0.5041530000000  0.5034880000000 1.0
C      1  0.5301170000000  0.5016980000000  0.5488290000000 1.0
C      1  0.5700890000000  0.5177630000000  0.4762910000000 1.0
C      1  0.4480950000000  0.5175440000000  0.4556090000000 1.0
C      1  0.4878540000000  0.5181110000000  0.5679730000000 1.0
C      1  0.4866970000000  0.5653700000000  0.5479260000000 1.0
C      1  0.5531920000000  0.5662150000000  0.4885610000000 1.0
C      1  0.4660000000000  0.5647030000000  0.4632110000000 1.0
C      1  0.5008100000000  0.4960360000000  0.4592850000000 1.0
C      1  0.4640210000000  0.4951300000000  0.5214440000000 1.0
C      1  0.5381220000000  0.4965630000000  0.5202410000000 1.0
C      1  0.4787650000000  0.5802170000000  0.5216310000000 1.0
C      1  0.5313710000000  0.5776910000000  0.5081470000000 1.0
C      1  0.4922960000000  0.5785940000000  0.4694840000000 1.0
C      1  0.5820480000000  0.5367700000000  0.5169190000000 1.0
C      1  0.4763650000000  0.5328620000000  0.4251730000000 1.0
C      1  0.4476960000000  0.5344990000000  0.5592940000000 1.0
C      1  0.5624290000000  0.4588920000000  0.5452520000000 1.0
C      1  0.5056400000000  0.4604190000000  0.4259390000000 1.0
C      1  0.4326910000000  0.4602400000000  0.5339270000000 1.0
C      1  0.4890320000000  0.5200520000000  0.5230050000000 1.0
C      1  0.5289080000000  0.5218560000000  0.4980000000000 1.0
C      1  0.4867670000000  0.5219090000000  0.4771830000000 1.0
C      1  0.5618070000000  0.5418650000000  0.5401160000000 1.0
C      1  0.5043140000000  0.5410830000000  0.4300440000000 1.0
C      1  0.4369050000000  0.5434720000000  0.5330550000000 1.0
C      1  0.5000880000000  0.5804920000000  0.4995970000000 1.0
C      1  0.5023860000000  0.5194280000000  0.4994590000000 1.0
END
