TITL C-2441160-1326-138 0.102060869652417 125000 -15153.6078541262 0 0 122 (C1) n - 1
REM
REM in /home/bkarasulu/work/CARBON/AIRSS/Generating-Clusters/ReaxFF-fromJPCA2015/Units_Real/with-SteepDescent/Higher-Symm
REM
REM
REM
REM
REM
REM ./C.cell (1df0a924f5614ab8850e4351716899ee)
REM
REM compiler GCC version 9.2.1 20190827 (Red Hat 9.2.1-1)
REM options -cpp -mtune=generic -march=x86-64 -g -O0 -fpre-include=/usr/include/finclude/math-vector-fortran.h
REM seed -1380087465 834387276 -1204355881 -1794655811 -905667611 -717389495 -427794356 -2007441117 -943826257 1053091582 188245757 -77258235 -923918892 1286069584 -1110880897 -1439148493 -814338427 593522697 326763777 -2023012280 1708745281 648172672 1092126431 1244165457 753979677 -2024440891 1136361325 1260946425 -139015797 -1323144979 -559154059 50346151 1828308263
REM
CELL 1.54180   50.00000   50.00000   50.00000   90.00000   90.00000   90.00000
LATT -1
SFAC C  
C      1  0.5209890000000  0.5635030000000  0.4878660000000 1.0
C      1  0.4394580000000  0.5208600000000  0.4876230000000 1.0
C      1  0.4786410000000  0.4378260000000  0.4871450000000 1.0
C      1  0.5662420000000  0.4781630000000  0.4869110000000 1.0
C      1  0.4777960000000  0.5613740000000  0.5112480000000 1.0
C      1  0.5604270000000  0.5209340000000  0.5096320000000 1.0
C      1  0.5219740000000  0.4395750000000  0.5089300000000 1.0
C      1  0.4372140000000  0.4783330000000  0.5116200000000 1.0
C      1  0.5239750000000  0.5686470000000  0.5311390000000 1.0
C      1  0.4324520000000  0.5247470000000  0.5299810000000 1.0
C      1  0.4764740000000  0.4332820000000  0.5297630000000 1.0
C      1  0.5696750000000  0.4784850000000  0.5296050000000 1.0
C      1  0.4758700000000  0.5669910000000  0.4687930000000 1.0
C      1  0.5713480000000  0.5246140000000  0.4658680000000 1.0
C      1  0.5248920000000  0.4288590000000  0.4668400000000 1.0
C      1  0.4316200000000  0.4763240000000  0.4696960000000 1.0
C      1  0.4998620000000  0.4659530000000  0.4110010000000 1.0
C      1  0.5422370000000  0.4914430000000  0.4152520000000 1.0
C      1  0.5080240000000  0.5393660000000  0.4154240000000 1.0
C      1  0.4618360000000  0.5025110000000  0.4107600000000 1.0
C      1  0.5003680000000  0.4662410000000  0.5869540000000 1.0
C      1  0.4601960000000  0.4941190000000  0.5845530000000 1.0
C      1  0.4918140000000  0.5401780000000  0.5831070000000 1.0
C      1  0.5375530000000  0.5115950000000  0.5877080000000 1.0
C      1  0.4211480000000  0.4536540000000  0.5047690000000 1.0
C      1  0.5465010000000  0.4224140000000  0.5038770000000 1.0
C      1  0.5768190000000  0.5450140000000  0.5041530000000 1.0
C      1  0.4536320000000  0.5790140000000  0.5037020000000 1.0
C      1  0.5794380000000  0.4532660000000  0.4928790000000 1.0
C      1  0.4544590000000  0.4217260000000  0.4937640000000 1.0
C      1  0.4225900000000  0.5454410000000  0.4942140000000 1.0
C      1  0.5457880000000  0.5779770000000  0.4943840000000 1.0
C      1  0.5001260000000  0.5831110000000  0.5149420000000 1.0
C      1  0.4166560000000  0.5020710000000  0.5139460000000 1.0
C      1  0.4998120000000  0.4183170000000  0.5125140000000 1.0
C      1  0.5828280000000  0.5015490000000  0.5129450000000 1.0
C      1  0.4987890000000  0.5824120000000  0.4867640000000 1.0
C      1  0.5836570000000  0.5006460000000  0.4845330000000 1.0
C      1  0.5017580000000  0.4158850000000  0.4847770000000 1.0
C      1  0.4168410000000  0.4988800000000  0.4863230000000 1.0
C      1  0.4984070000000  0.4800200000000  0.5444060000000 1.0
C      1  0.5206370000000  0.4975390000000  0.5534420000000 1.0
C      1  0.4947870000000  0.5250310000000  0.5402700000000 1.0
C      1  0.4806060000000  0.5019470000000  0.5465600000000 1.0
C      1  0.4987890000000  0.4855420000000  0.4485060000000 1.0
C      1  0.4738740000000  0.5000570000000  0.4528540000000 1.0
C      1  0.5029300000000  0.5277920000000  0.4604340000000 1.0
C      1  0.5180670000000  0.5048610000000  0.4499960000000 1.0
C      1  0.5522590000000  0.5737300000000  0.5221820000000 1.0
C      1  0.4261100000000  0.5537340000000  0.5218640000000 1.0
C      1  0.4477940000000  0.4264910000000  0.5217220000000 1.0
C      1  0.5750050000000  0.4482370000000  0.5211580000000 1.0
C      1  0.4471810000000  0.5740360000000  0.4756560000000 1.0
C      1  0.5743880000000  0.5536570000000  0.4764430000000 1.0
C      1  0.5535310000000  0.4251180000000  0.4758930000000 1.0
C      1  0.4257490000000  0.4469530000000  0.4768730000000 1.0
C      1  0.4936020000000  0.5662310000000  0.5694570000000 1.0
C      1  0.4361290000000  0.4955430000000  0.5680120000000 1.0
C      1  0.5037650000000  0.4415610000000  0.5707620000000 1.0
C      1  0.5616780000000  0.5090760000000  0.5703150000000 1.0
C      1  0.5078070000000  0.5642040000000  0.4310550000000 1.0
C      1  0.5660830000000  0.4927870000000  0.4321440000000 1.0
C      1  0.4945620000000  0.4408710000000  0.4293710000000 1.0
C      1  0.4345820000000  0.5063230000000  0.4282030000000 1.0
C      1  0.5323270000000  0.5642130000000  0.4482120000000 1.0
C      1  0.4336540000000  0.5312400000000  0.4447340000000 1.0
C      1  0.4689140000000  0.4353110000000  0.4445150000000 1.0
C      1  0.5631420000000  0.4687880000000  0.4491990000000 1.0
C      1  0.4716260000000  0.5710720000000  0.5490100000000 1.0
C      1  0.5632880000000  0.5321410000000  0.5514890000000 1.0
C      1  0.5333790000000  0.4384480000000  0.5544370000000 1.0
C      1  0.4324620000000  0.4688210000000  0.5523100000000 1.0
C      1  0.4466960000000  0.5729710000000  0.5307850000000 1.0
C      1  0.4284480000000  0.4466400000000  0.5314150000000 1.0
C      1  0.5552600000000  0.4299360000000  0.5296810000000 1.0
C      1  0.5712540000000  0.5537040000000  0.5312630000000 1.0
C      1  0.5536940000000  0.5718620000000  0.4670390000000 1.0
C      1  0.5714780000000  0.4459470000000  0.4657270000000 1.0
C      1  0.4468740000000  0.4292210000000  0.4673560000000 1.0
C      1  0.4284970000000  0.5530320000000  0.4673600000000 1.0
C      1  0.4782100000000  0.5469100000000  0.5366490000000 1.0
C      1  0.4527520000000  0.4776770000000  0.5350980000000 1.0
C      1  0.5248740000000  0.4561560000000  0.5315990000000 1.0
C      1  0.5412590000000  0.5219210000000  0.5359200000000 1.0
C      1  0.5251030000000  0.5447250000000  0.4676040000000 1.0
C      1  0.5441350000000  0.4749510000000  0.4720430000000 1.0
C      1  0.4785050000000  0.4518400000000  0.4643710000000 1.0
C      1  0.4547440000000  0.5221870000000  0.4605670000000 1.0
C      1  0.4682080000000  0.4980130000000  0.5238020000000 1.0
C      1  0.4945780000000  0.4789210000000  0.5154890000000 1.0
C      1  0.5208160000000  0.4929730000000  0.5065220000000 1.0
C      1  0.5080950000000  0.5214680000000  0.5132200000000 1.0
C      1  0.5316640000000  0.4987510000000  0.4767720000000 1.0
C      1  0.4985580000000  0.4692420000000  0.4699180000000 1.0
C      1  0.4781540000000  0.4942490000000  0.4820290000000 1.0
C      1  0.4911810000000  0.5225380000000  0.4870850000000 1.0
C      1  0.4667710000000  0.5228430000000  0.5778100000000 1.0
C      1  0.4720010000000  0.4667230000000  0.5799770000000 1.0
C      1  0.5468310000000  0.4598490000000  0.5713740000000 1.0
C      1  0.5214120000000  0.5364180000000  0.5796020000000 1.0
C      1  0.5341230000000  0.5192940000000  0.4236410000000 1.0
C      1  0.5278820000000  0.4654570000000  0.4199020000000 1.0
C      1  0.4598730000000  0.4747670000000  0.4204910000000 1.0
C      1  0.4802150000000  0.5345690000000  0.4206140000000 1.0
C      1  0.4554920000000  0.4788900000000  0.4881880000000 1.0
C      1  0.5221190000000  0.4553460000000  0.4816880000000 1.0
C      1  0.5454100000000  0.5232140000000  0.4813730000000 1.0
C      1  0.4754230000000  0.5455060000000  0.4893600000000 1.0
C      1  0.5407320000000  0.4778640000000  0.5218770000000 1.0
C      1  0.4797550000000  0.4556210000000  0.5101450000000 1.0
C      1  0.4557000000000  0.5210250000000  0.5118450000000 1.0
C      1  0.5270440000000  0.5409790000000  0.5194710000000 1.0
C      1  0.5640070000000  0.4812030000000  0.5615000000000 1.0
C      1  0.5215710000000  0.5606780000000  0.5631890000000 1.0
C      1  0.4423360000000  0.5232890000000  0.5615600000000 1.0
C      1  0.4771500000000  0.4429940000000  0.5615990000000 1.0
C      1  0.4373800000000  0.4787630000000  0.4372630000000 1.0
C      1  0.4792260000000  0.5587270000000  0.4369300000000 1.0
C      1  0.5608550000000  0.5212820000000  0.4368580000000 1.0
C      1  0.5220600000000  0.4414200000000  0.4367130000000 1.0
C      1  0.4922320000000  0.4959520000000  0.4095090000000 1.0
C      1  0.5163360000000  0.4920950000000  0.5811690000000 1.0
END
