TITL C-2441163-1170-1417 0.0106203170075246 125000 -15569.328020951 0 0 106 (C1) n - 1
REM
REM in /home/bkarasulu/work/CARBON/AIRSS/Generating-Clusters/ReaxFF-fromJPCA2015/Units_Real/with-SteepDescent/Higher-Symm
REM
REM
REM
REM
REM
REM ./C.cell (1df0a924f5614ab8850e4351716899ee)
REM
REM compiler GCC version 9.2.1 20190827 (Red Hat 9.2.1-1)
REM options -cpp -mtune=generic -march=x86-64 -g -O0 -fpre-include=/usr/include/finclude/math-vector-fortran.h
REM seed 397567360 -1118827253 -1600146394 -540313602 -28895466 1081746117 30221912 -2016246734 -2092674193 -2105473780 1981469221 1711243577 -2057324790 -957802572 -1201182886 -2032253298 805815245 -1977813633 747585836 821369003 1957020380 496692785 144877865 1486405718 -193127223 -924331338 -1818089888 -946594646 -5383679 1254639599 678260497 1522623882 -2109402456
REM
CELL 1.54180   50.00000   50.00000   50.00000   90.00000   90.00000   90.00000
LATT -1
SFAC C  
C      1  0.5042000000000  0.5173030000000  0.4125680000000 1.0
C      1  0.5826920000000  0.5170020000000  0.4770940000000 1.0
C      1  0.5459960000000  0.5170450000000  0.5715820000000 1.0
C      1  0.4473590000000  0.5155990000000  0.5646190000000 1.0
C      1  0.4207520000000  0.5194100000000  0.4710160000000 1.0
C      1  0.5657830000000  0.4458750000000  0.4623660000000 1.0
C      1  0.5567710000000  0.4459680000000  0.5523030000000 1.0
C      1  0.4677930000000  0.4444850000000  0.5679170000000 1.0
C      1  0.4236250000000  0.4490400000000  0.4957500000000 1.0
C      1  0.4834140000000  0.4457500000000  0.4249180000000 1.0
C      1  0.5513870000000  0.4675510000000  0.5722790000000 1.0
C      1  0.4461960000000  0.4654530000000  0.5678130000000 1.0
C      1  0.4183910000000  0.4700350000000  0.4750340000000 1.0
C      1  0.4994500000000  0.4674460000000  0.4111720000000 1.0
C      1  0.5820650000000  0.4679840000000  0.4744570000000 1.0
C      1  0.4411330000000  0.4755860000000  0.4576280000000 1.0
C      1  0.5204930000000  0.4741990000000  0.4294020000000 1.0
C      1  0.5740870000000  0.4723400000000  0.4998490000000 1.0
C      1  0.5229660000000  0.4735140000000  0.5731240000000 1.0
C      1  0.4418990000000  0.4721710000000  0.5411430000000 1.0
C      1  0.5636450000000  0.4935850000000  0.5691990000000 1.0
C      1  0.4532270000000  0.4915590000000  0.5795260000000 1.0
C      1  0.4063050000000  0.4956840000000  0.4807770000000 1.0
C      1  0.4883090000000  0.4937940000000  0.4051400000000 1.0
C      1  0.5848010000000  0.4930870000000  0.4609190000000 1.0
C      1  0.5491560000000  0.5125720000000  0.5165290000000 1.0
C      1  0.4973340000000  0.5118680000000  0.5483110000000 1.0
C      1  0.4541890000000  0.5117090000000  0.5133720000000 1.0
C      1  0.4853060000000  0.5050690000000  0.4574330000000 1.0
C      1  0.5326870000000  0.5139400000000  0.4590700000000 1.0
C      1  0.5929960000000  0.5083350000000  0.5287650000000 1.0
C      1  0.4995940000000  0.5070210000000  0.5901370000000 1.0
C      1  0.4138760000000  0.5085940000000  0.5265000000000 1.0
C      1  0.4457700000000  0.5083340000000  0.4284920000000 1.0
C      1  0.5561760000000  0.5089170000000  0.4204220000000 1.0
C      1  0.4349520000000  0.5281760000000  0.4450650000000 1.0
C      1  0.5316080000000  0.5257390000000  0.4267050000000 1.0
C      1  0.5789940000000  0.5252970000000  0.5074070000000 1.0
C      1  0.5184080000000  0.5264310000000  0.5822210000000 1.0
C      1  0.4280860000000  0.5257340000000  0.5421750000000 1.0
C      1  0.5704650000000  0.4880750000000  0.4345460000000 1.0
C      1  0.5836510000000  0.4877170000000  0.5465700000000 1.0
C      1  0.4794400000000  0.4872900000000  0.5928900000000 1.0
C      1  0.4002960000000  0.4913050000000  0.5097020000000 1.0
C      1  0.4592960000000  0.4888240000000  0.4138360000000 1.0
C      1  0.4862890000000  0.5257940000000  0.4327830000000 1.0
C      1  0.5594990000000  0.5279800000000  0.4647820000000 1.0
C      1  0.5521580000000  0.5273030000000  0.5457570000000 1.0
C      1  0.4738100000000  0.5263110000000  0.5603820000000 1.0
C      1  0.4391120000000  0.5251950000000  0.4924230000000 1.0
C      1  0.4898150000000  0.4342990000000  0.4512570000000 1.0
C      1  0.5433280000000  0.4338440000000  0.4766960000000 1.0
C      1  0.5367960000000  0.4335710000000  0.5352570000000 1.0
C      1  0.4791730000000  0.4319960000000  0.5436340000000 1.0
C      1  0.4499380000000  0.4351750000000  0.4955200000000 1.0
C      1  0.4578000000000  0.4595490000000  0.4214430000000 1.0
C      1  0.5613990000000  0.4588830000000  0.4365370000000 1.0
C      1  0.5793890000000  0.4582730000000  0.5389630000000 1.0
C      1  0.4850880000000  0.4577650000000  0.5870070000000 1.0
C      1  0.4052830000000  0.4614520000000  0.5153250000000 1.0
C      1  0.4581050000000  0.4848290000000  0.5214980000000 1.0
C      1  0.4666510000000  0.4858640000000  0.4675840000000 1.0
C      1  0.5148240000000  0.4884680000000  0.4558230000000 1.0
C      1  0.5496970000000  0.4853980000000  0.5058290000000 1.0
C      1  0.5097350000000  0.4858580000000  0.5493910000000 1.0
C      1  0.5562180000000  0.5562790000000  0.4591380000000 1.0
C      1  0.5559700000000  0.5554930000000  0.5410910000000 1.0
C      1  0.4795570000000  0.5542970000000  0.5661720000000 1.0
C      1  0.4296420000000  0.5525650000000  0.4971970000000 1.0
C      1  0.4769240000000  0.5530940000000  0.4333720000000 1.0
C      1  0.4720270000000  0.5699340000000  0.4574260000000 1.0
C      1  0.5310940000000  0.5727610000000  0.4602010000000 1.0
C      1  0.5462400000000  0.5713720000000  0.5173250000000 1.0
C      1  0.4987990000000  0.5713860000000  0.5513710000000 1.0
C      1  0.4435280000000  0.5734160000000  0.5125190000000 1.0
C      1  0.4897360000000  0.5238470000000  0.4782950000000 1.0
C      1  0.5173240000000  0.5266910000000  0.4807380000000 1.0
C      1  0.5248840000000  0.5241010000000  0.5074760000000 1.0
C      1  0.5023980000000  0.5214980000000  0.5223060000000 1.0
C      1  0.4794400000000  0.5261640000000  0.5055780000000 1.0
C      1  0.5091420000000  0.4384250000000  0.5454760000000 1.0
C      1  0.4690440000000  0.4369300000000  0.5170050000000 1.0
C      1  0.4657020000000  0.4382400000000  0.4679850000000 1.0
C      1  0.5190040000000  0.4388630000000  0.4600850000000 1.0
C      1  0.5460420000000  0.4380440000000  0.5067260000000 1.0
C      1  0.5696890000000  0.5547800000000  0.5156040000000 1.0
C      1  0.5074440000000  0.5532390000000  0.5736330000000 1.0
C      1  0.4295880000000  0.5536640000000  0.5271580000000 1.0
C      1  0.4502160000000  0.5541370000000  0.4448190000000 1.0
C      1  0.5365730000000  0.5550590000000  0.4380820000000 1.0
C      1  0.4219220000000  0.4594090000000  0.5365330000000 1.0
C      1  0.4467720000000  0.4494600000000  0.4459280000000 1.0
C      1  0.5345630000000  0.4494490000000  0.4341420000000 1.0
C      1  0.5741380000000  0.4488270000000  0.5128090000000 1.0
C      1  0.5093580000000  0.4479700000000  0.5755300000000 1.0
C      1  0.4991140000000  0.5865110000000  0.5266260000000 1.0
C      1  0.4745650000000  0.5829220000000  0.5063700000000 1.0
C      1  0.4850080000000  0.5875420000000  0.4766780000000 1.0
C      1  0.5138410000000  0.5861700000000  0.4802900000000 1.0
C      1  0.5219750000000  0.5861010000000  0.5087700000000 1.0
C      1  0.5110440000000  0.4673290000000  0.4775890000000 1.0
C      1  0.5263980000000  0.4678530000000  0.5036480000000 1.0
C      1  0.5069420000000  0.4676080000000  0.5262220000000 1.0
C      1  0.4787830000000  0.4671940000000  0.5119200000000 1.0
C      1  0.4817000000000  0.4665170000000  0.4819030000000 1.0
C      1  0.4835340000000  0.5555370000000  0.5030160000000 1.0
END
