TITL C-2441157-2117-1075 0.108574019840143 125000 -25961.0239138299 0 0 190 (C1) n - 1
REM
REM in /home/bkarasulu/work/CARBON/AIRSS/Generating-Clusters/ReaxFF-fromJPCA2015/Units_Real/with-SteepDescent/Higher-Symm
REM
REM
REM
REM
REM
REM ./C.cell (1df0a924f5614ab8850e4351716899ee)
REM
REM compiler GCC version 9.2.1 20190827 (Red Hat 9.2.1-1)
REM options -cpp -mtune=generic -march=x86-64 -g -O0 -fpre-include=/usr/include/finclude/math-vector-fortran.h
REM seed -240349420 1394212778 -682259129 -1592228350 1962848050 -1552621439 934815285 1218257069 1540255490 1433831136 1576218006 162617619 -38309248 938400877 742460116 1948954835 -467623194 -2064337502 364506469 -875491427 -770729401 1656274672 -785838245 959644218 1804487063 -232756519 -107747502 656684643 1683313896 -278408730 745088807 -1495607914 175020962
REM
CELL 1.54180   50.00000   50.00000   50.00000   90.00000   90.00000   90.00000
LATT -1
SFAC C  
C      1  0.5255480000000  0.4631740000000  0.5197880000000 1.0
C      1  0.4725730000000  0.5987240000000  0.4652460000000 1.0
C      1  0.5356500000000  0.4214840000000  0.4247940000000 1.0
C      1  0.4304450000000  0.4387380000000  0.4363640000000 1.0
C      1  0.5220420000000  0.6017990000000  0.5577610000000 1.0
C      1  0.4862440000000  0.4361780000000  0.4324910000000 1.0
C      1  0.5221790000000  0.3915740000000  0.5229520000000 1.0
C      1  0.5852430000000  0.5692420000000  0.4869260000000 1.0
C      1  0.5606660000000  0.5855820000000  0.4923990000000 1.0
C      1  0.4918360000000  0.4932200000000  0.3926970000000 1.0
C      1  0.5834550000000  0.4534380000000  0.5114640000000 1.0
C      1  0.4426240000000  0.4606580000000  0.5152190000000 1.0
C      1  0.4556920000000  0.4382470000000  0.5477860000000 1.0
C      1  0.5425900000000  0.4266100000000  0.5655130000000 1.0
C      1  0.4740160000000  0.5835080000000  0.4416050000000 1.0
C      1  0.4447400000000  0.4251260000000  0.4763480000000 1.0
C      1  0.5644480000000  0.5468270000000  0.5736990000000 1.0
C      1  0.4221130000000  0.4169310000000  0.4954790000000 1.0
C      1  0.5013830000000  0.6027220000000  0.5048180000000 1.0
C      1  0.6046330000000  0.4664430000000  0.5272180000000 1.0
C      1  0.4026210000000  0.5215370000000  0.4763100000000 1.0
C      1  0.4437360000000  0.4561660000000  0.4181460000000 1.0
C      1  0.4178400000000  0.4850910000000  0.5490540000000 1.0
C      1  0.4940900000000  0.5702240000000  0.5846560000000 1.0
C      1  0.5975690000000  0.4620240000000  0.5546640000000 1.0
C      1  0.4452630000000  0.5950750000000  0.4825160000000 1.0
C      1  0.4709030000000  0.4955210000000  0.5501060000000 1.0
C      1  0.5300800000000  0.4581130000000  0.4641560000000 1.0
C      1  0.5123750000000  0.5061650000000  0.6085260000000 1.0
C      1  0.5088860000000  0.5092300000000  0.4591590000000 1.0
C      1  0.4738910000000  0.4110570000000  0.4432850000000 1.0
C      1  0.4551230000000  0.5295460000000  0.5229920000000 1.0
C      1  0.4681540000000  0.4958210000000  0.4087710000000 1.0
C      1  0.4946160000000  0.3898410000000  0.5328580000000 1.0
C      1  0.4292390000000  0.5643870000000  0.5467170000000 1.0
C      1  0.5132770000000  0.5612230000000  0.4783400000000 1.0
C      1  0.5234400000000  0.6064630000000  0.4595470000000 1.0
C      1  0.4495780000000  0.5319390000000  0.4011290000000 1.0
C      1  0.5769930000000  0.4878400000000  0.4384280000000 1.0
C      1  0.4351370000000  0.4919550000000  0.5869670000000 1.0
C      1  0.4577460000000  0.4594970000000  0.5654710000000 1.0
C      1  0.4561290000000  0.4875730000000  0.6059570000000 1.0
C      1  0.5267970000000  0.4877790000000  0.4225160000000 1.0
C      1  0.5211230000000  0.6002360000000  0.5275220000000 1.0
C      1  0.6093650000000  0.4984860000000  0.4898440000000 1.0
C      1  0.4986560000000  0.5202560000000  0.4025080000000 1.0
C      1  0.4865650000000  0.4611940000000  0.4557560000000 1.0
C      1  0.5800570000000  0.5610850000000  0.4595550000000 1.0
C      1  0.4704140000000  0.5099960000000  0.4341740000000 1.0
C      1  0.5603200000000  0.4958460000000  0.4606000000000 1.0
C      1  0.5126430000000  0.5162740000000  0.5117650000000 1.0
C      1  0.5373210000000  0.5759390000000  0.5277300000000 1.0
C      1  0.5160160000000  0.4185440000000  0.5759490000000 1.0
C      1  0.4056790000000  0.4397010000000  0.4915250000000 1.0
C      1  0.5227630000000  0.4760520000000  0.4936900000000 1.0
C      1  0.3993480000000  0.4798940000000  0.5272740000000 1.0
C      1  0.4601150000000  0.5044450000000  0.4854360000000 1.0
C      1  0.4669980000000  0.5314870000000  0.6041760000000 1.0
C      1  0.5704190000000  0.4225140000000  0.4612550000000 1.0
C      1  0.5027020000000  0.4596430000000  0.6103090000000 1.0
C      1  0.5634770000000  0.5808620000000  0.5411390000000 1.0
C      1  0.4294450000000  0.5214220000000  0.5694690000000 1.0
C      1  0.4932730000000  0.4650280000000  0.3973170000000 1.0
C      1  0.4862740000000  0.5632260000000  0.5230030000000 1.0
C      1  0.4672180000000  0.4506770000000  0.5042740000000 1.0
C      1  0.5018930000000  0.5775620000000  0.4282950000000 1.0
C      1  0.5800940000000  0.4401570000000  0.5530020000000 1.0
C      1  0.4433400000000  0.5390190000000  0.5905680000000 1.0
C      1  0.4725860000000  0.4638640000000  0.6100170000000 1.0
C      1  0.4439530000000  0.4861110000000  0.5316760000000 1.0
C      1  0.5420280000000  0.5625220000000  0.4859880000000 1.0
C      1  0.5482770000000  0.5335250000000  0.5263510000000 1.0
C      1  0.5350660000000  0.4240940000000  0.4993960000000 1.0
C      1  0.4777200000000  0.5405590000000  0.3964100000000 1.0
C      1  0.4617180000000  0.4144420000000  0.5611350000000 1.0
C      1  0.4878820000000  0.4457620000000  0.4803720000000 1.0
C      1  0.4227710000000  0.5700820000000  0.4531600000000 1.0
C      1  0.5467710000000  0.4751370000000  0.5876020000000 1.0
C      1  0.5275830000000  0.5500010000000  0.5412580000000 1.0
C      1  0.4481610000000  0.5698470000000  0.4371290000000 1.0
C      1  0.4719720000000  0.5786210000000  0.5689950000000 1.0
C      1  0.4315310000000  0.4867580000000  0.4228130000000 1.0
C      1  0.5678480000000  0.4942950000000  0.5810360000000 1.0
C      1  0.4125090000000  0.5466780000000  0.4361320000000 1.0
C      1  0.5579480000000  0.5711630000000  0.4407410000000 1.0
C      1  0.4934710000000  0.5476380000000  0.4631540000000 1.0
C      1  0.5238910000000  0.4799030000000  0.6066050000000 1.0
C      1  0.4703600000000  0.4446590000000  0.5881490000000 1.0
C      1  0.4057660000000  0.5519890000000  0.5340490000000 1.0
C      1  0.5357670000000  0.5543480000000  0.5731010000000 1.0
C      1  0.5964010000000  0.5471940000000  0.5028630000000 1.0
C      1  0.5519840000000  0.5378840000000  0.4979530000000 1.0
C      1  0.5174950000000  0.5014730000000  0.5386030000000 1.0
C      1  0.4599930000000  0.3925450000000  0.5124440000000 1.0
C      1  0.4704880000000  0.4045460000000  0.4874020000000 1.0
C      1  0.5992450000000  0.4743930000000  0.4763460000000 1.0
C      1  0.4098750000000  0.5533660000000  0.5005800000000 1.0
C      1  0.4122230000000  0.4961000000000  0.4873700000000 1.0
C      1  0.3901810000000  0.5306370000000  0.5027230000000 1.0
C      1  0.4672930000000  0.5499950000000  0.5072470000000 1.0
C      1  0.4875080000000  0.3974300000000  0.4644070000000 1.0
C      1  0.4999830000000  0.4372180000000  0.5914500000000 1.0
C      1  0.4443040000000  0.5893110000000  0.5364630000000 1.0
C      1  0.4697020000000  0.5496440000000  0.4791470000000 1.0
C      1  0.5108560000000  0.4317090000000  0.4217730000000 1.0
C      1  0.4864850000000  0.4962970000000  0.5739820000000 1.0
C      1  0.5295930000000  0.4063610000000  0.4476170000000 1.0
C      1  0.4929490000000  0.5604580000000  0.4095310000000 1.0
C      1  0.5427450000000  0.5105070000000  0.4121090000000 1.0
C      1  0.5671490000000  0.5254700000000  0.4166730000000 1.0
C      1  0.4820680000000  0.4059900000000  0.5130190000000 1.0
C      1  0.4808560000000  0.5065880000000  0.6028880000000 1.0
C      1  0.5457140000000  0.4640650000000  0.5383920000000 1.0
C      1  0.5578400000000  0.4484210000000  0.4596110000000 1.0
C      1  0.6104470000000  0.4940600000000  0.5188030000000 1.0
C      1  0.4921390000000  0.4109040000000  0.5561400000000 1.0
C      1  0.4247890000000  0.5366990000000  0.4821980000000 1.0
C      1  0.4530680000000  0.5667090000000  0.5887640000000 1.0
C      1  0.4787530000000  0.5199590000000  0.5389820000000 1.0
C      1  0.5982240000000  0.4471170000000  0.4869030000000 1.0
C      1  0.5630940000000  0.4874990000000  0.5336950000000 1.0
C      1  0.4983540000000  0.5408890000000  0.5387190000000 1.0
C      1  0.5233130000000  0.4202410000000  0.5260010000000 1.0
C      1  0.4765790000000  0.5584150000000  0.6044430000000 1.0
C      1  0.4591960000000  0.4758830000000  0.4650930000000 1.0
C      1  0.4384780000000  0.4176470000000  0.5443310000000 1.0
C      1  0.5708650000000  0.4809440000000  0.4818530000000 1.0
C      1  0.5450400000000  0.5094790000000  0.5407350000000 1.0
C      1  0.5677440000000  0.4274870000000  0.5120670000000 1.0
C      1  0.5878100000000  0.4913950000000  0.5581270000000 1.0
C      1  0.5322270000000  0.5307860000000  0.4539610000000 1.0
C      1  0.6027990000000  0.5265090000000  0.4831170000000 1.0
C      1  0.4297930000000  0.4694180000000  0.5705480000000 1.0
C      1  0.5602090000000  0.5549060000000  0.4164460000000 1.0
C      1  0.5031950000000  0.4344300000000  0.5402080000000 1.0
C      1  0.4957200000000  0.4824580000000  0.4940900000000 1.0
C      1  0.4134730000000  0.4568370000000  0.5135630000000 1.0
C      1  0.5461080000000  0.6025580000000  0.4758150000000 1.0
C      1  0.5276150000000  0.5211950000000  0.5888920000000 1.0
C      1  0.5927340000000  0.5349870000000  0.4569710000000 1.0
C      1  0.4476400000000  0.5941380000000  0.5092550000000 1.0
C      1  0.5704790000000  0.4632120000000  0.4219180000000 1.0
C      1  0.4500480000000  0.4943420000000  0.4445610000000 1.0
C      1  0.4974930000000  0.6080810000000  0.4760800000000 1.0
C      1  0.4825200000000  0.4718550000000  0.5163340000000 1.0
C      1  0.5541220000000  0.5232780000000  0.4708690000000 1.0
C      1  0.5311370000000  0.5846060000000  0.4411540000000 1.0
C      1  0.5167680000000  0.3928280000000  0.4685040000000 1.0
C      1  0.4125740000000  0.4523190000000  0.4632970000000 1.0
C      1  0.5208440000000  0.5795100000000  0.5781020000000 1.0
C      1  0.5022010000000  0.5743820000000  0.5013290000000 1.0
C      1  0.4499410000000  0.5294300000000  0.4734350000000 1.0
C      1  0.4724180000000  0.5861610000000  0.5416960000000 1.0
C      1  0.5155980000000  0.4391650000000  0.4806120000000 1.0
C      1  0.5304460000000  0.3947330000000  0.4954810000000 1.0
C      1  0.5842380000000  0.4207760000000  0.4868740000000 1.0
C      1  0.4038880000000  0.4809480000000  0.4629170000000 1.0
C      1  0.5257370000000  0.5319920000000  0.4019760000000 1.0
C      1  0.5330600000000  0.5587300000000  0.4093050000000 1.0
C      1  0.5410250000000  0.4561620000000  0.5659630000000 1.0
C      1  0.4458030000000  0.4168870000000  0.4469840000000 1.0
C      1  0.4349860000000  0.4053250000000  0.5189720000000 1.0
C      1  0.5342830000000  0.5018070000000  0.4983340000000 1.0
C      1  0.5786740000000  0.4420480000000  0.4402580000000 1.0
C      1  0.4215000000000  0.5780380000000  0.4803440000000 1.0
C      1  0.4921650000000  0.5102200000000  0.4879680000000 1.0
C      1  0.5463840000000  0.4497610000000  0.4123400000000 1.0
C      1  0.4046030000000  0.4952930000000  0.4382240000000 1.0
C      1  0.5608990000000  0.4944650000000  0.5045290000000 1.0
C      1  0.4420660000000  0.5049910000000  0.5084840000000 1.0
C      1  0.5789990000000  0.5567040000000  0.5504880000000 1.0
C      1  0.5112250000000  0.5061150000000  0.5669200000000 1.0
C      1  0.5867480000000  0.5153370000000  0.4350400000000 1.0
C      1  0.5503790000000  0.6002870000000  0.5575510000000 1.0
C      1  0.4712600000000  0.4510340000000  0.4107420000000 1.0
C      1  0.3937910000000  0.5022520000000  0.5093250000000 1.0
C      1  0.4063330000000  0.5298490000000  0.5521090000000 1.0
C      1  0.4375400000000  0.5482920000000  0.4207970000000 1.0
C      1  0.4442000000000  0.5398040000000  0.5487550000000 1.0
C      1  0.4405220000000  0.4543530000000  0.4727500000000 1.0
C      1  0.5636280000000  0.4216200000000  0.5436540000000 1.0
C      1  0.5233120000000  0.4659290000000  0.4032110000000 1.0
C      1  0.4926900000000  0.5269930000000  0.4419040000000 1.0
C      1  0.5128520000000  0.4804580000000  0.4476990000000 1.0
C      1  0.5933350000000  0.5394290000000  0.5316500000000 1.0
C      1  0.4421280000000  0.5044990000000  0.4015320000000 1.0
C      1  0.5583700000000  0.5208490000000  0.5862300000000 1.0
C      1  0.5999550000000  0.5119360000000  0.5389890000000 1.0
C      1  0.5021900000000  0.4634840000000  0.5367070000000 1.0
C      1  0.3996100000000  0.5224480000000  0.4445500000000 1.0
END
