TITL C-2441156-4686-694 0.0759932403381413 125000 -25972.2739149136 0 0 185 (C1) n - 1
REM
REM in /home/bkarasulu/work/CARBON/AIRSS/Generating-Clusters/ReaxFF-fromJPCA2015/Units_Real/with-SteepDescent/Higher-Symm
REM
REM
REM
REM
REM
REM ./C.cell (1df0a924f5614ab8850e4351716899ee)
REM
REM compiler GCC version 9.2.1 20190827 (Red Hat 9.2.1-1)
REM options -cpp -mtune=generic -march=x86-64 -g -O0 -fpre-include=/usr/include/finclude/math-vector-fortran.h
REM seed 869965228 1919196002 1031624994 939984122 -849241721 1427454594 -328909809 1758097254 1360578271 1121997533 1382092440 -1623371385 697864675 572231276 -685377175 1806854367 -1930260706 -1786240532 -229111354 -395356915 -638996038 1009145004 -426272976 -1253205341 1128813202 -988191214 -970115005 -1874848386 -1723831399 -205417894 -128519047 -425440700 80038191
REM
CELL 1.54180   50.00000   50.00000   50.00000   90.00000   90.00000   90.00000
LATT -1
SFAC C  
C      1  0.6058580000000  0.5101130000000  0.4770580000000 1.0
C      1  0.6035320000000  0.4798730000000  0.4859720000000 1.0
C      1  0.6072530000000  0.4785810000000  0.5171120000000 1.0
C      1  0.6061120000000  0.5068390000000  0.5260060000000 1.0
C      1  0.6056250000000  0.5259460000000  0.5015310000000 1.0
C      1  0.3930360000000  0.5081750000000  0.4767800000000 1.0
C      1  0.3938100000000  0.4798860000000  0.4848820000000 1.0
C      1  0.3927620000000  0.4773790000000  0.5140020000000 1.0
C      1  0.3936270000000  0.5064680000000  0.5226290000000 1.0
C      1  0.3938160000000  0.5256230000000  0.5007310000000 1.0
C      1  0.5615860000000  0.5244660000000  0.5003490000000 1.0
C      1  0.5629950000000  0.5076480000000  0.4796820000000 1.0
C      1  0.5735040000000  0.4805430000000  0.4876310000000 1.0
C      1  0.5658160000000  0.4803690000000  0.5156080000000 1.0
C      1  0.5646260000000  0.5072000000000  0.5220910000000 1.0
C      1  0.4345700000000  0.5239560000000  0.5002430000000 1.0
C      1  0.4368210000000  0.5096020000000  0.4755020000000 1.0
C      1  0.4355920000000  0.4849790000000  0.4863580000000 1.0
C      1  0.4332060000000  0.4853560000000  0.5133770000000 1.0
C      1  0.4390990000000  0.5108260000000  0.5254500000000 1.0
C      1  0.4050300000000  0.4578540000000  0.4651420000000 1.0
C      1  0.4036660000000  0.4541440000000  0.5310460000000 1.0
C      1  0.4045080000000  0.5132240000000  0.5502310000000 1.0
C      1  0.4037080000000  0.5543930000000  0.5036220000000 1.0
C      1  0.4031480000000  0.5194900000000  0.4503920000000 1.0
C      1  0.5936610000000  0.4557630000000  0.4631880000000 1.0
C      1  0.5970470000000  0.4557880000000  0.5337950000000 1.0
C      1  0.5955520000000  0.5158520000000  0.5526690000000 1.0
C      1  0.5956190000000  0.5546870000000  0.5013340000000 1.0
C      1  0.5960870000000  0.5175270000000  0.4496890000000 1.0
C      1  0.5484700000000  0.4872380000000  0.5579760000000 1.0
C      1  0.5477520000000  0.5443250000000  0.5364300000000 1.0
C      1  0.5488350000000  0.5424450000000  0.4589710000000 1.0
C      1  0.5476650000000  0.4835810000000  0.4504590000000 1.0
C      1  0.5499610000000  0.4397050000000  0.5038180000000 1.0
C      1  0.4588120000000  0.4771360000000  0.5469390000000 1.0
C      1  0.4533860000000  0.5562050000000  0.5237360000000 1.0
C      1  0.4603380000000  0.5457420000000  0.4737890000000 1.0
C      1  0.4586620000000  0.4631980000000  0.4531880000000 1.0
C      1  0.4579960000000  0.4512420000000  0.5009010000000 1.0
C      1  0.4768020000000  0.4605020000000  0.4126430000000 1.0
C      1  0.4759140000000  0.4086080000000  0.5095980000000 1.0
C      1  0.4791890000000  0.4791950000000  0.5885720000000 1.0
C      1  0.4811280000000  0.5779790000000  0.5430940000000 1.0
C      1  0.4796950000000  0.5690660000000  0.4395380000000 1.0
C      1  0.5185380000000  0.4622510000000  0.4154240000000 1.0
C      1  0.5240600000000  0.4038400000000  0.5106780000000 1.0
C      1  0.5206600000000  0.4806260000000  0.5947480000000 1.0
C      1  0.5208890000000  0.5810690000000  0.5463350000000 1.0
C      1  0.5218000000000  0.5711570000000  0.4346530000000 1.0
C      1  0.5471340000000  0.5878640000000  0.5361160000000 1.0
C      1  0.5480580000000  0.5641140000000  0.4245580000000 1.0
C      1  0.5453700000000  0.4505070000000  0.4185350000000 1.0
C      1  0.5495000000000  0.4048510000000  0.5245070000000 1.0
C      1  0.5468990000000  0.4934240000000  0.5982880000000 1.0
C      1  0.4515380000000  0.5844860000000  0.5346360000000 1.0
C      1  0.4518920000000  0.5607070000000  0.4303910000000 1.0
C      1  0.4497900000000  0.4492860000000  0.4154620000000 1.0
C      1  0.4491240000000  0.4086430000000  0.5216830000000 1.0
C      1  0.4528200000000  0.4925900000000  0.5904890000000 1.0
C      1  0.4253720000000  0.4344340000000  0.4622750000000 1.0
C      1  0.4252360000000  0.4404010000000  0.5524740000000 1.0
C      1  0.4306900000000  0.5287490000000  0.5619040000000 1.0
C      1  0.4246730000000  0.5799880000000  0.4923660000000 1.0
C      1  0.4262840000000  0.5163800000000  0.4256520000000 1.0
C      1  0.5720470000000  0.4322490000000  0.4594650000000 1.0
C      1  0.5721690000000  0.4410460000000  0.5528710000000 1.0
C      1  0.5711790000000  0.5302370000000  0.5726960000000 1.0
C      1  0.5722250000000  0.5779000000000  0.4926860000000 1.0
C      1  0.5717690000000  0.5171900000000  0.4254890000000 1.0
C      1  0.5436310000000  0.5091590000000  0.5408370000000 1.0
C      1  0.5399130000000  0.5438790000000  0.5071740000000 1.0
C      1  0.5432990000000  0.5149250000000  0.4605580000000 1.0
C      1  0.5297420000000  0.4685540000000  0.4744650000000 1.0
C      1  0.5426720000000  0.4616400000000  0.5206320000000 1.0
C      1  0.4675990000000  0.5045190000000  0.5375950000000 1.0
C      1  0.4471250000000  0.5466500000000  0.4987910000000 1.0
C      1  0.4571590000000  0.5211630000000  0.4582560000000 1.0
C      1  0.4560700000000  0.4696520000000  0.4792160000000 1.0
C      1  0.4478430000000  0.4633070000000  0.5244860000000 1.0
C      1  0.4622890000000  0.3986680000000  0.4706280000000 1.0
C      1  0.4621660000000  0.4380670000000  0.5869910000000 1.0
C      1  0.4617160000000  0.5625330000000  0.5831750000000 1.0
C      1  0.4620330000000  0.6016860000000  0.4649870000000 1.0
C      1  0.4625460000000  0.4990030000000  0.3953390000000 1.0
C      1  0.5374470000000  0.3974230000000  0.4690240000000 1.0
C      1  0.5356190000000  0.4381130000000  0.5865470000000 1.0
C      1  0.5368800000000  0.5642060000000  0.5860950000000 1.0
C      1  0.5363170000000  0.6004760000000  0.4668680000000 1.0
C      1  0.5356530000000  0.4991680000000  0.3950160000000 1.0
C      1  0.5893730000000  0.4944480000000  0.5635250000000 1.0
C      1  0.5885760000000  0.5578270000000  0.5249370000000 1.0
C      1  0.5903120000000  0.5416520000000  0.4531900000000 1.0
C      1  0.5863150000000  0.4649420000000  0.4382400000000 1.0
C      1  0.5902590000000  0.4398400000000  0.5158400000000 1.0
C      1  0.4116490000000  0.4926430000000  0.5656400000000 1.0
C      1  0.4105040000000  0.5635280000000  0.5274230000000 1.0
C      1  0.4110270000000  0.5444810000000  0.4512130000000 1.0
C      1  0.4113240000000  0.4658950000000  0.4402890000000 1.0
C      1  0.4103270000000  0.4383300000000  0.5135250000000 1.0
C      1  0.5193510000000  0.5018450000000  0.5223490000000 1.0
C      1  0.5159950000000  0.5283360000000  0.5148350000000 1.0
C      1  0.5089400000000  0.5242840000000  0.4634490000000 1.0
C      1  0.5070710000000  0.4798410000000  0.4625650000000 1.0
C      1  0.5240540000000  0.4779330000000  0.5040240000000 1.0
C      1  0.4924010000000  0.4918070000000  0.5270990000000 1.0
C      1  0.4895350000000  0.5347060000000  0.5069910000000 1.0
C      1  0.4897920000000  0.5178550000000  0.4843640000000 1.0
C      1  0.4862500000000  0.4879240000000  0.4814980000000 1.0
C      1  0.4952730000000  0.4724320000000  0.5067810000000 1.0
C      1  0.5246580000000  0.5634730000000  0.4898200000000 1.0
C      1  0.5035590000000  0.5134410000000  0.4368580000000 1.0
C      1  0.5167980000000  0.4409030000000  0.4713900000000 1.0
C      1  0.5212270000000  0.4577370000000  0.5446120000000 1.0
C      1  0.5077210000000  0.5300200000000  0.5660160000000 1.0
C      1  0.4979150000000  0.5722000000000  0.4912530000000 1.0
C      1  0.4757230000000  0.5072670000000  0.4408190000000 1.0
C      1  0.4891330000000  0.4350870000000  0.4686510000000 1.0
C      1  0.4955910000000  0.4451390000000  0.5470230000000 1.0
C      1  0.4807030000000  0.5258130000000  0.5586630000000 1.0
C      1  0.4282960000000  0.4782410000000  0.5831240000000 1.0
C      1  0.4249950000000  0.5743840000000  0.5484520000000 1.0
C      1  0.4275050000000  0.5667140000000  0.4456750000000 1.0
C      1  0.4268020000000  0.4671690000000  0.4166310000000 1.0
C      1  0.4258760000000  0.4159470000000  0.5049060000000 1.0
C      1  0.5699680000000  0.4799960000000  0.5808980000000 1.0
C      1  0.5696560000000  0.5686960000000  0.5452510000000 1.0
C      1  0.5705060000000  0.5631700000000  0.4477050000000 1.0
C      1  0.5695100000000  0.4677010000000  0.4159560000000 1.0
C      1  0.5708120000000  0.4181970000000  0.5058010000000 1.0
C      1  0.4699730000000  0.4181890000000  0.5677050000000 1.0
C      1  0.4697460000000  0.5405360000000  0.5999220000000 1.0
C      1  0.4692430000000  0.6066610000000  0.4920730000000 1.0
C      1  0.4712440000000  0.5259540000000  0.4001910000000 1.0
C      1  0.4744530000000  0.4136930000000  0.4472100000000 1.0
C      1  0.5265320000000  0.4191400000000  0.5674260000000 1.0
C      1  0.5260380000000  0.5400090000000  0.5992020000000 1.0
C      1  0.5261240000000  0.6050900000000  0.4929850000000 1.0
C      1  0.5272130000000  0.5260530000000  0.3999880000000 1.0
C      1  0.5300020000000  0.4083430000000  0.4422150000000 1.0
C      1  0.4843410000000  0.4525730000000  0.6000740000000 1.0
C      1  0.4848980000000  0.5776350000000  0.5715750000000 1.0
C      1  0.4846200000000  0.5971660000000  0.4462210000000 1.0
C      1  0.4840620000000  0.4793860000000  0.3914160000000 1.0
C      1  0.4848050000000  0.3912800000000  0.4879250000000 1.0
C      1  0.5139700000000  0.4528620000000  0.6006790000000 1.0
C      1  0.5151440000000  0.5802150000000  0.5746830000000 1.0
C      1  0.5147260000000  0.5964580000000  0.4462770000000 1.0
C      1  0.5140230000000  0.4790950000000  0.3925190000000 1.0
C      1  0.5150870000000  0.3897780000000  0.4870120000000 1.0
C      1  0.5223870000000  0.4777330000000  0.5643370000000 1.0
C      1  0.5207570000000  0.5471610000000  0.5460280000000 1.0
C      1  0.5224830000000  0.5530070000000  0.4620890000000 1.0
C      1  0.5177660000000  0.4862830000000  0.4367340000000 1.0
C      1  0.5254810000000  0.4302280000000  0.4963290000000 1.0
C      1  0.4801810000000  0.4673090000000  0.5612420000000 1.0
C      1  0.4789750000000  0.5478580000000  0.5325730000000 1.0
C      1  0.4819550000000  0.5623030000000  0.4684680000000 1.0
C      1  0.4724790000000  0.4788050000000  0.4362810000000 1.0
C      1  0.4820300000000  0.4360840000000  0.4975270000000 1.0
C      1  0.4538140000000  0.5199840000000  0.5801940000000 1.0
C      1  0.4450760000000  0.5954600000000  0.5060140000000 1.0
C      1  0.4470560000000  0.5355320000000  0.4177820000000 1.0
C      1  0.4492410000000  0.4383150000000  0.4426800000000 1.0
C      1  0.4467170000000  0.4211470000000  0.5476510000000 1.0
C      1  0.5482860000000  0.5198310000000  0.5871860000000 1.0
C      1  0.5488420000000  0.5906350000000  0.5075810000000 1.0
C      1  0.5519800000000  0.5363310000000  0.4167110000000 1.0
C      1  0.5503630000000  0.4310130000000  0.4394280000000 1.0
C      1  0.5505210000000  0.4205070000000  0.5482590000000 1.0
C      1  0.4352640000000  0.4494130000000  0.5776690000000 1.0
C      1  0.4357020000000  0.5566080000000  0.5686110000000 1.0
C      1  0.4345600000000  0.5869490000000  0.4662740000000 1.0
C      1  0.4359280000000  0.4950480000000  0.4096300000000 1.0
C      1  0.4361630000000  0.4128830000000  0.4773800000000 1.0
C      1  0.5627780000000  0.4490080000000  0.5776840000000 1.0
C      1  0.5632490000000  0.5574180000000  0.5741840000000 1.0
C      1  0.5633470000000  0.5864350000000  0.4677650000000 1.0
C      1  0.5620660000000  0.4956730000000  0.4091910000000 1.0
C      1  0.5630700000000  0.4104430000000  0.4750150000000 1.0
C      1  0.4975730000000  0.5999870000000  0.4990880000000 1.0
C      1  0.4982230000000  0.4183940000000  0.5589510000000 1.0
C      1  0.5019740000000  0.4104630000000  0.4388340000000 1.0
C      1  0.4975430000000  0.5370130000000  0.6031380000000 1.0
C      1  0.4992620000000  0.5312810000000  0.4021010000000 1.0
END
