TITL C-2441167-4473-48 0.0143510321126089 125000 -10143.5411399551 0 0 72 (C1) n - 1
REM
REM in /home/bkarasulu/work/CARBON/AIRSS/Generating-Clusters/ReaxFF-fromJPCA2015/Units_Real/with-SteepDescent/Higher-Symm
REM
REM
REM
REM
REM
REM ./C.cell (1df0a924f5614ab8850e4351716899ee)
REM
REM compiler GCC version 9.2.1 20190827 (Red Hat 9.2.1-1)
REM options -cpp -mtune=generic -march=x86-64 -g -O0 -fpre-include=/usr/include/finclude/math-vector-fortran.h
REM seed 194882471 -905618082 557558731 -978639269 1379032065 -1596059161 217157266 -1278610179 1164557835 2145338608 89940442 1921011303 -647007351 -644470861 -1474734083 1708175569 139235646 57961231 1820835562 1166693854 -1241278410 -295018773 -1329303468 1492301606 1913801954 -1289048537 93423661 388444921 1222521667 2039213733 25487435 1878726465 -464517651
REM
CELL 1.54180   50.00000   50.00000   50.00000   90.00000   90.00000   90.00000
LATT -1
SFAC C  
C      1  0.5225510000000  0.5652890000000  0.4753510000000 1.0
C      1  0.5228000000000  0.4344500000000  0.4754820000000 1.0
C      1  0.5193690000000  0.4857080000000  0.4706890000000 1.0
C      1  0.5198580000000  0.5139640000000  0.4700620000000 1.0
C      1  0.4255510000000  0.5148590000000  0.4829160000000 1.0
C      1  0.4252960000000  0.4853620000000  0.4826980000000 1.0
C      1  0.4622190000000  0.4678330000000  0.4804530000000 1.0
C      1  0.4629990000000  0.5315370000000  0.4816520000000 1.0
C      1  0.4384580000000  0.4629630000000  0.4962020000000 1.0
C      1  0.4387080000000  0.5364100000000  0.4974760000000 1.0
C      1  0.4666860000000  0.5647830000000  0.5189820000000 1.0
C      1  0.4679650000000  0.4354370000000  0.5197130000000 1.0
C      1  0.5187980000000  0.5523450000000  0.5631360000000 1.0
C      1  0.5184430000000  0.4470120000000  0.5634940000000 1.0
C      1  0.4860250000000  0.4574750000000  0.5309590000000 1.0
C      1  0.4851630000000  0.5406090000000  0.5286540000000 1.0
C      1  0.5351500000000  0.4716790000000  0.5561770000000 1.0
C      1  0.5361560000000  0.5284240000000  0.5566130000000 1.0
C      1  0.5642320000000  0.5283260000000  0.5125770000000 1.0
C      1  0.5640770000000  0.4717720000000  0.5129060000000 1.0
C      1  0.4693830000000  0.4875900000000  0.5243000000000 1.0
C      1  0.4681170000000  0.5163250000000  0.5276820000000 1.0
C      1  0.4838550000000  0.5142540000000  0.4896870000000 1.0
C      1  0.4815070000000  0.4857880000000  0.4952540000000 1.0
C      1  0.4845360000000  0.4491500000000  0.4488770000000 1.0
C      1  0.4844660000000  0.5511400000000  0.4486370000000 1.0
C      1  0.5536920000000  0.5146460000000  0.5376880000000 1.0
C      1  0.5531730000000  0.4857060000000  0.5376850000000 1.0
C      1  0.5636040000000  0.4703810000000  0.4634260000000 1.0
C      1  0.5634120000000  0.5299060000000  0.4635250000000 1.0
C      1  0.4463870000000  0.4827110000000  0.4604780000000 1.0
C      1  0.4463170000000  0.5174570000000  0.4604740000000 1.0
C      1  0.4922780000000  0.5343230000000  0.5597580000000 1.0
C      1  0.4911930000000  0.4638330000000  0.5602150000000 1.0
C      1  0.5529180000000  0.4853060000000  0.4408940000000 1.0
C      1  0.5533280000000  0.5148800000000  0.4407810000000 1.0
C      1  0.5298290000000  0.4328930000000  0.5025750000000 1.0
C      1  0.5299690000000  0.5671820000000  0.5022750000000 1.0
C      1  0.5321670000000  0.4649610000000  0.4369250000000 1.0
C      1  0.5323170000000  0.5350100000000  0.4364910000000 1.0
C      1  0.5527990000000  0.5503700000000  0.4994030000000 1.0
C      1  0.5522630000000  0.4499500000000  0.4999290000000 1.0
C      1  0.5114200000000  0.5154460000000  0.4985600000000 1.0
C      1  0.5128090000000  0.4848960000000  0.4988950000000 1.0
C      1  0.4470770000000  0.4845840000000  0.5651830000000 1.0
C      1  0.4470430000000  0.5146370000000  0.5667820000000 1.0
C      1  0.4829910000000  0.4859130000000  0.4298530000000 1.0
C      1  0.4829540000000  0.5142270000000  0.4298570000000 1.0
C      1  0.5195610000000  0.4312750000000  0.5408610000000 1.0
C      1  0.5195630000000  0.5682430000000  0.5405540000000 1.0
C      1  0.4779740000000  0.5707730000000  0.4945140000000 1.0
C      1  0.4787310000000  0.4295480000000  0.4946820000000 1.0
C      1  0.4933210000000  0.4309240000000  0.4703380000000 1.0
C      1  0.4930980000000  0.5690670000000  0.4703940000000 1.0
C      1  0.5135790000000  0.4506550000000  0.5214680000000 1.0
C      1  0.5137130000000  0.5498750000000  0.5208420000000 1.0
C      1  0.4751530000000  0.5141100000000  0.5749370000000 1.0
C      1  0.4745200000000  0.4847570000000  0.5753940000000 1.0
C      1  0.4452410000000  0.4752960000000  0.5373170000000 1.0
C      1  0.4434650000000  0.5257810000000  0.5394990000000 1.0
C      1  0.5118240000000  0.5135600000000  0.5540350000000 1.0
C      1  0.5109300000000  0.4859400000000  0.5551840000000 1.0
C      1  0.4634480000000  0.4672560000000  0.4402820000000 1.0
C      1  0.4634610000000  0.5326750000000  0.4406870000000 1.0
C      1  0.5421490000000  0.4495360000000  0.4596950000000 1.0
C      1  0.5421220000000  0.5507760000000  0.4592440000000 1.0
C      1  0.5045300000000  0.5289170000000  0.4434540000000 1.0
C      1  0.5040890000000  0.4707390000000  0.4435240000000 1.0
C      1  0.5717120000000  0.5147230000000  0.4875970000000 1.0
C      1  0.5718590000000  0.4850840000000  0.4876530000000 1.0
C      1  0.4422300000000  0.4508450000000  0.5225280000000 1.0
C      1  0.4414160000000  0.5499410000000  0.5230310000000 1.0
END
