TITL C-2441161-5029-438 0.168054419282545 125000 -18612.381508932 0 0 153 (C1) n - 1
REM
REM in /home/bkarasulu/work/CARBON/AIRSS/Generating-Clusters/ReaxFF-fromJPCA2015/Units_Real/with-SteepDescent/Higher-Symm
REM
REM
REM
REM
REM
REM ./C.cell (1df0a924f5614ab8850e4351716899ee)
REM
REM compiler GCC version 9.2.1 20190827 (Red Hat 9.2.1-1)
REM options -cpp -mtune=generic -march=x86-64 -g -O0 -fpre-include=/usr/include/finclude/math-vector-fortran.h
REM seed 712550285 -1063794062 -2068596710 -1183918829 1072183760 -955637130 28053989 395943775 1391887572 -1291131206 -293103794 1648236896 2129319659 -439515792 24550116 1287100381 216884767 -1166512413 328759322 759125481 2101325103 1676002605 -1794035899 788634791 233025967 -1326746800 -291274980 -1973902473 -236279167 -1026811319 470278427 -1683993992 -1501993694
REM
CELL 1.54180   50.00000   50.00000   50.00000   90.00000   90.00000   90.00000
LATT -1
SFAC C  
C      1  0.5075310000000  0.4309470000000  0.5641270000000 1.0
C      1  0.4468450000000  0.4511780000000  0.5670110000000 1.0
C      1  0.4287920000000  0.5119990000000  0.5674110000000 1.0
C      1  0.4670980000000  0.5583730000000  0.5666470000000 1.0
C      1  0.5242010000000  0.5654630000000  0.5675990000000 1.0
C      1  0.5684170000000  0.5225220000000  0.5649720000000 1.0
C      1  0.5574220000000  0.4578930000000  0.5657310000000 1.0
C      1  0.5864200000000  0.4866380000000  0.5580240000000 1.0
C      1  0.5446210000000  0.4196930000000  0.5531080000000 1.0
C      1  0.4692390000000  0.4185940000000  0.5572040000000 1.0
C      1  0.4134500000000  0.4734690000000  0.5597210000000 1.0
C      1  0.4267840000000  0.5520480000000  0.5561910000000 1.0
C      1  0.4972620000000  0.5931100000000  0.5552680000000 1.0
C      1  0.5703890000000  0.5597710000000  0.5514440000000 1.0
C      1  0.4054080000000  0.5008790000000  0.4635770000000 1.0
C      1  0.4455030000000  0.5692100000000  0.4698610000000 1.0
C      1  0.5212150000000  0.5848730000000  0.4670030000000 1.0
C      1  0.5845780000000  0.5385960000000  0.4625650000000 1.0
C      1  0.5810950000000  0.4572950000000  0.4623410000000 1.0
C      1  0.5170750000000  0.4103650000000  0.4622610000000 1.0
C      1  0.4403160000000  0.4305410000000  0.4608960000000 1.0
C      1  0.5678300000000  0.4511180000000  0.5392760000000 1.0
C      1  0.5055710000000  0.4203230000000  0.5375920000000 1.0
C      1  0.4390610000000  0.4430920000000  0.5405550000000 1.0
C      1  0.4158520000000  0.5144900000000  0.5412040000000 1.0
C      1  0.4640940000000  0.5709090000000  0.5406710000000 1.0
C      1  0.5329380000000  0.5758950000000  0.5422950000000 1.0
C      1  0.5791960000000  0.5217300000000  0.5379220000000 1.0
C      1  0.4146190000000  0.4575550000000  0.5370520000000 1.0
C      1  0.4112860000000  0.5427660000000  0.5346190000000 1.0
C      1  0.4791530000000  0.5956730000000  0.5346510000000 1.0
C      1  0.5609190000000  0.5796380000000  0.5340810000000 1.0
C      1  0.5967820000000  0.4994140000000  0.5353390000000 1.0
C      1  0.5641360000000  0.4231780000000  0.5329970000000 1.0
C      1  0.4814240000000  0.4035010000000  0.5357430000000 1.0
C      1  0.5429050000000  0.4225050000000  0.4567850000000 1.0
C      1  0.4648400000000  0.4166250000000  0.4558940000000 1.0
C      1  0.4135070000000  0.4761770000000  0.4512490000000 1.0
C      1  0.4230200000000  0.5408080000000  0.4467140000000 1.0
C      1  0.4792300000000  0.5866130000000  0.4476480000000 1.0
C      1  0.5652390000000  0.5599720000000  0.4574570000000 1.0
C      1  0.5920670000000  0.4834320000000  0.4533220000000 1.0
C      1  0.5349360000000  0.4943700000000  0.4531000000000 1.0
C      1  0.5274220000000  0.4698100000000  0.4673540000000 1.0
C      1  0.4866220000000  0.4599800000000  0.4683990000000 1.0
C      1  0.4786790000000  0.4899720000000  0.4595300000000 1.0
C      1  0.4640420000000  0.5146980000000  0.4696060000000 1.0
C      1  0.5005530000000  0.5314590000000  0.4539220000000 1.0
C      1  0.5296300000000  0.5226850000000  0.4639710000000 1.0
C      1  0.5346580000000  0.4923710000000  0.5460340000000 1.0
C      1  0.5133220000000  0.4714590000000  0.5593680000000 1.0
C      1  0.4798610000000  0.4683590000000  0.5467140000000 1.0
C      1  0.4623890000000  0.4880550000000  0.5596080000000 1.0
C      1  0.4697060000000  0.5151460000000  0.5571020000000 1.0
C      1  0.5091320000000  0.5342450000000  0.5437970000000 1.0
C      1  0.5296250000000  0.5196870000000  0.5567920000000 1.0
C      1  0.5663710000000  0.4258710000000  0.5034210000000 1.0
C      1  0.4838500000000  0.4012810000000  0.5058130000000 1.0
C      1  0.4161270000000  0.4549240000000  0.4940400000000 1.0
C      1  0.4156000000000  0.5372040000000  0.4949980000000 1.0
C      1  0.4792840000000  0.5921290000000  0.4991090000000 1.0
C      1  0.5578370000000  0.5778010000000  0.5053240000000 1.0
C      1  0.5938990000000  0.5041970000000  0.4987860000000 1.0
C      1  0.5785240000000  0.4632030000000  0.5147810000000 1.0
C      1  0.5203800000000  0.4199250000000  0.5119230000000 1.0
C      1  0.4478030000000  0.4326570000000  0.5140790000000 1.0
C      1  0.4138630000000  0.4984240000000  0.5161870000000 1.0
C      1  0.4493370000000  0.5641930000000  0.5174200000000 1.0
C      1  0.5198440000000  0.5844380000000  0.5175800000000 1.0
C      1  0.5796980000000  0.5416990000000  0.5161710000000 1.0
C      1  0.4610340000000  0.5647000000000  0.4457420000000 1.0
C      1  0.5258410000000  0.5704140000000  0.4419950000000 1.0
C      1  0.5713860000000  0.5228070000000  0.4403770000000 1.0
C      1  0.5631200000000  0.4577090000000  0.4395820000000 1.0
C      1  0.5058250000000  0.4249880000000  0.4390360000000 1.0
C      1  0.4474090000000  0.4518470000000  0.4407300000000 1.0
C      1  0.4231430000000  0.5153420000000  0.4479450000000 1.0
C      1  0.4786280000000  0.5247740000000  0.5103140000000 1.0
C      1  0.5160550000000  0.5392980000000  0.5174060000000 1.0
C      1  0.5388940000000  0.5275060000000  0.5118780000000 1.0
C      1  0.5302800000000  0.4769300000000  0.5221460000000 1.0
C      1  0.5070650000000  0.4622500000000  0.5136990000000 1.0
C      1  0.4787340000000  0.4668810000000  0.5183700000000 1.0
C      1  0.4539400000000  0.5151030000000  0.5146310000000 1.0
C      1  0.5003300000000  0.5338320000000  0.5914820000000 1.0
C      1  0.5269990000000  0.5197660000000  0.5864510000000 1.0
C      1  0.5361090000000  0.4921500000000  0.5898210000000 1.0
C      1  0.5163450000000  0.4701770000000  0.5904050000000 1.0
C      1  0.4874530000000  0.4653800000000  0.5918800000000 1.0
C      1  0.4706500000000  0.4883360000000  0.5896410000000 1.0
C      1  0.4757060000000  0.5184790000000  0.5864850000000 1.0
C      1  0.5088130000000  0.4049700000000  0.4904920000000 1.0
C      1  0.4322450000000  0.4316810000000  0.4897230000000 1.0
C      1  0.4068310000000  0.5103290000000  0.4915990000000 1.0
C      1  0.4532680000000  0.5799930000000  0.4949100000000 1.0
C      1  0.5346960000000  0.5894040000000  0.4932090000000 1.0
C      1  0.5912040000000  0.5331590000000  0.4913630000000 1.0
C      1  0.5810450000000  0.4476840000000  0.4905420000000 1.0
C      1  0.4467390000000  0.4962960000000  0.4170300000000 1.0
C      1  0.4645100000000  0.5353290000000  0.4202950000000 1.0
C      1  0.5057150000000  0.5518660000000  0.4305210000000 1.0
C      1  0.5505090000000  0.5327120000000  0.4212740000000 1.0
C      1  0.5515080000000  0.4845690000000  0.4301900000000 1.0
C      1  0.5192780000000  0.4437100000000  0.4208060000000 1.0
C      1  0.4695990000000  0.4508960000000  0.4232210000000 1.0
C      1  0.5641110000000  0.4838580000000  0.5771020000000 1.0
C      1  0.5342290000000  0.4361350000000  0.5738240000000 1.0
C      1  0.4710530000000  0.4396430000000  0.5778120000000 1.0
C      1  0.4306900000000  0.4847820000000  0.5786160000000 1.0
C      1  0.4443630000000  0.5418960000000  0.5751920000000 1.0
C      1  0.4973200000000  0.5597960000000  0.5784920000000 1.0
C      1  0.5548040000000  0.5469800000000  0.5712200000000 1.0
C      1  0.4262930000000  0.4725220000000  0.5139830000000 1.0
C      1  0.4369240000000  0.5386240000000  0.5138300000000 1.0
C      1  0.4966070000000  0.5730100000000  0.5081410000000 1.0
C      1  0.5545280000000  0.5485940000000  0.5017750000000 1.0
C      1  0.5698370000000  0.4889240000000  0.5083100000000 1.0
C      1  0.5402710000000  0.4372040000000  0.5005910000000 1.0
C      1  0.4733630000000  0.4276160000000  0.5022650000000 1.0
C      1  0.4815460000000  0.4686320000000  0.4031410000000 1.0
C      1  0.4699540000000  0.4959480000000  0.4005030000000 1.0
C      1  0.4827180000000  0.5243770000000  0.4021660000000 1.0
C      1  0.5104350000000  0.5345200000000  0.4033990000000 1.0
C      1  0.5345050000000  0.5199110000000  0.3999220000000 1.0
C      1  0.5285600000000  0.4881200000000  0.4036560000000 1.0
C      1  0.5097170000000  0.4619620000000  0.3998820000000 1.0
C      1  0.5817530000000  0.4980410000000  0.4742560000000 1.0
C      1  0.5417520000000  0.4455330000000  0.4740660000000 1.0
C      1  0.4784760000000  0.4341820000000  0.4748550000000 1.0
C      1  0.4266100000000  0.4691330000000  0.4735780000000 1.0
C      1  0.4248480000000  0.5506650000000  0.4724590000000 1.0
C      1  0.4940620000000  0.5913200000000  0.4714640000000 1.0
C      1  0.5458260000000  0.5466270000000  0.4733160000000 1.0
C      1  0.5073300000000  0.4593550000000  0.4870610000000 1.0
C      1  0.4566680000000  0.4716210000000  0.4997330000000 1.0
C      1  0.4541830000000  0.4992460000000  0.4914170000000 1.0
C      1  0.4797910000000  0.5376610000000  0.4807630000000 1.0
C      1  0.5035880000000  0.5509430000000  0.4941950000000 1.0
C      1  0.5331440000000  0.5100460000000  0.4921760000000 1.0
C      1  0.5445370000000  0.4851530000000  0.4984440000000 1.0
C      1  0.5780580000000  0.4972590000000  0.4322480000000 1.0
C      1  0.5455590000000  0.4372690000000  0.4316140000000 1.0
C      1  0.4786910000000  0.4252570000000  0.4321630000000 1.0
C      1  0.4333830000000  0.4738210000000  0.4302490000000 1.0
C      1  0.4362290000000  0.5256050000000  0.4222620000000 1.0
C      1  0.4820330000000  0.5685030000000  0.4269880000000 1.0
C      1  0.5500840000000  0.5599960000000  0.4324050000000 1.0
C      1  0.4978080000000  0.4969810000000  0.4803750000000 1.0
C      1  0.5007170000000  0.4940250000000  0.5631080000000 1.0
C      1  0.4933450000000  0.5097350000000  0.5439180000000 1.0
C      1  0.4997660000000  0.5047100000000  0.5063160000000 1.0
C      1  0.5078620000000  0.4962100000000  0.4207990000000 1.0
C      1  0.4940620000000  0.5068610000000  0.4394990000000 1.0
END
