TITL C-2441157-2117-1301 0.00388066459093969 125000 -2144.85363567887 0 0 17 (C1) n - 1
REM
REM in /home/bkarasulu/work/CARBON/AIRSS/Generating-Clusters/ReaxFF-fromJPCA2015/Units_Real/with-SteepDescent/Higher-Symm
REM
REM
REM
REM
REM
REM ./C.cell (1df0a924f5614ab8850e4351716899ee)
REM
REM compiler GCC version 9.2.1 20190827 (Red Hat 9.2.1-1)
REM options -cpp -mtune=generic -march=x86-64 -g -O0 -fpre-include=/usr/include/finclude/math-vector-fortran.h
REM seed 1741426453 -881061115 1230436181 -634623361 1174230481 1846086609 459459782 -225840270 1868705449 2135516042 -604225843 16915651 1692065060 -1448176744 -670955514 -390377033 -1028465595 -1588553219 150192770 1155953084 -307046594 -590871697 333036983 -1487631945 400568547 -128558364 1045773267 473945604 -632001907 1272560325 985129831 -2055775656 -209733345
REM
CELL 1.54180   50.00000   50.00000   50.00000   90.00000   90.00000   90.00000
LATT -1
SFAC C  
C      1  0.4746890000000  0.5023270000000  0.4654660000000 1.0
C      1  0.4691510000000  0.4714590000000  0.5030260000000 1.0
C      1  0.5065290000000  0.4674070000000  0.4670240000000 1.0
C      1  0.5266620000000  0.4881150000000  0.4652330000000 1.0
C      1  0.5259380000000  0.5134500000000  0.5250890000000 1.0
C      1  0.4681430000000  0.4915800000000  0.5244030000000 1.0
C      1  0.5354490000000  0.5260830000000  0.5016220000000 1.0
C      1  0.5274160000000  0.4694570000000  0.4866630000000 1.0
C      1  0.4697840000000  0.5334350000000  0.4936720000000 1.0
C      1  0.4860640000000  0.5279190000000  0.4694280000000 1.0
C      1  0.4891270000000  0.4717700000000  0.5235220000000 1.0
C      1  0.5005170000000  0.5274130000000  0.5334600000000 1.0
C      1  0.4774090000000  0.4750780000000  0.4740220000000 1.0
C      1  0.5170700000000  0.5159450000000  0.4765900000000 1.0
C      1  0.5162260000000  0.4822730000000  0.5134470000000 1.0
C      1  0.4743150000000  0.5210250000000  0.5212240000000 1.0
C      1  0.5009820000000  0.5004480000000  0.4956270000000 1.0
END
