TITL C-2441162-9305-1398 0.0850310832131449 125000 -24034.4261683389 0 0 174 (C1) n - 1
REM
REM in /home/bkarasulu/work/CARBON/AIRSS/Generating-Clusters/ReaxFF-fromJPCA2015/Units_Real/with-SteepDescent/Higher-Symm
REM
REM
REM
REM
REM
REM ./C.cell (1df0a924f5614ab8850e4351716899ee)
REM
REM compiler GCC version 9.2.1 20190827 (Red Hat 9.2.1-1)
REM options -cpp -mtune=generic -march=x86-64 -g -O0 -fpre-include=/usr/include/finclude/math-vector-fortran.h
REM seed -677713022 -92792531 -877362846 1506897857 -1329212543 2023048916 -2027390954 -1332498905 -1380438251 -2028598806 1611021380 -912502468 -1759903038 -1458750431 -1497790450 683194309 1683414759 1817689211 -1874689302 -1234378288 1534352961 -1101754790 -2042242477 1426800088 1449989368 1441628698 1223311060 233696823 995753228 -294536319 70415860 954360939 -1689077980
REM
CELL 1.54180   50.00000   50.00000   50.00000   90.00000   90.00000   90.00000
LATT -1
SFAC C  
C      1  0.4936050000000  0.4908090000000  0.5604940000000 1.0
C      1  0.4975680000000  0.5539060000000  0.4835030000000 1.0
C      1  0.5015820000000  0.4602420000000  0.4589210000000 1.0
C      1  0.4229900000000  0.4433760000000  0.5316510000000 1.0
C      1  0.4208480000000  0.5614590000000  0.5311280000000 1.0
C      1  0.4210100000000  0.5029650000000  0.4373900000000 1.0
C      1  0.4760480000000  0.4727020000000  0.3982210000000 1.0
C      1  0.4711920000000  0.4266270000000  0.5799540000000 1.0
C      1  0.4769210000000  0.6023940000000  0.5281700000000 1.0
C      1  0.4813190000000  0.4865570000000  0.5139030000000 1.0
C      1  0.4755000000000  0.5214120000000  0.4952070000000 1.0
C      1  0.4862830000000  0.4965880000000  0.4877970000000 1.0
C      1  0.5961960000000  0.5329360000000  0.4916950000000 1.0
C      1  0.6065630000000  0.4673610000000  0.4717800000000 1.0
C      1  0.6051140000000  0.4924140000000  0.5352080000000 1.0
C      1  0.5201700000000  0.4609700000000  0.4068460000000 1.0
C      1  0.5188600000000  0.4408980000000  0.5818990000000 1.0
C      1  0.5198810000000  0.6000130000000  0.5111970000000 1.0
C      1  0.5666820000000  0.4602220000000  0.4942520000000 1.0
C      1  0.5636030000000  0.5212630000000  0.5510090000000 1.0
C      1  0.5647610000000  0.5363540000000  0.4519090000000 1.0
C      1  0.4931700000000  0.5569960000000  0.5668680000000 1.0
C      1  0.4925430000000  0.5315330000000  0.4123370000000 1.0
C      1  0.4842590000000  0.4289370000000  0.5057440000000 1.0
C      1  0.5850280000000  0.4944560000000  0.4329370000000 1.0
C      1  0.5882560000000  0.4417240000000  0.5401080000000 1.0
C      1  0.5879330000000  0.5605740000000  0.5301890000000 1.0
C      1  0.5334020000000  0.4361630000000  0.5359310000000 1.0
C      1  0.5338750000000  0.5498950000000  0.5259460000000 1.0
C      1  0.5296520000000  0.5012610000000  0.4311230000000 1.0
C      1  0.5458850000000  0.4312800000000  0.4478930000000 1.0
C      1  0.5379420000000  0.4813000000000  0.5820270000000 1.0
C      1  0.5413240000000  0.5837050000000  0.4743660000000 1.0
C      1  0.5410100000000  0.4761460000000  0.4208220000000 1.0
C      1  0.5427780000000  0.4381860000000  0.5636420000000 1.0
C      1  0.5452730000000  0.5895680000000  0.5158240000000 1.0
C      1  0.5776160000000  0.5488520000000  0.5547930000000 1.0
C      1  0.5737890000000  0.5209640000000  0.4278550000000 1.0
C      1  0.5764240000000  0.4206370000000  0.5262270000000 1.0
C      1  0.5072780000000  0.3952560000000  0.5249650000000 1.0
C      1  0.5286330000000  0.5768580000000  0.5758100000000 1.0
C      1  0.5322610000000  0.5234240000000  0.3910790000000 1.0
C      1  0.4222200000000  0.4260080000000  0.4886480000000 1.0
C      1  0.4223320000000  0.5259120000000  0.5665220000000 1.0
C      1  0.4189420000000  0.5493370000000  0.4427690000000 1.0
C      1  0.4859830000000  0.5426900000000  0.4582720000000 1.0
C      1  0.4887850000000  0.4367850000000  0.4668750000000 1.0
C      1  0.4811900000000  0.5168900000000  0.5620450000000 1.0
C      1  0.5389130000000  0.5627240000000  0.5534830000000 1.0
C      1  0.5357090000000  0.5253590000000  0.4184310000000 1.0
C      1  0.5353630000000  0.4104610000000  0.5206180000000 1.0
C      1  0.4989070000000  0.4194170000000  0.5737350000000 1.0
C      1  0.5032160000000  0.6001750000000  0.5365460000000 1.0
C      1  0.5025490000000  0.4824150000000  0.3951470000000 1.0
C      1  0.5691920000000  0.5799980000000  0.4825290000000 1.0
C      1  0.5708880000000  0.4459450000000  0.4441830000000 1.0
C      1  0.5635060000000  0.4766610000000  0.5625860000000 1.0
C      1  0.5270570000000  0.5266190000000  0.5944930000000 1.0
C      1  0.5246160000000  0.5665670000000  0.4303110000000 1.0
C      1  0.5209070000000  0.4024340000000  0.4816550000000 1.0
C      1  0.4458960000000  0.4812110000000  0.4847620000000 1.0
C      1  0.4357510000000  0.4901980000000  0.5103900000000 1.0
C      1  0.4256770000000  0.5132260000000  0.4997930000000 1.0
C      1  0.4524580000000  0.5660940000000  0.5650840000000 1.0
C      1  0.4522780000000  0.5224660000000  0.4109070000000 1.0
C      1  0.4560290000000  0.4087140000000  0.5283610000000 1.0
C      1  0.3996780000000  0.4805310000000  0.5306730000000 1.0
C      1  0.4043960000000  0.5482260000000  0.5123970000000 1.0
C      1  0.3985430000000  0.4821440000000  0.4691720000000 1.0
C      1  0.4341370000000  0.4547730000000  0.4278140000000 1.0
C      1  0.4411940000000  0.4563770000000  0.5797620000000 1.0
C      1  0.4418420000000  0.5918630000000  0.4962670000000 1.0
C      1  0.5163950000000  0.5258160000000  0.5246570000000 1.0
C      1  0.5198510000000  0.5128960000000  0.4558570000000 1.0
C      1  0.5195960000000  0.4593170000000  0.5241200000000 1.0
C      1  0.5042440000000  0.4615650000000  0.5953960000000 1.0
C      1  0.5023570000000  0.6033380000000  0.4861380000000 1.0
C      1  0.5055900000000  0.4365510000000  0.4150740000000 1.0
C      1  0.4901510000000  0.4868040000000  0.4596250000000 1.0
C      1  0.4914380000000  0.4636750000000  0.5259390000000 1.0
C      1  0.4898320000000  0.5365550000000  0.5138680000000 1.0
C      1  0.6031500000000  0.5149080000000  0.4728690000000 1.0
C      1  0.6085550000000  0.4665610000000  0.4997680000000 1.0
C      1  0.6138900000000  0.5177860000000  0.5289430000000 1.0
C      1  0.5274840000000  0.5043610000000  0.5065900000000 1.0
C      1  0.5256530000000  0.4990070000000  0.4789470000000 1.0
C      1  0.5350650000000  0.4812350000000  0.5202080000000 1.0
C      1  0.5710110000000  0.5163480000000  0.4997180000000 1.0
C      1  0.5664890000000  0.4885450000000  0.4855340000000 1.0
C      1  0.5756140000000  0.5031280000000  0.5280320000000 1.0
C      1  0.4994780000000  0.5959320000000  0.4589090000000 1.0
C      1  0.5119530000000  0.4165270000000  0.4356930000000 1.0
C      1  0.5021300000000  0.4873400000000  0.6083490000000 1.0
C      1  0.5583680000000  0.5278100000000  0.4040050000000 1.0
C      1  0.5620170000000  0.4029540000000  0.5158440000000 1.0
C      1  0.5599350000000  0.5639430000000  0.5713630000000 1.0
C      1  0.5426160000000  0.4448630000000  0.4878280000000 1.0
C      1  0.5289210000000  0.5179680000000  0.5503770000000 1.0
C      1  0.5376550000000  0.5353290000000  0.4612420000000 1.0
C      1  0.4720550000000  0.4532270000000  0.5916660000000 1.0
C      1  0.4746940000000  0.6013640000000  0.4983590000000 1.0
C      1  0.4784370000000  0.4472360000000  0.4112940000000 1.0
C      1  0.4588050000000  0.5817040000000  0.5402320000000 1.0
C      1  0.4575510000000  0.4931510000000  0.4136860000000 1.0
C      1  0.4586790000000  0.4262950000000  0.5517860000000 1.0
C      1  0.5214920000000  0.4915330000000  0.5604460000000 1.0
C      1  0.5301130000000  0.5544400000000  0.4826260000000 1.0
C      1  0.5312050000000  0.4574630000000  0.4615280000000 1.0
C      1  0.4365800000000  0.5458230000000  0.5514910000000 1.0
C      1  0.4377660000000  0.5266670000000  0.4353600000000 1.0
C      1  0.4387640000000  0.4267350000000  0.5130950000000 1.0
C      1  0.4360060000000  0.5715820000000  0.4471470000000 1.0
C      1  0.4356000000000  0.4218250000000  0.4637610000000 1.0
C      1  0.4370960000000  0.5086860000000  0.5832850000000 1.0
C      1  0.4588350000000  0.4999410000000  0.5267390000000 1.0
C      1  0.4481750000000  0.5285450000000  0.4863430000000 1.0
C      1  0.4584700000000  0.4618890000000  0.4746750000000 1.0
C      1  0.4648450000000  0.5213370000000  0.5897230000000 1.0
C      1  0.4603890000000  0.5693640000000  0.4303980000000 1.0
C      1  0.4657600000000  0.4181970000000  0.4612120000000 1.0
C      1  0.4695170000000  0.5568290000000  0.5202950000000 1.0
C      1  0.4679740000000  0.4825700000000  0.4413060000000 1.0
C      1  0.4735810000000  0.4524190000000  0.5448030000000 1.0
C      1  0.5083650000000  0.5906700000000  0.4308620000000 1.0
C      1  0.5098980000000  0.3944200000000  0.4553270000000 1.0
C      1  0.5097480000000  0.5146270000000  0.6127090000000 1.0
C      1  0.5018590000000  0.4052670000000  0.5494280000000 1.0
C      1  0.5048320000000  0.5844160000000  0.5619780000000 1.0
C      1  0.5058730000000  0.5119660000000  0.3942870000000 1.0
C      1  0.5604880000000  0.4791660000000  0.5302240000000 1.0
C      1  0.5477070000000  0.5397110000000  0.5038430000000 1.0
C      1  0.5450990000000  0.4833710000000  0.4679870000000 1.0
C      1  0.6081380000000  0.5431380000000  0.5179020000000 1.0
C      1  0.6047350000000  0.4935510000000  0.4551180000000 1.0
C      1  0.6066320000000  0.4635200000000  0.5269240000000 1.0
C      1  0.4625680000000  0.4460230000000  0.4988500000000 1.0
C      1  0.4618290000000  0.5242640000000  0.5409110000000 1.0
C      1  0.4595270000000  0.5315900000000  0.4606050000000 1.0
C      1  0.4306670000000  0.4825270000000  0.4212900000000 1.0
C      1  0.4316880000000  0.4398500000000  0.5584360000000 1.0
C      1  0.4347410000000  0.5843830000000  0.5229060000000 1.0
C      1  0.4831080000000  0.5090050000000  0.6094840000000 1.0
C      1  0.4796900000000  0.5901920000000  0.4355680000000 1.0
C      1  0.4843870000000  0.4032540000000  0.4456000000000 1.0
C      1  0.4629000000000  0.4544080000000  0.4367860000000 1.0
C      1  0.4774220000000  0.4680790000000  0.5656050000000 1.0
C      1  0.4767510000000  0.5702100000000  0.4962910000000 1.0
C      1  0.4049930000000  0.5198830000000  0.5192600000000 1.0
C      1  0.4024320000000  0.5073230000000  0.4591100000000 1.0
C      1  0.4101090000000  0.4622290000000  0.5159550000000 1.0
C      1  0.4061880000000  0.4879650000000  0.5556030000000 1.0
C      1  0.4083780000000  0.5564260000000  0.4845100000000 1.0
C      1  0.4001740000000  0.4557490000000  0.4643250000000 1.0
C      1  0.4693830000000  0.5514560000000  0.5819930000000 1.0
C      1  0.4672630000000  0.5458700000000  0.4126340000000 1.0
C      1  0.4798210000000  0.4009310000000  0.5144110000000 1.0
C      1  0.5440860000000  0.4188760000000  0.4744120000000 1.0
C      1  0.5484030000000  0.5068390000000  0.5926070000000 1.0
C      1  0.5474190000000  0.5760760000000  0.4467370000000 1.0
C      1  0.4035140000000  0.5150950000000  0.5489550000000 1.0
C      1  0.4026270000000  0.5383940000000  0.4632160000000 1.0
C      1  0.4038070000000  0.4483920000000  0.4911750000000 1.0
C      1  0.4282500000000  0.4821770000000  0.5764460000000 1.0
C      1  0.4288700000000  0.5766190000000  0.4759360000000 1.0
C      1  0.4199920000000  0.4399970000000  0.4476580000000 1.0
C      1  0.5835180000000  0.4496300000000  0.4706260000000 1.0
C      1  0.5707030000000  0.5045130000000  0.5742310000000 1.0
C      1  0.5728920000000  0.5643600000000  0.4568350000000 1.0
C      1  0.5061330000000  0.4275920000000  0.4878060000000 1.0
C      1  0.5124950000000  0.5331110000000  0.5696930000000 1.0
C      1  0.5042780000000  0.5455380000000  0.4349510000000 1.0
C      1  0.5690700000000  0.4703280000000  0.4275630000000 1.0
C      1  0.5707340000000  0.4474950000000  0.5628300000000 1.0
C      1  0.5708050000000  0.5782400000000  0.5125980000000 1.0
END
