TITL C-2441166-8118-929 0.0679610032645141 125000 -23741.4972120333 0 0 168 (C1) n - 1
REM
REM in /home/bkarasulu/work/CARBON/AIRSS/Generating-Clusters/ReaxFF-fromJPCA2015/Units_Real/with-SteepDescent/Higher-Symm
REM
REM
REM
REM
REM
REM ./C.cell (1df0a924f5614ab8850e4351716899ee)
REM
REM compiler GCC version 9.2.1 20190827 (Red Hat 9.2.1-1)
REM options -cpp -mtune=generic -march=x86-64 -g -O0 -fpre-include=/usr/include/finclude/math-vector-fortran.h
REM seed -2063515002 610478067 2048356948 -116208436 1867747627 828628796 524298076 1395092753 509534672 -1841597696 -958012874 -838769347 1181070537 -1361997729 -1192559723 -94849851 -442964948 -1046676295 1774599892 679931484 -1730489204 -1408789078 -1300356550 1732333819 -512546141 -237295980 -1404498949 -2058775527 -1677579722 212461363 981786907 763569799 -427860974
REM
CELL 1.54180   50.00000   50.00000   50.00000   90.00000   90.00000   90.00000
LATT -1
SFAC C  
C      1  0.5182270000000  0.4492020000000  0.4745520000000 1.0
C      1  0.4822900000000  0.4691060000000  0.5530600000000 1.0
C      1  0.5207990000000  0.5522110000000  0.5301390000000 1.0
C      1  0.4864470000000  0.5239200000000  0.4444180000000 1.0
C      1  0.5733380000000  0.4606140000000  0.5607620000000 1.0
C      1  0.4248040000000  0.5693000000000  0.5459950000000 1.0
C      1  0.5783640000000  0.5389930000000  0.4391900000000 1.0
C      1  0.4195440000000  0.4375990000000  0.4641330000000 1.0
C      1  0.4630390000000  0.4150850000000  0.4899620000000 1.0
C      1  0.5278610000000  0.4787330000000  0.5753930000000 1.0
C      1  0.4875660000000  0.5797770000000  0.5129350000000 1.0
C      1  0.5294640000000  0.5337560000000  0.4217580000000 1.0
C      1  0.5625720000000  0.5060600000000  0.5713650000000 1.0
C      1  0.4462870000000  0.5859610000000  0.5058510000000 1.0
C      1  0.5635690000000  0.4962140000000  0.4298660000000 1.0
C      1  0.4243540000000  0.4030860000000  0.5003070000000 1.0
C      1  0.4904100000000  0.5758060000000  0.5697160000000 1.0
C      1  0.5025060000000  0.5723490000000  0.4193340000000 1.0
C      1  0.4956560000000  0.4322030000000  0.4153770000000 1.0
C      1  0.4984750000000  0.4240780000000  0.5745640000000 1.0
C      1  0.5517090000000  0.4894560000000  0.4562040000000 1.0
C      1  0.4477830000000  0.4595920000000  0.5200440000000 1.0
C      1  0.5535770000000  0.5152230000000  0.5452940000000 1.0
C      1  0.4482290000000  0.5390370000000  0.4742050000000 1.0
C      1  0.4365110000000  0.5148730000000  0.4836290000000 1.0
C      1  0.5628650000000  0.4939040000000  0.4825240000000 1.0
C      1  0.4355280000000  0.4829060000000  0.5081870000000 1.0
C      1  0.5642960000000  0.5131130000000  0.5188260000000 1.0
C      1  0.4018960000000  0.5230410000000  0.5453460000000 1.0
C      1  0.6070860000000  0.5448390000000  0.4811720000000 1.0
C      1  0.3964550000000  0.4800060000000  0.4627740000000 1.0
C      1  0.6036400000000  0.4536390000000  0.5204660000000 1.0
C      1  0.4976870000000  0.4913600000000  0.4101790000000 1.0
C      1  0.5056680000000  0.4092140000000  0.5174450000000 1.0
C      1  0.5054910000000  0.5132740000000  0.5981710000000 1.0
C      1  0.4958620000000  0.5899950000000  0.4865820000000 1.0
C      1  0.4727680000000  0.5324940000000  0.5384320000000 1.0
C      1  0.5221190000000  0.5361930000000  0.4730480000000 1.0
C      1  0.4789450000000  0.4681940000000  0.4680840000000 1.0
C      1  0.5206790000000  0.4640680000000  0.5285820000000 1.0
C      1  0.5998270000000  0.5288960000000  0.4559290000000 1.0
C      1  0.4026530000000  0.4549390000000  0.4786540000000 1.0
C      1  0.5964120000000  0.4687470000000  0.5457020000000 1.0
C      1  0.4206540000000  0.5453410000000  0.5288540000000 1.0
C      1  0.4486460000000  0.5847410000000  0.4786570000000 1.0
C      1  0.5508680000000  0.4734220000000  0.4165740000000 1.0
C      1  0.4532930000000  0.4123270000000  0.5172380000000 1.0
C      1  0.5514780000000  0.5299620000000  0.5835180000000 1.0
C      1  0.4625710000000  0.5796290000000  0.5582770000000 1.0
C      1  0.5286770000000  0.5625380000000  0.4217060000000 1.0
C      1  0.4794620000000  0.4194080000000  0.4342100000000 1.0
C      1  0.5228230000000  0.4326050000000  0.5823900000000 1.0
C      1  0.4808470000000  0.5774940000000  0.4398810000000 1.0
C      1  0.5200930000000  0.4446410000000  0.4201500000000 1.0
C      1  0.4769090000000  0.4147460000000  0.5580410000000 1.0
C      1  0.5158540000000  0.5603480000000  0.5753450000000 1.0
C      1  0.4760350000000  0.4601670000000  0.5245610000000 1.0
C      1  0.5279830000000  0.5258700000000  0.5415880000000 1.0
C      1  0.4746610000000  0.5359180000000  0.4679970000000 1.0
C      1  0.5278460000000  0.4747250000000  0.4582000000000 1.0
C      1  0.4448600000000  0.5867040000000  0.5339990000000 1.0
C      1  0.5599300000000  0.5245830000000  0.4235250000000 1.0
C      1  0.4342410000000  0.4151290000000  0.4765290000000 1.0
C      1  0.5559260000000  0.4778220000000  0.5759360000000 1.0
C      1  0.4878730000000  0.4015970000000  0.4817790000000 1.0
C      1  0.5118350000000  0.4842100000000  0.5978330000000 1.0
C      1  0.4947420000000  0.6017720000000  0.5285000000000 1.0
C      1  0.5056400000000  0.5246630000000  0.4004570000000 1.0
C      1  0.5478190000000  0.4647290000000  0.5246920000000 1.0
C      1  0.4469210000000  0.5321850000000  0.5257260000000 1.0
C      1  0.5497910000000  0.5403770000000  0.4743420000000 1.0
C      1  0.4513600000000  0.4669210000000  0.4630100000000 1.0
C      1  0.5601930000000  0.4418280000000  0.5419960000000 1.0
C      1  0.4531360000000  0.5390010000000  0.5686300000000 1.0
C      1  0.5630060000000  0.5617960000000  0.4561870000000 1.0
C      1  0.4368100000000  0.4511510000000  0.4409810000000 1.0
C      1  0.5393320000000  0.4401030000000  0.4912100000000 1.0
C      1  0.4619310000000  0.4857250000000  0.5654940000000 1.0
C      1  0.5346400000000  0.5619120000000  0.5070890000000 1.0
C      1  0.4799350000000  0.4984950000000  0.4331440000000 1.0
C      1  0.4456200000000  0.5093100000000  0.5097180000000 1.0
C      1  0.5633490000000  0.5218510000000  0.4902360000000 1.0
C      1  0.4369790000000  0.4849800000000  0.4786530000000 1.0
C      1  0.5497060000000  0.4886890000000  0.5097710000000 1.0
C      1  0.5578930000000  0.4054190000000  0.5044250000000 1.0
C      1  0.4576780000000  0.5027010000000  0.5891200000000 1.0
C      1  0.5510680000000  0.5871360000000  0.4962480000000 1.0
C      1  0.4518860000000  0.4929310000000  0.4170540000000 1.0
C      1  0.4807120000000  0.4568790000000  0.5959730000000 1.0
C      1  0.5209210000000  0.6058430000000  0.5402520000000 1.0
C      1  0.4784750000000  0.5359050000000  0.3982920000000 1.0
C      1  0.5130980000000  0.4025770000000  0.4652040000000 1.0
C      1  0.5914540000000  0.5650510000000  0.4954220000000 1.0
C      1  0.4105130000000  0.4924240000000  0.4400420000000 1.0
C      1  0.5909460000000  0.4350670000000  0.5035890000000 1.0
C      1  0.4148140000000  0.5025830000000  0.5607180000000 1.0
C      1  0.6050490000000  0.4778930000000  0.5060630000000 1.0
C      1  0.3898120000000  0.5156400000000  0.5206960000000 1.0
C      1  0.6072260000000  0.5207420000000  0.4963680000000 1.0
C      1  0.3920000000000  0.5004580000000  0.4815620000000 1.0
C      1  0.5936310000000  0.5193220000000  0.5247610000000 1.0
C      1  0.4054420000000  0.5280280000000  0.4804470000000 1.0
C      1  0.5910970000000  0.4803810000000  0.4779370000000 1.0
C      1  0.3991690000000  0.4883600000000  0.5078270000000 1.0
C      1  0.5831780000000  0.4355950000000  0.4756890000000 1.0
C      1  0.4148210000000  0.4725060000000  0.5559940000000 1.0
C      1  0.5827510000000  0.5660180000000  0.5244520000000 1.0
C      1  0.4171550000000  0.5212820000000  0.4364100000000 1.0
C      1  0.4417530000000  0.5639220000000  0.5679520000000 1.0
C      1  0.5419750000000  0.5764790000000  0.4402600000000 1.0
C      1  0.4563220000000  0.4342520000000  0.4256820000000 1.0
C      1  0.5380090000000  0.4257520000000  0.5585750000000 1.0
C      1  0.4002200000000  0.5388460000000  0.5071130000000 1.0
C      1  0.6041560000000  0.5048950000000  0.4722360000000 1.0
C      1  0.3987500000000  0.4587110000000  0.5086530000000 1.0
C      1  0.6019100000000  0.4932710000000  0.5306530000000 1.0
C      1  0.5430830000000  0.5886000000000  0.5444780000000 1.0
C      1  0.4567100000000  0.5426400000000  0.4154620000000 1.0
C      1  0.5376240000000  0.4148890000000  0.4568410000000 1.0
C      1  0.4552050000000  0.4478600000000  0.5849490000000 1.0
C      1  0.4979670000000  0.5526440000000  0.3982820000000 1.0
C      1  0.4883000000000  0.4011440000000  0.4532860000000 1.0
C      1  0.5072180000000  0.4551680000000  0.6014630000000 1.0
C      1  0.4970500000000  0.6012180000000  0.5557730000000 1.0
C      1  0.4898670000000  0.5081610000000  0.5312170000000 1.0
C      1  0.5064260000000  0.5297210000000  0.4988470000000 1.0
C      1  0.4904900000000  0.4945730000000  0.4731430000000 1.0
C      1  0.5060990000000  0.4727620000000  0.5038710000000 1.0
C      1  0.4842510000000  0.5177320000000  0.4864740000000 1.0
C      1  0.5167580000000  0.4893370000000  0.4798790000000 1.0
C      1  0.4839630000000  0.4853860000000  0.5156610000000 1.0
C      1  0.5173180000000  0.5107240000000  0.5197730000000 1.0
C      1  0.5325820000000  0.3961730000000  0.5155400000000 1.0
C      1  0.4781020000000  0.5225910000000  0.5979870000000 1.0
C      1  0.5236960000000  0.5954370000000  0.4789330000000 1.0
C      1  0.4733660000000  0.4768140000000  0.4000090000000 1.0
C      1  0.5252720000000  0.4065940000000  0.5412860000000 1.0
C      1  0.4731520000000  0.5463400000000  0.5847040000000 1.0
C      1  0.5198930000000  0.5881510000000  0.4528490000000 1.0
C      1  0.4731770000000  0.4485790000000  0.4064970000000 1.0
C      1  0.5411700000000  0.5684030000000  0.5639940000000 1.0
C      1  0.4564810000000  0.5632810000000  0.4351870000000 1.0
C      1  0.5420020000000  0.4342080000000  0.4364560000000 1.0
C      1  0.4529250000000  0.4305460000000  0.5617810000000 1.0
C      1  0.5142030000000  0.5300790000000  0.4473490000000 1.0
C      1  0.4919120000000  0.4524940000000  0.4886240000000 1.0
C      1  0.5111500000000  0.4710430000000  0.5544030000000 1.0
C      1  0.4920780000000  0.5523030000000  0.5218620000000 1.0
C      1  0.4126720000000  0.5425060000000  0.4556290000000 1.0
C      1  0.5829220000000  0.4572680000000  0.4581270000000 1.0
C      1  0.4099130000000  0.4521530000000  0.5349150000000 1.0
C      1  0.5832910000000  0.5448850000000  0.5430980000000 1.0
C      1  0.5636470000000  0.4542500000000  0.4359100000000 1.0
C      1  0.4375520000000  0.4373510000000  0.5362890000000 1.0
C      1  0.5639210000000  0.5490780000000  0.5648870000000 1.0
C      1  0.4367290000000  0.5604860000000  0.4584960000000 1.0
C      1  0.4377750000000  0.4695720000000  0.5737030000000 1.0
C      1  0.5622030000000  0.5872480000000  0.5241680000000 1.0
C      1  0.4395310000000  0.5203940000000  0.4190750000000 1.0
C      1  0.5591810000000  0.4170100000000  0.4767150000000 1.0
C      1  0.4303410000000  0.4769120000000  0.4282940000000 1.0
C      1  0.5726530000000  0.4234710000000  0.5209800000000 1.0
C      1  0.4353300000000  0.5163240000000  0.5772100000000 1.0
C      1  0.5722740000000  0.5770820000000  0.4791350000000 1.0
C      1  0.4794580000000  0.4054690000000  0.5295490000000 1.0
C      1  0.5224530000000  0.5347340000000  0.5879360000000 1.0
C      1  0.4746390000000  0.5892390000000  0.4663750000000 1.0
C      1  0.5226070000000  0.4716360000000  0.4121970000000 1.0
END
