TITL C-2441159-1093-920 0.0351071336693961 125000 -12012.8350580573 0 0 86 (C1) n - 1
REM
REM in /home/bkarasulu/work/CARBON/AIRSS/Generating-Clusters/ReaxFF-fromJPCA2015/Units_Real/with-SteepDescent/Higher-Symm
REM
REM
REM
REM
REM
REM ./C.cell (1df0a924f5614ab8850e4351716899ee)
REM
REM compiler GCC version 9.2.1 20190827 (Red Hat 9.2.1-1)
REM options -cpp -mtune=generic -march=x86-64 -g -O0 -fpre-include=/usr/include/finclude/math-vector-fortran.h
REM seed 1673198115 704727127 692500997 -822855867 1985173286 -1376967580 1112880469 -1182511510 -811534748 379019624 -995306802 1356845466 1867488302 -934877039 -1839687225 -2088148861 -1239134249 1648073520 1428996719 1388535475 2045624984 311039449 290317186 -435460625 -1489536414 1745380272 1271686248 -746137619 -1334227265 -1046978755 -2097926979 2142394623 -2005162261
REM
CELL 1.54180   50.00000   50.00000   50.00000   90.00000   90.00000   90.00000
LATT -1
SFAC C  
C      1  0.4564410000000  0.4374100000000  0.4937830000000 1.0
C      1  0.5078360000000  0.4514020000000  0.5356250000000 1.0
C      1  0.5250480000000  0.4510480000000  0.4762670000000 1.0
C      1  0.4565830000000  0.4992830000000  0.5643400000000 1.0
C      1  0.5746770000000  0.4995000000000  0.5056790000000 1.0
C      1  0.4672600000000  0.4999040000000  0.4313670000000 1.0
C      1  0.5192450000000  0.5444050000000  0.4356440000000 1.0
C      1  0.4308370000000  0.5468180000000  0.5113740000000 1.0
C      1  0.5421480000000  0.5466570000000  0.5550290000000 1.0
C      1  0.4511920000000  0.5574200000000  0.4769120000000 1.0
C      1  0.5020750000000  0.5594630000000  0.5587890000000 1.0
C      1  0.5472670000000  0.5595360000000  0.4692050000000 1.0
C      1  0.5311510000000  0.4730390000000  0.4952830000000 1.0
C      1  0.4784140000000  0.4792280000000  0.4724180000000 1.0
C      1  0.4882460000000  0.4742080000000  0.5321180000000 1.0
C      1  0.4387580000000  0.5398350000000  0.5392750000000 1.0
C      1  0.5624440000000  0.5390880000000  0.5326510000000 1.0
C      1  0.4931920000000  0.5377170000000  0.4275510000000 1.0
C      1  0.4563930000000  0.5218020000000  0.4478150000000 1.0
C      1  0.4829200000000  0.5097000000000  0.5675780000000 1.0
C      1  0.5621460000000  0.5105900000000  0.4827870000000 1.0
C      1  0.4909070000000  0.5114690000000  0.4189660000000 1.0
C      1  0.4355250000000  0.5146460000000  0.5503390000000 1.0
C      1  0.5747780000000  0.5146750000000  0.5306690000000 1.0
C      1  0.4401160000000  0.4466210000000  0.4727070000000 1.0
C      1  0.5075290000000  0.4453040000000  0.5683500000000 1.0
C      1  0.5535100000000  0.4458520000000  0.4597310000000 1.0
C      1  0.5522800000000  0.5681080000000  0.4966280000000 1.0
C      1  0.4718060000000  0.5680490000000  0.4588390000000 1.0
C      1  0.4761340000000  0.5675670000000  0.5475930000000 1.0
C      1  0.5422770000000  0.5315650000000  0.4778830000000 1.0
C      1  0.4621790000000  0.5298570000000  0.4755040000000 1.0
C      1  0.4952560000000  0.5305570000000  0.5520330000000 1.0
C      1  0.5355170000000  0.5206010000000  0.4294080000000 1.0
C      1  0.4201350000000  0.5209430000000  0.5033530000000 1.0
C      1  0.5428970000000  0.5204340000000  0.5685650000000 1.0
C      1  0.5269860000000  0.4803450000000  0.4258240000000 1.0
C      1  0.4233060000000  0.4819230000000  0.5151170000000 1.0
C      1  0.5508330000000  0.4817600000000  0.5592610000000 1.0
C      1  0.4380420000000  0.4656110000000  0.4525170000000 1.0
C      1  0.4891310000000  0.4631300000000  0.5792170000000 1.0
C      1  0.5721790000000  0.4636340000000  0.4701690000000 1.0
C      1  0.4572130000000  0.5489330000000  0.5527870000000 1.0
C      1  0.5651640000000  0.5483410000000  0.5102560000000 1.0
C      1  0.4692510000000  0.5471460000000  0.4387320000000 1.0
C      1  0.4690650000000  0.4254090000000  0.5374930000000 1.0
C      1  0.5451940000000  0.4263550000000  0.5091120000000 1.0
C      1  0.4819800000000  0.4281920000000  0.4539590000000 1.0
C      1  0.4499580000000  0.4871070000000  0.4698870000000 1.0
C      1  0.4995380000000  0.4876010000000  0.5634890000000 1.0
C      1  0.5534480000000  0.4881170000000  0.4689680000000 1.0
C      1  0.4980410000000  0.5736250000000  0.4705490000000 1.0
C      1  0.4782550000000  0.5613150000000  0.5171040000000 1.0
C      1  0.5244120000000  0.5639200000000  0.5105960000000 1.0
C      1  0.5275970000000  0.4950850000000  0.5684680000000 1.0
C      1  0.5445570000000  0.4958850000000  0.4430100000000 1.0
C      1  0.4303160000000  0.4958710000000  0.4907770000000 1.0
C      1  0.4971820000000  0.4563800000000  0.4621330000000 1.0
C      1  0.4631670000000  0.4521250000000  0.5210900000000 1.0
C      1  0.5348290000000  0.4550560000000  0.5204490000000 1.0
C      1  0.4958740000000  0.4244230000000  0.5267810000000 1.0
C      1  0.5243820000000  0.4246640000000  0.4896260000000 1.0
C      1  0.4774190000000  0.4208920000000  0.4824020000000 1.0
C      1  0.4517470000000  0.5640740000000  0.5045330000000 1.0
C      1  0.5247530000000  0.5645440000000  0.5418050000000 1.0
C      1  0.5223670000000  0.5653520000000  0.4554160000000 1.0
C      1  0.4581240000000  0.4719930000000  0.4300750000000 1.0
C      1  0.4588370000000  0.4713750000000  0.5746740000000 1.0
C      1  0.5836750000000  0.4715180000000  0.4987670000000 1.0
C      1  0.5549170000000  0.4599640000000  0.5416180000000 1.0
C      1  0.5075050000000  0.4592100000000  0.4327670000000 1.0
C      1  0.4349180000000  0.4592060000000  0.5284420000000 1.0
C      1  0.5179260000000  0.5339440000000  0.4933620000000 1.0
C      1  0.4907470000000  0.5262260000000  0.4841580000000 1.0
C      1  0.4879760000000  0.5273180000000  0.5248640000000 1.0
C      1  0.4971300000000  0.4994410000000  0.4775980000000 1.0
C      1  0.4925680000000  0.4994510000000  0.5182070000000 1.0
C      1  0.5152960000000  0.4971540000000  0.4988580000000 1.0
C      1  0.4808770000000  0.4557290000000  0.4244140000000 1.0
C      1  0.4415330000000  0.4615480000000  0.5556490000000 1.0
C      1  0.5752250000000  0.4622140000000  0.5227100000000 1.0
C      1  0.5172490000000  0.5040600000000  0.4143330000000 1.0
C      1  0.4196440000000  0.5057680000000  0.5283260000000 1.0
C      1  0.5646760000000  0.5053890000000  0.5560100000000 1.0
C      1  0.4990940000000  0.5737430000000  0.4994290000000 1.0
C      1  0.4996260000000  0.4168870000000  0.4993360000000 1.0
END
