TITL C-2441168-9922-311 0.13158470144741 125000 -25144.9638087691 0 0 192 (C1) n - 1
REM
REM in /home/bkarasulu/work/CARBON/AIRSS/Generating-Clusters/ReaxFF-fromJPCA2015/Units_Real/with-SteepDescent/Higher-Symm
REM
REM
REM
REM
REM
REM ./C.cell (1df0a924f5614ab8850e4351716899ee)
REM
REM compiler GCC version 9.2.1 20190827 (Red Hat 9.2.1-1)
REM options -cpp -mtune=generic -march=x86-64 -g -O0 -fpre-include=/usr/include/finclude/math-vector-fortran.h
REM seed 959118512 -1573308777 995980818 2041608038 -1522937348 613461102 961800753 1548124844 -385197120 -912758140 -149657351 -1560952115 -1137137538 -489367277 -1826817198 1515569473 230566379 1700005080 -65780801 -900129307 -1070463448 -909850201 1260622711 1037790686 -1974938461 1310619670 -1973279900 -1449069789 1110394685 1101444391 -1863979864 1588524089 -590632830
REM
CELL 1.54180   50.00000   50.00000   50.00000   90.00000   90.00000   90.00000
LATT -1
SFAC C  
C      1  0.4050200000000  0.5088350000000  0.5667710000000 1.0
C      1  0.5430370000000  0.4166250000000  0.5626810000000 1.0
C      1  0.5575280000000  0.5785410000000  0.5780660000000 1.0
C      1  0.4039880000000  0.5096500000000  0.4385660000000 1.0
C      1  0.5404510000000  0.4140500000000  0.4378130000000 1.0
C      1  0.5490850000000  0.5756320000000  0.4128500000000 1.0
C      1  0.4534830000000  0.4668200000000  0.4754470000000 1.0
C      1  0.5542770000000  0.4783170000000  0.4736620000000 1.0
C      1  0.4837270000000  0.5565210000000  0.4789280000000 1.0
C      1  0.4549750000000  0.4620770000000  0.5243830000000 1.0
C      1  0.5585340000000  0.4878650000000  0.5254450000000 1.0
C      1  0.4984820000000  0.5505170000000  0.5234930000000 1.0
C      1  0.4490850000000  0.5678890000000  0.4160860000000 1.0
C      1  0.4719880000000  0.4351630000000  0.4137210000000 1.0
C      1  0.5719700000000  0.5211630000000  0.4104190000000 1.0
C      1  0.4480060000000  0.5687360000000  0.5685530000000 1.0
C      1  0.4699310000000  0.4302200000000  0.5889680000000 1.0
C      1  0.5736190000000  0.5231700000000  0.5900480000000 1.0
C      1  0.5510100000000  0.4947730000000  0.4485380000000 1.0
C      1  0.4877840000000  0.5575900000000  0.4490000000000 1.0
C      1  0.4548780000000  0.4603130000000  0.4458310000000 1.0
C      1  0.5575710000000  0.4916620000000  0.5535570000000 1.0
C      1  0.4904570000000  0.5550820000000  0.5513450000000 1.0
C      1  0.4568920000000  0.4576460000000  0.5531550000000 1.0
C      1  0.5836140000000  0.4492930000000  0.4457400000000 1.0
C      1  0.5066260000000  0.5999440000000  0.4434360000000 1.0
C      1  0.4075010000000  0.4526160000000  0.4410460000000 1.0
C      1  0.5863480000000  0.4507410000000  0.5564940000000 1.0
C      1  0.5075450000000  0.6001110000000  0.5536490000000 1.0
C      1  0.4098590000000  0.4558790000000  0.5578930000000 1.0
C      1  0.5486030000000  0.6010290000000  0.4821150000000 1.0
C      1  0.3900480000000  0.4869630000000  0.4851830000000 1.0
C      1  0.5623170000000  0.4081230000000  0.4870880000000 1.0
C      1  0.5482810000000  0.6022300000000  0.5113470000000 1.0
C      1  0.3860640000000  0.4847650000000  0.5151400000000 1.0
C      1  0.5599410000000  0.4102120000000  0.5160950000000 1.0
C      1  0.4477250000000  0.4823880000000  0.5678970000000 1.0
C      1  0.5500830000000  0.4557710000000  0.5876690000000 1.0
C      1  0.5168370000000  0.5553840000000  0.5672670000000 1.0
C      1  0.4410320000000  0.4814510000000  0.4303340000000 1.0
C      1  0.5458960000000  0.4556090000000  0.4146530000000 1.0
C      1  0.5175700000000  0.5568030000000  0.4333080000000 1.0
C      1  0.5604040000000  0.5817080000000  0.4629010000000 1.0
C      1  0.3955470000000  0.5098850000000  0.4676680000000 1.0
C      1  0.5412280000000  0.4027040000000  0.4660380000000 1.0
C      1  0.5538870000000  0.5841790000000  0.5328110000000 1.0
C      1  0.3948940000000  0.5057080000000  0.5333660000000 1.0
C      1  0.5375540000000  0.4015010000000  0.5376460000000 1.0
C      1  0.4913140000000  0.4130030000000  0.5127870000000 1.0
C      1  0.5917900000000  0.5499710000000  0.5128700000000 1.0
C      1  0.4308600000000  0.5519380000000  0.5124390000000 1.0
C      1  0.4941030000000  0.4023020000000  0.4870550000000 1.0
C      1  0.5803430000000  0.5387910000000  0.4886940000000 1.0
C      1  0.4155130000000  0.5542030000000  0.4878410000000 1.0
C      1  0.5318210000000  0.5045080000000  0.5569620000000 1.0
C      1  0.4831920000000  0.5010410000000  0.5365020000000 1.0
C      1  0.4970210000000  0.4795800000000  0.5526570000000 1.0
C      1  0.5273510000000  0.5107270000000  0.4503390000000 1.0
C      1  0.4725320000000  0.5104520000000  0.4483850000000 1.0
C      1  0.5019800000000  0.4654130000000  0.4441510000000 1.0
C      1  0.5768790000000  0.4345070000000  0.5155580000000 1.0
C      1  0.5179250000000  0.5993120000000  0.5093870000000 1.0
C      1  0.3992650000000  0.4579230000000  0.5141670000000 1.0
C      1  0.5817890000000  0.4309820000000  0.4875200000000 1.0
C      1  0.5204760000000  0.6093090000000  0.4813310000000 1.0
C      1  0.4035620000000  0.4607580000000  0.4856820000000 1.0
C      1  0.4614110000000  0.5475070000000  0.5535140000000 1.0
C      1  0.4755560000000  0.4369660000000  0.5623090000000 1.0
C      1  0.5708330000000  0.5154580000000  0.5619600000000 1.0
C      1  0.4623530000000  0.5492070000000  0.4349100000000 1.0
C      1  0.4816930000000  0.4466230000000  0.4403260000000 1.0
C      1  0.5711520000000  0.5141030000000  0.4391150000000 1.0
C      1  0.5197020000000  0.5308860000000  0.4715270000000 1.0
C      1  0.4517840000000  0.5107300000000  0.4702700000000 1.0
C      1  0.5157830000000  0.4558760000000  0.4676540000000 1.0
C      1  0.5267530000000  0.5222290000000  0.5351590000000 1.0
C      1  0.4529260000000  0.5092650000000  0.5321320000000 1.0
C      1  0.5204770000000  0.4605880000000  0.5276560000000 1.0
C      1  0.5853420000000  0.4922000000000  0.4834810000000 1.0
C      1  0.4614400000000  0.5687380000000  0.4916360000000 1.0
C      1  0.4513410000000  0.4387720000000  0.4854730000000 1.0
C      1  0.5785790000000  0.5013260000000  0.5117810000000 1.0
C      1  0.4566670000000  0.5846460000000  0.5192720000000 1.0
C      1  0.4506980000000  0.4373170000000  0.5123960000000 1.0
C      1  0.5822420000000  0.5624800000000  0.4559310000000 1.0
C      1  0.4157820000000  0.5500290000000  0.4473660000000 1.0
C      1  0.5041010000000  0.3968700000000  0.4482430000000 1.0
C      1  0.5925270000000  0.5480210000000  0.5526400000000 1.0
C      1  0.4133110000000  0.5376610000000  0.5496740000000 1.0
C      1  0.5081540000000  0.3998190000000  0.5473130000000 1.0
C      1  0.4752590000000  0.5059720000000  0.4198210000000 1.0
C      1  0.5006940000000  0.4824510000000  0.4217210000000 1.0
C      1  0.5168300000000  0.5056160000000  0.4246450000000 1.0
C      1  0.4681190000000  0.4967580000000  0.5829580000000 1.0
C      1  0.5046640000000  0.4755510000000  0.5843840000000 1.0
C      1  0.5158800000000  0.5034650000000  0.5803700000000 1.0
C      1  0.4971190000000  0.6103530000000  0.5287470000000 1.0
C      1  0.4090180000000  0.4392280000000  0.5338460000000 1.0
C      1  0.5957750000000  0.4521120000000  0.5289240000000 1.0
C      1  0.4952060000000  0.6102620000000  0.4675430000000 1.0
C      1  0.4082710000000  0.4391370000000  0.4665000000000 1.0
C      1  0.5964480000000  0.4499410000000  0.4725040000000 1.0
C      1  0.5005590000000  0.4229780000000  0.4393610000000 1.0
C      1  0.5651410000000  0.5418360000000  0.4463120000000 1.0
C      1  0.4393210000000  0.5331090000000  0.4445100000000 1.0
C      1  0.5012690000000  0.4254410000000  0.5582190000000 1.0
C      1  0.5639240000000  0.5435810000000  0.5550490000000 1.0
C      1  0.4405260000000  0.5267020000000  0.5566930000000 1.0
C      1  0.4727070000000  0.5712020000000  0.5852610000000 1.0
C      1  0.4430950000000  0.4405690000000  0.5946220000000 1.0
C      1  0.5646500000000  0.4791040000000  0.5938230000000 1.0
C      1  0.4771060000000  0.5753900000000  0.4065880000000 1.0
C      1  0.4451590000000  0.4414400000000  0.4072590000000 1.0
C      1  0.5627760000000  0.4801370000000  0.4090670000000 1.0
C      1  0.5809480000000  0.4753420000000  0.5705240000000 1.0
C      1  0.4846270000000  0.5875780000000  0.5642110000000 1.0
C      1  0.4326600000000  0.4416830000000  0.5679930000000 1.0
C      1  0.5804800000000  0.4726570000000  0.4302270000000 1.0
C      1  0.4851160000000  0.5837040000000  0.4336000000000 1.0
C      1  0.4333180000000  0.4409180000000  0.4333780000000 1.0
C      1  0.4954190000000  0.4582160000000  0.4882140000000 1.0
C      1  0.5399030000000  0.5173590000000  0.4889980000000 1.0
C      1  0.4674590000000  0.5195520000000  0.4932590000000 1.0
C      1  0.4937580000000  0.4564730000000  0.5165140000000 1.0
C      1  0.5449410000000  0.5277350000000  0.5146410000000 1.0
C      1  0.4538510000000  0.5339210000000  0.5155470000000 1.0
C      1  0.4532000000000  0.4035370000000  0.5342870000000 1.0
C      1  0.6027330000000  0.5017280000000  0.5273190000000 1.0
C      1  0.4393060000000  0.5811200000000  0.5425990000000 1.0
C      1  0.4527350000000  0.4052710000000  0.4627460000000 1.0
C      1  0.6033350000000  0.5114950000000  0.4700590000000 1.0
C      1  0.4497440000000  0.5869210000000  0.4722610000000 1.0
C      1  0.5334250000000  0.4841650000000  0.5158690000000 1.0
C      1  0.4999170000000  0.5216960000000  0.5215650000000 1.0
C      1  0.4764420000000  0.4785060000000  0.5157630000000 1.0
C      1  0.5332090000000  0.4908000000000  0.4896420000000 1.0
C      1  0.4931490000000  0.5310940000000  0.4881700000000 1.0
C      1  0.4792510000000  0.4820330000000  0.4855200000000 1.0
C      1  0.5228250000000  0.4526520000000  0.5914660000000 1.0
C      1  0.5148930000000  0.5434780000000  0.5937180000000 1.0
C      1  0.4473100000000  0.5083940000000  0.5999540000000 1.0
C      1  0.5205800000000  0.4475420000000  0.4022940000000 1.0
C      1  0.5170950000000  0.5450680000000  0.4062350000000 1.0
C      1  0.4475130000000  0.5023500000000  0.4124330000000 1.0
C      1  0.5612210000000  0.5505460000000  0.5849380000000 1.0
C      1  0.4262450000000  0.5197330000000  0.5842750000000 1.0
C      1  0.5209670000000  0.4277300000000  0.5780970000000 1.0
C      1  0.5601900000000  0.5483640000000  0.4178870000000 1.0
C      1  0.4260490000000  0.5201020000000  0.4224730000000 1.0
C      1  0.5199930000000  0.4236400000000  0.4191410000000 1.0
C      1  0.4374000000000  0.4890790000000  0.4837820000000 1.0
C      1  0.5409380000000  0.4522710000000  0.4820670000000 1.0
C      1  0.5290980000000  0.5558510000000  0.4851530000000 1.0
C      1  0.4344070000000  0.4938960000000  0.5120130000000 1.0
C      1  0.5352830000000  0.4435690000000  0.5090350000000 1.0
C      1  0.5140230000000  0.5666550000000  0.5065310000000 1.0
C      1  0.4198910000000  0.4836420000000  0.5630030000000 1.0
C      1  0.5617700000000  0.4385790000000  0.5674160000000 1.0
C      1  0.5329120000000  0.5797660000000  0.5575960000000 1.0
C      1  0.4127450000000  0.4812720000000  0.4349080000000 1.0
C      1  0.5580920000000  0.4373510000000  0.4337040000000 1.0
C      1  0.5335950000000  0.5807170000000  0.4398340000000 1.0
C      1  0.6008480000000  0.5395830000000  0.4671540000000 1.0
C      1  0.4230600000000  0.5713680000000  0.4645470000000 1.0
C      1  0.4786350000000  0.3929100000000  0.4619240000000 1.0
C      1  0.6052920000000  0.5318610000000  0.5331020000000 1.0
C      1  0.4171110000000  0.5627540000000  0.5361070000000 1.0
C      1  0.4807810000000  0.3955140000000  0.5335430000000 1.0
C      1  0.4725680000000  0.6074260000000  0.5120900000000 1.0
C      1  0.4313530000000  0.4191390000000  0.5261590000000 1.0
C      1  0.6097810000000  0.4750010000000  0.5158740000000 1.0
C      1  0.4681240000000  0.6082810000000  0.4817590000000 1.0
C      1  0.4317320000000  0.4202950000000  0.4734490000000 1.0
C      1  0.6065790000000  0.4739010000000  0.4863080000000 1.0
C      1  0.5269230000000  0.5172260000000  0.4001180000000 1.0
C      1  0.4796390000000  0.5260040000000  0.4041110000000 1.0
C      1  0.4975920000000  0.4648620000000  0.3966240000000 1.0
C      1  0.5284060000000  0.5174440000000  0.6021900000000 1.0
C      1  0.4739760000000  0.5191860000000  0.6009250000000 1.0
C      1  0.4805100000000  0.4784210000000  0.6006840000000 1.0
C      1  0.4713540000000  0.4539260000000  0.3924320000000 1.0
C      1  0.5531910000000  0.5054190000000  0.3955520000000 1.0
C      1  0.4895590000000  0.5497260000000  0.3960440000000 1.0
C      1  0.4672860000000  0.4533530000000  0.6064240000000 1.0
C      1  0.5551740000000  0.5054130000000  0.6037630000000 1.0
C      1  0.4855180000000  0.5454540000000  0.5956560000000 1.0
C      1  0.5211580000000  0.4055480000000  0.4860140000000 1.0
C      1  0.5584200000000  0.5592440000000  0.4882500000000 1.0
C      1  0.4055740000000  0.5274500000000  0.4879360000000 1.0
C      1  0.5211620000000  0.4181010000000  0.5121510000000 1.0
C      1  0.5680820000000  0.5661090000000  0.5159870000000 1.0
C      1  0.4136330000000  0.5151040000000  0.5133580000000 1.0
END
