TITL C-2441156-4686-432 0.0444998807166511 125000 -27494.8348798293 0 0 189 (C1) n - 1
REM
REM in /home/bkarasulu/work/CARBON/AIRSS/Generating-Clusters/ReaxFF-fromJPCA2015/Units_Real/with-SteepDescent/Higher-Symm
REM
REM
REM
REM
REM
REM ./C.cell (1df0a924f5614ab8850e4351716899ee)
REM
REM compiler GCC version 9.2.1 20190827 (Red Hat 9.2.1-1)
REM options -cpp -mtune=generic -march=x86-64 -g -O0 -fpre-include=/usr/include/finclude/math-vector-fortran.h
REM seed -304177217 1431278623 1481294889 -551670969 1882294974 -821427087 -802512010 -1041229786 -1800077863 1469139115 1155609710 -499512693 -1441687304 -599652162 -1797148250 110827259 1598781057 -1213851289 1619384131 -2064236239 62548451 48401916 -21947575 2125852323 275703741 -1061974528 -919775427 -1160089659 331930960 932347661 -996078437 -148336327 -2018875479
REM
CELL 1.54180   50.00000   50.00000   50.00000   90.00000   90.00000   90.00000
LATT -1
SFAC C  
C      1  0.5804340000000  0.4098930000000  0.4995010000000 1.0
C      1  0.5813290000000  0.4221930000000  0.4532990000000 1.0
C      1  0.5764630000000  0.4616790000000  0.4192850000000 1.0
C      1  0.5813110000000  0.5136390000000  0.4095980000000 1.0
C      1  0.5800370000000  0.5551030000000  0.4315030000000 1.0
C      1  0.5770490000000  0.5841400000000  0.4715700000000 1.0
C      1  0.5818930000000  0.5859630000000  0.5226410000000 1.0
C      1  0.5799130000000  0.5581840000000  0.5661270000000 1.0
C      1  0.5774940000000  0.5100620000000  0.5871360000000 1.0
C      1  0.5782530000000  0.4632140000000  0.5807780000000 1.0
C      1  0.5743540000000  0.4256970000000  0.5487100000000 1.0
C      1  0.4776630000000  0.4176890000000  0.4182040000000 1.0
C      1  0.4775600000000  0.4814650000000  0.3914170000000 1.0
C      1  0.4767670000000  0.5372280000000  0.4019110000000 1.0
C      1  0.4785280000000  0.5889430000000  0.4342470000000 1.0
C      1  0.4754590000000  0.6067380000000  0.4958490000000 1.0
C      1  0.4765400000000  0.5932930000000  0.5529500000000 1.0
C      1  0.4779790000000  0.5534120000000  0.5972520000000 1.0
C      1  0.4769280000000  0.4905930000000  0.6163250000000 1.0
C      1  0.4772900000000  0.4302510000000  0.5888610000000 1.0
C      1  0.4748190000000  0.3944850000000  0.5334450000000 1.0
C      1  0.4790950000000  0.3922720000000  0.4744320000000 1.0
C      1  0.5179910000000  0.3893720000000  0.5125720000000 1.0
C      1  0.5130240000000  0.4162890000000  0.4473570000000 1.0
C      1  0.5097880000000  0.4550030000000  0.4057810000000 1.0
C      1  0.5138400000000  0.5085930000000  0.3982360000000 1.0
C      1  0.5170640000000  0.5603630000000  0.4065190000000 1.0
C      1  0.5106950000000  0.5978610000000  0.4747780000000 1.0
C      1  0.5169580000000  0.6035080000000  0.5256020000000 1.0
C      1  0.5160950000000  0.5835630000000  0.5732650000000 1.0
C      1  0.5100200000000  0.5171380000000  0.5992820000000 1.0
C      1  0.5109660000000  0.4611940000000  0.5983220000000 1.0
C      1  0.5085860000000  0.4116170000000  0.5591410000000 1.0
C      1  0.5553830000000  0.5126550000000  0.4634960000000 1.0
C      1  0.5673400000000  0.5373880000000  0.4732840000000 1.0
C      1  0.5682740000000  0.5483680000000  0.4998760000000 1.0
C      1  0.5684410000000  0.5395530000000  0.5262040000000 1.0
C      1  0.5638170000000  0.5178330000000  0.5414140000000 1.0
C      1  0.5532870000000  0.4920320000000  0.5355010000000 1.0
C      1  0.5700950000000  0.4684930000000  0.5350510000000 1.0
C      1  0.5659540000000  0.4535140000000  0.5116980000000 1.0
C      1  0.5551910000000  0.4647090000000  0.4873290000000 1.0
C      1  0.5718360000000  0.4688810000000  0.4642680000000 1.0
C      1  0.5712390000000  0.4929160000000  0.4520890000000 1.0
C      1  0.4338610000000  0.4592360000000  0.5826560000000 1.0
C      1  0.4323160000000  0.4155740000000  0.5509770000000 1.0
C      1  0.4291430000000  0.4047870000000  0.4964310000000 1.0
C      1  0.4337230000000  0.4226380000000  0.4479230000000 1.0
C      1  0.4324620000000  0.4634740000000  0.4123380000000 1.0
C      1  0.4295020000000  0.5145810000000  0.4078390000000 1.0
C      1  0.4292960000000  0.5625570000000  0.4305910000000 1.0
C      1  0.4334000000000  0.5868380000000  0.4750950000000 1.0
C      1  0.4294330000000  0.5879160000000  0.5295390000000 1.0
C      1  0.4298320000000  0.5611630000000  0.5748670000000 1.0
C      1  0.4326520000000  0.5109040000000  0.5947870000000 1.0
C      1  0.4586010000000  0.4048990000000  0.5552080000000 1.0
C      1  0.4581790000000  0.3982740000000  0.4960320000000 1.0
C      1  0.4620900000000  0.4160130000000  0.4438530000000 1.0
C      1  0.4596370000000  0.4619140000000  0.4021430000000 1.0
C      1  0.4586020000000  0.5150310000000  0.4046790000000 1.0
C      1  0.4582130000000  0.5675560000000  0.4266430000000 1.0
C      1  0.4609900000000  0.5965170000000  0.4720440000000 1.0
C      1  0.4577240000000  0.5950440000000  0.5308220000000 1.0
C      1  0.4584260000000  0.5645760000000  0.5780970000000 1.0
C      1  0.4603620000000  0.5115330000000  0.6034970000000 1.0
C      1  0.4605230000000  0.4531400000000  0.5917600000000 1.0
C      1  0.5516510000000  0.5575740000000  0.4281570000000 1.0
C      1  0.5505180000000  0.5913360000000  0.4721990000000 1.0
C      1  0.5555160000000  0.5914630000000  0.5246790000000 1.0
C      1  0.5534760000000  0.5579260000000  0.5661220000000 1.0
C      1  0.5492800000000  0.5117750000000  0.5870880000000 1.0
C      1  0.5499920000000  0.4634520000000  0.5855190000000 1.0
C      1  0.5469650000000  0.4233160000000  0.5497430000000 1.0
C      1  0.5524570000000  0.4113090000000  0.4992620000000 1.0
C      1  0.5533790000000  0.4217600000000  0.4520660000000 1.0
C      1  0.5486140000000  0.4604710000000  0.4181720000000 1.0
C      1  0.5528380000000  0.5135540000000  0.4082040000000 1.0
C      1  0.4699580000000  0.4468140000000  0.5116030000000 1.0
C      1  0.4858260000000  0.4479620000000  0.4828090000000 1.0
C      1  0.4767280000000  0.4715270000000  0.4663010000000 1.0
C      1  0.4879210000000  0.4914200000000  0.4476960000000 1.0
C      1  0.4757520000000  0.5254550000000  0.4539050000000 1.0
C      1  0.4874500000000  0.5483530000000  0.4719970000000 1.0
C      1  0.4774300000000  0.5536050000000  0.5032060000000 1.0
C      1  0.4852580000000  0.5431570000000  0.5368020000000 1.0
C      1  0.4747370000000  0.5192020000000  0.5525540000000 1.0
C      1  0.4866790000000  0.4946620000000  0.5396430000000 1.0
C      1  0.4853310000000  0.4662250000000  0.5295240000000 1.0
C      1  0.6136850000000  0.5318980000000  0.4773870000000 1.0
C      1  0.6115280000000  0.5479860000000  0.4994610000000 1.0
C      1  0.6122070000000  0.5437520000000  0.5280710000000 1.0
C      1  0.6104370000000  0.5226230000000  0.5471170000000 1.0
C      1  0.6094930000000  0.4934410000000  0.5510840000000 1.0
C      1  0.6129530000000  0.4735860000000  0.5305160000000 1.0
C      1  0.6111830000000  0.4515250000000  0.5143900000000 1.0
C      1  0.6119300000000  0.4461690000000  0.4855640000000 1.0
C      1  0.6135000000000  0.4649690000000  0.4629880000000 1.0
C      1  0.6148140000000  0.4923300000000  0.4600400000000 1.0
C      1  0.6123720000000  0.5196050000000  0.4518780000000 1.0
C      1  0.4200280000000  0.4107700000000  0.5242650000000 1.0
C      1  0.4196860000000  0.4199020000000  0.4730480000000 1.0
C      1  0.4209240000000  0.4461140000000  0.4339040000000 1.0
C      1  0.4192510000000  0.4889100000000  0.4151440000000 1.0
C      1  0.4168760000000  0.5360320000000  0.4247630000000 1.0
C      1  0.4193960000000  0.5693260000000  0.4567320000000 1.0
C      1  0.4188370000000  0.5815170000000  0.5016170000000 1.0
C      1  0.4182320000000  0.5707030000000  0.5496020000000 1.0
C      1  0.4188500000000  0.5345980000000  0.5819670000000 1.0
C      1  0.4215950000000  0.4861620000000  0.5846930000000 1.0
C      1  0.4218130000000  0.4394990000000  0.5645610000000 1.0
C      1  0.4804580000000  0.4193310000000  0.5646530000000 1.0
C      1  0.4718690000000  0.4167810000000  0.5139700000000 1.0
C      1  0.4845590000000  0.4204460000000  0.4628770000000 1.0
C      1  0.4810470000000  0.4465350000000  0.4122310000000 1.0
C      1  0.4783690000000  0.4970720000000  0.4154420000000 1.0
C      1  0.4745130000000  0.5436660000000  0.4300830000000 1.0
C      1  0.4858650000000  0.5818050000000  0.4634980000000 1.0
C      1  0.4743400000000  0.5821980000000  0.5108470000000 1.0
C      1  0.4744260000000  0.5646180000000  0.5539480000000 1.0
C      1  0.4809030000000  0.5246270000000  0.5870030000000 1.0
C      1  0.4818930000000  0.4693650000000  0.5980660000000 1.0
C      1  0.5266670000000  0.5512530000000  0.5157170000000 1.0
C      1  0.5151920000000  0.5373240000000  0.5388110000000 1.0
C      1  0.5140250000000  0.5048920000000  0.5458300000000 1.0
C      1  0.5278640000000  0.4808900000000  0.5430440000000 1.0
C      1  0.5133130000000  0.4576740000000  0.5264040000000 1.0
C      1  0.5133820000000  0.4471350000000  0.4963600000000 1.0
C      1  0.5285930000000  0.4617480000000  0.4772160000000 1.0
C      1  0.5160780000000  0.4841770000000  0.4541130000000 1.0
C      1  0.5290600000000  0.5116400000000  0.4548450000000 1.0
C      1  0.5151380000000  0.5405080000000  0.4640750000000 1.0
C      1  0.5263370000000  0.5518570000000  0.4884820000000 1.0
C      1  0.5871400000000  0.5717500000000  0.4975750000000 1.0
C      1  0.5905210000000  0.5630450000000  0.5389430000000 1.0
C      1  0.5865920000000  0.5291730000000  0.5644810000000 1.0
C      1  0.5925900000000  0.4882140000000  0.5755440000000 1.0
C      1  0.5796640000000  0.4522670000000  0.5555900000000 1.0
C      1  0.5855980000000  0.4314340000000  0.5203140000000 1.0
C      1  0.5963950000000  0.4222350000000  0.4784460000000 1.0
C      1  0.5885710000000  0.4512410000000  0.4462980000000 1.0
C      1  0.5827060000000  0.4891390000000  0.4260840000000 1.0
C      1  0.5952960000000  0.5306620000000  0.4286920000000 1.0
C      1  0.5793900000000  0.5590050000000  0.4588610000000 1.0
C      1  0.5270950000000  0.4159020000000  0.4989920000000 1.0
C      1  0.5330810000000  0.4348230000000  0.4585560000000 1.0
C      1  0.5257330000000  0.4663990000000  0.4280800000000 1.0
C      1  0.5322650000000  0.5119440000000  0.4217480000000 1.0
C      1  0.5272510000000  0.5561960000000  0.4356290000000 1.0
C      1  0.5300360000000  0.5801530000000  0.4779580000000 1.0
C      1  0.5335940000000  0.5807830000000  0.5231300000000 1.0
C      1  0.5279420000000  0.5559230000000  0.5642070000000 1.0
C      1  0.5264670000000  0.5117120000000  0.5759270000000 1.0
C      1  0.5294390000000  0.4680890000000  0.5745880000000 1.0
C      1  0.5243470000000  0.4324220000000  0.5439720000000 1.0
C      1  0.4270040000000  0.4712190000000  0.5320310000000 1.0
C      1  0.4377630000000  0.4554220000000  0.5105020000000 1.0
C      1  0.4311300000000  0.4623440000000  0.4854390000000 1.0
C      1  0.4486920000000  0.4739970000000  0.4669150000000 1.0
C      1  0.4378870000000  0.4955670000000  0.4543740000000 1.0
C      1  0.4490700000000  0.5190380000000  0.4592190000000 1.0
C      1  0.4362240000000  0.5301050000000  0.4810470000000 1.0
C      1  0.4487020000000  0.5470850000000  0.5025130000000 1.0
C      1  0.4354080000000  0.5385510000000  0.5271310000000 1.0
C      1  0.4479170000000  0.5174440000000  0.5416530000000 1.0
C      1  0.4298370000000  0.4953360000000  0.5448240000000 1.0
C      1  0.4069420000000  0.4994450000000  0.5625560000000 1.0
C      1  0.4081270000000  0.4513850000000  0.5417830000000 1.0
C      1  0.4108090000000  0.4369680000000  0.5166120000000 1.0
C      1  0.4076250000000  0.4476800000000  0.4762640000000 1.0
C      1  0.4045780000000  0.4618180000000  0.4510260000000 1.0
C      1  0.4109430000000  0.4927860000000  0.4449450000000 1.0
C      1  0.4035380000000  0.5249490000000  0.4473350000000 1.0
C      1  0.4079030000000  0.5437590000000  0.4690470000000 1.0
C      1  0.4006180000000  0.5590360000000  0.5008290000000 1.0
C      1  0.4079120000000  0.5460550000000  0.5358390000000 1.0
C      1  0.4019950000000  0.5279160000000  0.5597090000000 1.0
C      1  0.5060200000000  0.4159760000000  0.4198610000000 1.0
C      1  0.5061400000000  0.4798680000000  0.3897900000000 1.0
C      1  0.5042430000000  0.5362530000000  0.3937490000000 1.0
C      1  0.4979910000000  0.5789710000000  0.4167510000000 1.0
C      1  0.5038980000000  0.6099060000000  0.4998560000000 1.0
C      1  0.5043470000000  0.6005720000000  0.5520240000000 1.0
C      1  0.4999990000000  0.5691860000000  0.5905460000000 1.0
C      1  0.5046310000000  0.4959930000000  0.6175620000000 1.0
C      1  0.5046410000000  0.4338310000000  0.5927210000000 1.0
C      1  0.5034330000000  0.3913510000000  0.5383960000000 1.0
C      1  0.5007480000000  0.3858190000000  0.4907610000000 1.0
C      1  0.4440250000000  0.5051500000000  0.5019370000000 1.0
C      1  0.4690450000000  0.4969310000000  0.5099430000000 1.0
END
