TITL C-2441166-8118-1268 0.109048544621707 125000 -18505.8614503342 0 0 144 (C1) n - 1
REM
REM in /home/bkarasulu/work/CARBON/AIRSS/Generating-Clusters/ReaxFF-fromJPCA2015/Units_Real/with-SteepDescent/Higher-Symm
REM
REM
REM
REM
REM
REM ./C.cell (1df0a924f5614ab8850e4351716899ee)
REM
REM compiler GCC version 9.2.1 20190827 (Red Hat 9.2.1-1)
REM options -cpp -mtune=generic -march=x86-64 -g -O0 -fpre-include=/usr/include/finclude/math-vector-fortran.h
REM seed -1367765622 -1610481292 1853609646 851033634 1292165229 198807116 1170742296 -606518389 157899538 931568849 -1084590488 -1264793342 1784545384 -1624173378 -601164761 -1440809989 791009992 57119496 535034100 -2129277054 -199397898 -1866226151 1071836082 2075541462 -2004416535 -1303072997 -1823643922 -1508661758 -1053283707 -658729187 1889097035 1382917767 1881806323
REM
CELL 1.54180   50.00000   50.00000   50.00000   90.00000   90.00000   90.00000
LATT -1
SFAC C  
C      1  0.6046120000000  0.4856170000000  0.4832390000000 1.0
C      1  0.3993990000000  0.5147280000000  0.4854460000000 1.0
C      1  0.6019310000000  0.5123320000000  0.4853580000000 1.0
C      1  0.4003170000000  0.4867730000000  0.4835280000000 1.0
C      1  0.4761950000000  0.4123880000000  0.4761040000000 1.0
C      1  0.5273300000000  0.5867430000000  0.4693000000000 1.0
C      1  0.4791110000000  0.5910090000000  0.4810920000000 1.0
C      1  0.5280610000000  0.4134820000000  0.4774360000000 1.0
C      1  0.5903410000000  0.4635900000000  0.4746470000000 1.0
C      1  0.4098840000000  0.5358030000000  0.4719770000000 1.0
C      1  0.5892640000000  0.5348320000000  0.4747770000000 1.0
C      1  0.4086540000000  0.4643980000000  0.4701340000000 1.0
C      1  0.5347380000000  0.4777080000000  0.5174140000000 1.0
C      1  0.4607400000000  0.5267750000000  0.5163660000000 1.0
C      1  0.5320470000000  0.5214050000000  0.5252920000000 1.0
C      1  0.4681210000000  0.4778300000000  0.5213540000000 1.0
C      1  0.5183610000000  0.5928880000000  0.5108820000000 1.0
C      1  0.4774460000000  0.4080940000000  0.5093820000000 1.0
C      1  0.5208950000000  0.4057910000000  0.5118000000000 1.0
C      1  0.4740480000000  0.5987920000000  0.5216240000000 1.0
C      1  0.5544640000000  0.4548940000000  0.5574970000000 1.0
C      1  0.4554520000000  0.5464110000000  0.5596630000000 1.0
C      1  0.5529010000000  0.5446230000000  0.5556910000000 1.0
C      1  0.4550520000000  0.4597880000000  0.5650550000000 1.0
C      1  0.4605750000000  0.4218210000000  0.5351850000000 1.0
C      1  0.5341260000000  0.5863700000000  0.5358770000000 1.0
C      1  0.4667450000000  0.5806560000000  0.5360040000000 1.0
C      1  0.5360260000000  0.4150610000000  0.5375940000000 1.0
C      1  0.4240060000000  0.5379180000000  0.4468440000000 1.0
C      1  0.5779500000000  0.4613200000000  0.4472880000000 1.0
C      1  0.4231010000000  0.4615700000000  0.4452670000000 1.0
C      1  0.5774800000000  0.5374760000000  0.4471950000000 1.0
C      1  0.4146220000000  0.5185260000000  0.5456170000000 1.0
C      1  0.5795470000000  0.4728500000000  0.5536320000000 1.0
C      1  0.4236760000000  0.4671440000000  0.5443760000000 1.0
C      1  0.5794270000000  0.5246890000000  0.5506840000000 1.0
C      1  0.5297580000000  0.4461100000000  0.5789220000000 1.0
C      1  0.4746550000000  0.5602190000000  0.5771140000000 1.0
C      1  0.5340600000000  0.5558280000000  0.5751670000000 1.0
C      1  0.4733750000000  0.4439130000000  0.5802590000000 1.0
C      1  0.5784200000000  0.5126870000000  0.4330960000000 1.0
C      1  0.4228270000000  0.4874770000000  0.4326240000000 1.0
C      1  0.5786950000000  0.4867660000000  0.4342400000000 1.0
C      1  0.4233180000000  0.5132990000000  0.4324540000000 1.0
C      1  0.4439070000000  0.4403550000000  0.4414930000000 1.0
C      1  0.5577110000000  0.5572040000000  0.4391150000000 1.0
C      1  0.4441210000000  0.5596590000000  0.4414600000000 1.0
C      1  0.5585330000000  0.4402350000000  0.4401560000000 1.0
C      1  0.4749940000000  0.5270940000000  0.4162550000000 1.0
C      1  0.5259200000000  0.4717040000000  0.4108670000000 1.0
C      1  0.4727750000000  0.4735560000000  0.4104620000000 1.0
C      1  0.5278310000000  0.5256430000000  0.4124330000000 1.0
C      1  0.5817560000000  0.5437050000000  0.5016560000000 1.0
C      1  0.4154600000000  0.4664090000000  0.4998430000000 1.0
C      1  0.5809510000000  0.4601320000000  0.5035400000000 1.0
C      1  0.4135920000000  0.5373890000000  0.5009210000000 1.0
C      1  0.5471200000000  0.4327780000000  0.4856570000000 1.0
C      1  0.4553820000000  0.5716980000000  0.4880040000000 1.0
C      1  0.5465180000000  0.5714200000000  0.4844280000000 1.0
C      1  0.4525640000000  0.4423140000000  0.4886580000000 1.0
C      1  0.4741600000000  0.5825020000000  0.5589240000000 1.0
C      1  0.5271570000000  0.4238450000000  0.5622930000000 1.0
C      1  0.4703330000000  0.4237180000000  0.5609550000000 1.0
C      1  0.5260000000000  0.5780730000000  0.5613190000000 1.0
C      1  0.4759620000000  0.4639170000000  0.4511250000000 1.0
C      1  0.5202960000000  0.5362590000000  0.4546750000000 1.0
C      1  0.4806250000000  0.5330240000000  0.4626030000000 1.0
C      1  0.5260420000000  0.4636750000000  0.4541410000000 1.0
C      1  0.4029100000000  0.5268180000000  0.5228780000000 1.0
C      1  0.5901530000000  0.4749090000000  0.5275170000000 1.0
C      1  0.3997980000000  0.4621060000000  0.5295740000000 1.0
C      1  0.5916900000000  0.5270330000000  0.5225380000000 1.0
C      1  0.4708460000000  0.4638520000000  0.4964620000000 1.0
C      1  0.5198920000000  0.5230960000000  0.5023920000000 1.0
C      1  0.4815450000000  0.5287100000000  0.4995220000000 1.0
C      1  0.5189930000000  0.4715380000000  0.4947730000000 1.0
C      1  0.5597330000000  0.5594650000000  0.5062480000000 1.0
C      1  0.4309500000000  0.4422990000000  0.5040280000000 1.0
C      1  0.5617350000000  0.4408850000000  0.5077650000000 1.0
C      1  0.4435110000000  0.5504250000000  0.5093010000000 1.0
C      1  0.5521820000000  0.5785640000000  0.4575540000000 1.0
C      1  0.4528910000000  0.4261650000000  0.4658530000000 1.0
C      1  0.5523220000000  0.4218910000000  0.4616360000000 1.0
C      1  0.4469830000000  0.5773060000000  0.4629910000000 1.0
C      1  0.5553110000000  0.4358750000000  0.5348800000000 1.0
C      1  0.4455780000000  0.5619010000000  0.5371080000000 1.0
C      1  0.5529870000000  0.5636010000000  0.5334530000000 1.0
C      1  0.4390940000000  0.4402610000000  0.5313370000000 1.0
C      1  0.4697270000000  0.5226800000000  0.5471120000000 1.0
C      1  0.5296920000000  0.4731860000000  0.5452660000000 1.0
C      1  0.4755610000000  0.4691310000000  0.5468290000000 1.0
C      1  0.5224110000000  0.5187560000000  0.5507800000000 1.0
C      1  0.4695690000000  0.5457610000000  0.4377240000000 1.0
C      1  0.5333360000000  0.4499540000000  0.4290130000000 1.0
C      1  0.4666630000000  0.4509210000000  0.4271130000000 1.0
C      1  0.5334280000000  0.5454890000000  0.4320720000000 1.0
C      1  0.4654080000000  0.4996980000000  0.4198620000000 1.0
C      1  0.5359420000000  0.4977720000000  0.4187350000000 1.0
C      1  0.4367600000000  0.5011060000000  0.5988850000000 1.0
C      1  0.5655530000000  0.5004110000000  0.5899120000000 1.0
C      1  0.5020560000000  0.5527840000000  0.4681170000000 1.0
C      1  0.5003230000000  0.4518360000000  0.4602150000000 1.0
C      1  0.5008760000000  0.4239220000000  0.4670850000000 1.0
C      1  0.5000810000000  0.5804120000000  0.4625930000000 1.0
C      1  0.4928350000000  0.6066420000000  0.5027240000000 1.0
C      1  0.4977950000000  0.3859690000000  0.5162490000000 1.0
C      1  0.5018480000000  0.4589990000000  0.5820050000000 1.0
C      1  0.4967090000000  0.5314890000000  0.5975750000000 1.0
C      1  0.5000530000000  0.4277570000000  0.5122010000000 1.0
C      1  0.5081980000000  0.5684450000000  0.5009610000000 1.0
C      1  0.4247600000000  0.5040610000000  0.5714790000000 1.0
C      1  0.5826270000000  0.4991420000000  0.5672370000000 1.0
C      1  0.4534040000000  0.4925500000000  0.4864720000000 1.0
C      1  0.5485280000000  0.5141890000000  0.4873170000000 1.0
C      1  0.5005670000000  0.5267590000000  0.4036120000000 1.0
C      1  0.4992990000000  0.4736250000000  0.3997910000000 1.0
C      1  0.4495810000000  0.4991370000000  0.5152080000000 1.0
C      1  0.5498980000000  0.5020700000000  0.5154030000000 1.0
C      1  0.4633580000000  0.4963950000000  0.5847310000000 1.0
C      1  0.5397500000000  0.4995940000000  0.5903000000000 1.0
C      1  0.4517050000000  0.5037830000000  0.5609360000000 1.0
C      1  0.5373040000000  0.4972080000000  0.5616710000000 1.0
C      1  0.5566810000000  0.5022170000000  0.4646270000000 1.0
C      1  0.4434180000000  0.5007910000000  0.4645330000000 1.0
C      1  0.5385680000000  0.4890730000000  0.4463540000000 1.0
C      1  0.4632660000000  0.4899110000000  0.4466550000000 1.0
C      1  0.4981460000000  0.4540170000000  0.5023290000000 1.0
C      1  0.5026160000000  0.5440430000000  0.5131200000000 1.0
C      1  0.4253650000000  0.4955170000000  0.5316160000000 1.0
C      1  0.5785800000000  0.5030200000000  0.5265510000000 1.0
C      1  0.5026570000000  0.4632210000000  0.5532670000000 1.0
C      1  0.5028630000000  0.5502890000000  0.5812660000000 1.0
C      1  0.4955250000000  0.5102800000000  0.5572840000000 1.0
C      1  0.5002720000000  0.5055220000000  0.6285890000000 1.0
C      1  0.5001560000000  0.4998940000000  0.3417860000000 1.0
C      1  0.5045020000000  0.4910480000000  0.4753900000000 1.0
C      1  0.4971710000000  0.5051320000000  0.4991200000000 1.0
C      1  0.5092160000000  0.5086210000000  0.6025540000000 1.0
C      1  0.5012070000000  0.5027300000000  0.3173550000000 1.0
C      1  0.4978650000000  0.5010310000000  0.3912190000000 1.0
C      1  0.5026440000000  0.5132550000000  0.4562420000000 1.0
C      1  0.4965370000000  0.4963960000000  0.6504250000000 1.0
C      1  0.4991130000000  0.4960590000000  0.3659010000000 1.0
C      1  0.4928600000000  0.4933300000000  0.5812530000000 1.0
END
