TITL C-2441169-1362-826 0.0895306020415871 125000 -14318.6247624748 0 0 116 (C1) n - 1
REM
REM in /home/bkarasulu/work/CARBON/AIRSS/Generating-Clusters/ReaxFF-fromJPCA2015/Units_Real/with-SteepDescent/Higher-Symm
REM
REM
REM
REM
REM
REM ./C.cell (1df0a924f5614ab8850e4351716899ee)
REM
REM compiler GCC version 9.2.1 20190827 (Red Hat 9.2.1-1)
REM options -cpp -mtune=generic -march=x86-64 -g -O0 -fpre-include=/usr/include/finclude/math-vector-fortran.h
REM seed -625286278 1974275777 -697966136 -552741429 554609769 -955967078 -2017605394 1094292248 1001610525 16268145 697919615 -1004964686 1192649798 324569014 1780171971 192105545 767760434 2036519311 620518041 -168276199 1447962628 1770431091 1865485102 2064930566 -1563337236 126500422 465143371 -324813715 1349252810 -326263402 1782634639 2136102610 1628818502
REM
CELL 1.54180   50.00000   50.00000   50.00000   90.00000   90.00000   90.00000
LATT -1
SFAC C  
C      1  0.4965630000000  0.4577960000000  0.4781440000000 1.0
C      1  0.5302100000000  0.4844610000000  0.4804030000000 1.0
C      1  0.5226560000000  0.5239880000000  0.4803460000000 1.0
C      1  0.4769690000000  0.5351680000000  0.4775540000000 1.0
C      1  0.4629900000000  0.4876650000000  0.4781450000000 1.0
C      1  0.4946830000000  0.4606450000000  0.5217680000000 1.0
C      1  0.5374310000000  0.4866760000000  0.5206370000000 1.0
C      1  0.5247640000000  0.5283460000000  0.5209400000000 1.0
C      1  0.4779440000000  0.5348370000000  0.5230070000000 1.0
C      1  0.4624210000000  0.4873530000000  0.5228610000000 1.0
C      1  0.5633640000000  0.4542800000000  0.5376450000000 1.0
C      1  0.5615080000000  0.5482130000000  0.5369700000000 1.0
C      1  0.4736920000000  0.5773860000000  0.5345920000000 1.0
C      1  0.4225460000000  0.4983760000000  0.5371520000000 1.0
C      1  0.4787900000000  0.4209490000000  0.5355220000000 1.0
C      1  0.5644240000000  0.4533990000000  0.4607990000000 1.0
C      1  0.5651980000000  0.5452070000000  0.4593800000000 1.0
C      1  0.4783230000000  0.5755760000000  0.4610580000000 1.0
C      1  0.4216120000000  0.5016820000000  0.4630710000000 1.0
C      1  0.4735140000000  0.4233560000000  0.4619760000000 1.0
C      1  0.5478240000000  0.5389470000000  0.4849430000000 1.0
C      1  0.4869390000000  0.5602450000000  0.4839040000000 1.0
C      1  0.4407400000000  0.5053580000000  0.4854310000000 1.0
C      1  0.4754490000000  0.4413880000000  0.4851990000000 1.0
C      1  0.5525790000000  0.4667470000000  0.4850280000000 1.0
C      1  0.5516340000000  0.5332710000000  0.5149250000000 1.0
C      1  0.4893810000000  0.5602620000000  0.5132680000000 1.0
C      1  0.4408380000000  0.5053980000000  0.5144210000000 1.0
C      1  0.4756580000000  0.4402120000000  0.5138370000000 1.0
C      1  0.5446770000000  0.4590730000000  0.5153150000000 1.0
C      1  0.4284780000000  0.5051840000000  0.4338890000000 1.0
C      1  0.4731590000000  0.4329950000000  0.4331660000000 1.0
C      1  0.5558570000000  0.4527600000000  0.4323690000000 1.0
C      1  0.5614540000000  0.5375130000000  0.4317780000000 1.0
C      1  0.4847710000000  0.5700890000000  0.4328860000000 1.0
C      1  0.4269440000000  0.5044590000000  0.5666280000000 1.0
C      1  0.4683240000000  0.4303080000000  0.5606570000000 1.0
C      1  0.5550490000000  0.4533780000000  0.5659280000000 1.0
C      1  0.5608400000000  0.5393230000000  0.5665580000000 1.0
C      1  0.4862490000000  0.5755250000000  0.5604740000000 1.0
C      1  0.4275020000000  0.4807420000000  0.4449290000000 1.0
C      1  0.4959020000000  0.4240950000000  0.4445710000000 1.0
C      1  0.5707200000000  0.4732870000000  0.4434220000000 1.0
C      1  0.5450460000000  0.5587750000000  0.4417800000000 1.0
C      1  0.4584420000000  0.5606350000000  0.4419550000000 1.0
C      1  0.4285730000000  0.4773030000000  0.5560630000000 1.0
C      1  0.4978450000000  0.4265270000000  0.5582090000000 1.0
C      1  0.5703070000000  0.4738210000000  0.5562690000000 1.0
C      1  0.5442780000000  0.5613450000000  0.5569210000000 1.0
C      1  0.4584390000000  0.5644630000000  0.5559530000000 1.0
C      1  0.5152770000000  0.5178390000000  0.4546940000000 1.0
C      1  0.4870120000000  0.5212720000000  0.4555040000000 1.0
C      1  0.4752430000000  0.4955260000000  0.4534690000000 1.0
C      1  0.4959490000000  0.4759150000000  0.4561510000000 1.0
C      1  0.5236180000000  0.4898230000000  0.4536350000000 1.0
C      1  0.5156400000000  0.5180910000000  0.5464420000000 1.0
C      1  0.4868010000000  0.5217330000000  0.5465220000000 1.0
C      1  0.4756340000000  0.4945540000000  0.5480010000000 1.0
C      1  0.4981540000000  0.4761030000000  0.5455530000000 1.0
C      1  0.5227540000000  0.4906120000000  0.5455550000000 1.0
C      1  0.5240970000000  0.5053350000000  0.4128360000000 1.0
C      1  0.5025070000000  0.5253000000000  0.4140870000000 1.0
C      1  0.4772010000000  0.5108890000000  0.4143680000000 1.0
C      1  0.4831570000000  0.4820100000000  0.4136010000000 1.0
C      1  0.5126040000000  0.4782540000000  0.4133960000000 1.0
C      1  0.5261810000000  0.5025990000000  0.5870860000000 1.0
C      1  0.5041230000000  0.5234540000000  0.5899680000000 1.0
C      1  0.4766640000000  0.5110360000000  0.5855150000000 1.0
C      1  0.4836030000000  0.4820690000000  0.5892640000000 1.0
C      1  0.5136720000000  0.4770540000000  0.5858200000000 1.0
C      1  0.5075300000000  0.5527750000000  0.4267090000000 1.0
C      1  0.4508310000000  0.5227420000000  0.4267800000000 1.0
C      1  0.4661460000000  0.4601140000000  0.4257350000000 1.0
C      1  0.5272600000000  0.4550750000000  0.4260200000000 1.0
C      1  0.5510630000000  0.5113760000000  0.4250170000000 1.0
C      1  0.5105160000000  0.5481950000000  0.5783990000000 1.0
C      1  0.4504150000000  0.5207520000000  0.5741250000000 1.0
C      1  0.4628970000000  0.4667460000000  0.5776000000000 1.0
C      1  0.5265730000000  0.4525060000000  0.5731640000000 1.0
C      1  0.5519740000000  0.5123830000000  0.5739990000000 1.0
C      1  0.5832550000000  0.5113140000000  0.5273400000000 1.0
C      1  0.5151040000000  0.5886700000000  0.5240470000000 1.0
C      1  0.4268030000000  0.5422660000000  0.5260150000000 1.0
C      1  0.4361540000000  0.4399900000000  0.5230820000000 1.0
C      1  0.5338560000000  0.4213310000000  0.5268140000000 1.0
C      1  0.5807970000000  0.5109030000000  0.4727810000000 1.0
C      1  0.5184720000000  0.5824180000000  0.4714280000000 1.0
C      1  0.4258470000000  0.5410380000000  0.4733550000000 1.0
C      1  0.4389030000000  0.4425660000000  0.4701910000000 1.0
C      1  0.5342850000000  0.4233670000000  0.4719110000000 1.0
C      1  0.4452400000000  0.5387420000000  0.5519260000000 1.0
C      1  0.4527590000000  0.4559700000000  0.5538850000000 1.0
C      1  0.5219540000000  0.4363310000000  0.5510600000000 1.0
C      1  0.5677360000000  0.5012800000000  0.5530660000000 1.0
C      1  0.5137190000000  0.5624220000000  0.5544840000000 1.0
C      1  0.4451360000000  0.5386590000000  0.4480040000000 1.0
C      1  0.4460460000000  0.4602860000000  0.4464600000000 1.0
C      1  0.5213810000000  0.4352500000000  0.4460470000000 1.0
C      1  0.5627120000000  0.4992280000000  0.4482870000000 1.0
C      1  0.5196690000000  0.5609990000000  0.4504780000000 1.0
C      1  0.5230910000000  0.5623530000000  0.5151110000000 1.0
C      1  0.4525540000000  0.5439520000000  0.5134030000000 1.0
C      1  0.4430490000000  0.4654840000000  0.5139470000000 1.0
C      1  0.5163870000000  0.4410190000000  0.5126080000000 1.0
C      1  0.5650930000000  0.4948940000000  0.5134600000000 1.0
C      1  0.5343580000000  0.5662840000000  0.4889450000000 1.0
C      1  0.4514140000000  0.5440730000000  0.4868080000000 1.0
C      1  0.4441910000000  0.4659930000000  0.4864100000000 1.0
C      1  0.5147760000000  0.4377630000000  0.4857590000000 1.0
C      1  0.5726110000000  0.4877800000000  0.4883360000000 1.0
C      1  0.5463180000000  0.4191140000000  0.4997410000000 1.0
C      1  0.5890340000000  0.5228230000000  0.4998430000000 1.0
C      1  0.5068010000000  0.5958980000000  0.4972330000000 1.0
C      1  0.4367190000000  0.4276250000000  0.4980340000000 1.0
C      1  0.4136890000000  0.5356370000000  0.5003930000000 1.0
C      1  0.5156230000000  0.5022910000000  0.4985130000000 1.0
END
