TITL C-2441158-471-473 0.0995788960719552 125000 -13069.1421631564 0 0 106 (C1) n - 1
REM
REM in /home/bkarasulu/work/CARBON/AIRSS/Generating-Clusters/ReaxFF-fromJPCA2015/Units_Real/with-SteepDescent/Higher-Symm
REM
REM
REM
REM
REM
REM ./C.cell (1df0a924f5614ab8850e4351716899ee)
REM
REM compiler GCC version 9.2.1 20190827 (Red Hat 9.2.1-1)
REM options -cpp -mtune=generic -march=x86-64 -g -O0 -fpre-include=/usr/include/finclude/math-vector-fortran.h
REM seed 1166897896 1300499397 1836982988 -1178935197 1655390204 699213694 -1236750915 -1757828359 1236461508 -687116566 -192262959 -1348594757 1321999295 -1917498260 -315699347 1391420737 -1516423729 852745995 225772395 1479893482 -1230600938 -2055952221 1860824186 1098761200 1449671502 1747824623 1709710399 -682535864 733065141 1887147445 519250124 638688557 592141531
REM
CELL 1.54180   50.00000   50.00000   50.00000   90.00000   90.00000   90.00000
LATT -1
SFAC C  
C      1  0.4708620000000  0.4200040000000  0.5215950000000 1.0
C      1  0.5266030000000  0.4881730000000  0.5815770000000 1.0
C      1  0.4934350000000  0.5757370000000  0.5449710000000 1.0
C      1  0.4957930000000  0.4190490000000  0.4813530000000 1.0
C      1  0.4370820000000  0.5658300000000  0.4957730000000 1.0
C      1  0.5222110000000  0.5350780000000  0.5730080000000 1.0
C      1  0.4212160000000  0.5248840000000  0.4707780000000 1.0
C      1  0.4368480000000  0.4947460000000  0.5048820000000 1.0
C      1  0.4894320000000  0.5625130000000  0.4333230000000 1.0
C      1  0.4479140000000  0.5232690000000  0.5053550000000 1.0
C      1  0.4877040000000  0.5050160000000  0.4857940000000 1.0
C      1  0.5124260000000  0.5702300000000  0.4484360000000 1.0
C      1  0.5384850000000  0.5052350000000  0.4196860000000 1.0
C      1  0.4949610000000  0.5958940000000  0.5040390000000 1.0
C      1  0.4845880000000  0.5288440000000  0.4736770000000 1.0
C      1  0.5210470000000  0.4158110000000  0.5203460000000 1.0
C      1  0.4434430000000  0.5164950000000  0.5397370000000 1.0
C      1  0.5390800000000  0.4638070000000  0.4470930000000 1.0
C      1  0.5051650000000  0.5729890000000  0.4917020000000 1.0
C      1  0.4528910000000  0.4659880000000  0.5355680000000 1.0
C      1  0.5704750000000  0.5292100000000  0.5248840000000 1.0
C      1  0.5296920000000  0.5298510000000  0.4319510000000 1.0
C      1  0.4879330000000  0.5032930000000  0.4139610000000 1.0
C      1  0.4665850000000  0.5398370000000  0.4886380000000 1.0
C      1  0.5875280000000  0.5006760000000  0.4947570000000 1.0
C      1  0.5205860000000  0.5871250000000  0.5106360000000 1.0
C      1  0.4532660000000  0.4803490000000  0.5747780000000 1.0
C      1  0.4839260000000  0.5084250000000  0.5809560000000 1.0
C      1  0.4544390000000  0.5563670000000  0.5453250000000 1.0
C      1  0.5617580000000  0.5415670000000  0.4745680000000 1.0
C      1  0.4999370000000  0.5312240000000  0.5200500000000 1.0
C      1  0.5777460000000  0.4562900000000  0.5111710000000 1.0
C      1  0.4998120000000  0.5298130000000  0.4258070000000 1.0
C      1  0.5173450000000  0.5285940000000  0.5441260000000 1.0
C      1  0.5268910000000  0.5699680000000  0.4748240000000 1.0
C      1  0.4288100000000  0.5343860000000  0.4438200000000 1.0
C      1  0.4751660000000  0.4850810000000  0.5306640000000 1.0
C      1  0.4512490000000  0.4308600000000  0.4716940000000 1.0
C      1  0.4546650000000  0.5473510000000  0.4457720000000 1.0
C      1  0.4361560000000  0.5066240000000  0.4359250000000 1.0
C      1  0.4754600000000  0.4385530000000  0.4390210000000 1.0
C      1  0.5129310000000  0.5010570000000  0.5452990000000 1.0
C      1  0.5017350000000  0.4768330000000  0.4198400000000 1.0
C      1  0.4947580000000  0.4098510000000  0.5086570000000 1.0
C      1  0.4246760000000  0.4967830000000  0.5315540000000 1.0
C      1  0.4298820000000  0.4742510000000  0.4598230000000 1.0
C      1  0.5212410000000  0.5784780000000  0.5380710000000 1.0
C      1  0.4246030000000  0.5399080000000  0.4953640000000 1.0
C      1  0.5495810000000  0.5405590000000  0.5651710000000 1.0
C      1  0.5621980000000  0.5166790000000  0.5535580000000 1.0
C      1  0.4844600000000  0.5072070000000  0.5137330000000 1.0
C      1  0.5252990000000  0.4844140000000  0.4340750000000 1.0
C      1  0.4754340000000  0.4913920000000  0.4511600000000 1.0
C      1  0.5224360000000  0.5291950000000  0.4989130000000 1.0
C      1  0.5122320000000  0.4267710000000  0.5463360000000 1.0
C      1  0.4819220000000  0.5492510000000  0.5519450000000 1.0
C      1  0.5557350000000  0.4467660000000  0.4612020000000 1.0
C      1  0.4497050000000  0.4531890000000  0.4541210000000 1.0
C      1  0.4321190000000  0.4770070000000  0.5522730000000 1.0
C      1  0.5372960000000  0.4252020000000  0.4975720000000 1.0
C      1  0.4245990000000  0.4731040000000  0.4891560000000 1.0
C      1  0.5649810000000  0.4984170000000  0.4272610000000 1.0
C      1  0.5158700000000  0.5037610000000  0.4806930000000 1.0
C      1  0.4574520000000  0.4398930000000  0.5006580000000 1.0
C      1  0.4571720000000  0.5624760000000  0.4723890000000 1.0
C      1  0.5351010000000  0.4535860000000  0.5275960000000 1.0
C      1  0.5212410000000  0.4905590000000  0.5235250000000 1.0
C      1  0.5124180000000  0.5125430000000  0.5885000000000 1.0
C      1  0.5226580000000  0.4458640000000  0.5650210000000 1.0
C      1  0.5606970000000  0.4422690000000  0.4899340000000 1.0
C      1  0.5274560000000  0.4380220000000  0.4484580000000 1.0
C      1  0.5167060000000  0.4751110000000  0.4841440000000 1.0
C      1  0.4763540000000  0.5876060000000  0.5246300000000 1.0
C      1  0.5435470000000  0.5607700000000  0.5441980000000 1.0
C      1  0.4724000000000  0.4701160000000  0.4693960000000 1.0
C      1  0.5461080000000  0.5433870000000  0.5209380000000 1.0
C      1  0.4356480000000  0.5006460000000  0.4630810000000 1.0
C      1  0.5775820000000  0.5276730000000  0.4965080000000 1.0
C      1  0.5360160000000  0.5460510000000  0.4818080000000 1.0
C      1  0.5464010000000  0.4609090000000  0.5543000000000 1.0
C      1  0.5758390000000  0.4848890000000  0.5168490000000 1.0
C      1  0.4763620000000  0.4619020000000  0.5752040000000 1.0
C      1  0.4881810000000  0.4950580000000  0.5548560000000 1.0
C      1  0.4795000000000  0.4626670000000  0.4959540000000 1.0
C      1  0.4523470000000  0.5711470000000  0.5199640000000 1.0
C      1  0.4749850000000  0.4196000000000  0.4611150000000 1.0
C      1  0.5477130000000  0.4932020000000  0.5142090000000 1.0
C      1  0.5070670000000  0.4653490000000  0.5780370000000 1.0
C      1  0.5497950000000  0.4927020000000  0.5639570000000 1.0
C      1  0.5461350000000  0.4771960000000  0.4900020000000 1.0
C      1  0.4711550000000  0.5342720000000  0.5756320000000 1.0
C      1  0.5534020000000  0.5399360000000  0.4461910000000 1.0
C      1  0.4866120000000  0.4364410000000  0.5388790000000 1.0
C      1  0.5613850000000  0.4456640000000  0.5317980000000 1.0
C      1  0.4637520000000  0.4456360000000  0.5528120000000 1.0
C      1  0.5210820000000  0.4269500000000  0.4746670000000 1.0
C      1  0.4272740000000  0.4484310000000  0.5049480000000 1.0
C      1  0.5704440000000  0.4854640000000  0.4765590000000 1.0
C      1  0.4778580000000  0.5267510000000  0.4473590000000 1.0
C      1  0.5749330000000  0.5217380000000  0.4412100000000 1.0
C      1  0.4448380000000  0.5341890000000  0.5621780000000 1.0
C      1  0.5612740000000  0.4997000000000  0.4552310000000 1.0
C      1  0.4621740000000  0.4957870000000  0.4255310000000 1.0
C      1  0.4853310000000  0.5766840000000  0.4581890000000 1.0
C      1  0.5109720000000  0.4648940000000  0.5118540000000 1.0
C      1  0.5003250000000  0.4511600000000  0.4339330000000 1.0
END
