TITL C-2441158-471-810 0.0781348499189599 125000 -15189.2340318973 0 0 118 (C1) n - 1
REM
REM in /home/bkarasulu/work/CARBON/AIRSS/Generating-Clusters/ReaxFF-fromJPCA2015/Units_Real/with-SteepDescent/Higher-Symm
REM
REM
REM
REM
REM
REM ./C.cell (1df0a924f5614ab8850e4351716899ee)
REM
REM compiler GCC version 9.2.1 20190827 (Red Hat 9.2.1-1)
REM options -cpp -mtune=generic -march=x86-64 -g -O0 -fpre-include=/usr/include/finclude/math-vector-fortran.h
REM seed 630574854 348002430 -1677954306 -1654807058 -204422159 -219395720 925498613 878071564 2113260420 1795827409 -45451853 -309228344 -1983037505 1822037478 -855714376 458330357 905034009 -1422357778 1297198813 476134990 2111515432 -1635050725 1799042860 1344220634 -982948357 -964154208 -355601771 -164428040 94861213 -993920374 130339829 -797708632 -592532126
REM
CELL 1.54180   50.00000   50.00000   50.00000   90.00000   90.00000   90.00000
LATT -1
SFAC C  
C      1  0.5872870000000  0.5191120000000  0.4545000000000 1.0
C      1  0.4114870000000  0.5154540000000  0.5515070000000 1.0
C      1  0.5904600000000  0.4870610000000  0.5470580000000 1.0
C      1  0.4122810000000  0.4800480000000  0.4526740000000 1.0
C      1  0.4584660000000  0.5212490000000  0.5893090000000 1.0
C      1  0.5428200000000  0.5189550000000  0.4122300000000 1.0
C      1  0.5425690000000  0.4781800000000  0.5881530000000 1.0
C      1  0.4570850000000  0.4791600000000  0.4120080000000 1.0
C      1  0.4515640000000  0.4437670000000  0.4324200000000 1.0
C      1  0.5507900000000  0.4544690000000  0.5719390000000 1.0
C      1  0.4506630000000  0.5468210000000  0.5710450000000 1.0
C      1  0.5482270000000  0.5453040000000  0.4265050000000 1.0
C      1  0.4283820000000  0.4535070000000  0.4499230000000 1.0
C      1  0.5637970000000  0.4426290000000  0.5485210000000 1.0
C      1  0.5648950000000  0.5539860000000  0.4498900000000 1.0
C      1  0.4309070000000  0.5511870000000  0.5481860000000 1.0
C      1  0.4468940000000  0.5052070000000  0.4218740000000 1.0
C      1  0.5511140000000  0.5042000000000  0.5768300000000 1.0
C      1  0.4490750000000  0.4956750000000  0.5781140000000 1.0
C      1  0.5536510000000  0.4957790000000  0.4259040000000 1.0
C      1  0.4271060000000  0.5034780000000  0.4434810000000 1.0
C      1  0.5727170000000  0.5076580000000  0.5564680000000 1.0
C      1  0.5756080000000  0.4935760000000  0.4457490000000 1.0
C      1  0.4273310000000  0.4914320000000  0.5582530000000 1.0
C      1  0.5295750000000  0.5137950000000  0.4998350000000 1.0
C      1  0.4702440000000  0.5132300000000  0.5001510000000 1.0
C      1  0.5300960000000  0.4851110000000  0.5002680000000 1.0
C      1  0.4702600000000  0.4855610000000  0.5001360000000 1.0
C      1  0.5002500000000  0.5132710000000  0.5284860000000 1.0
C      1  0.4993670000000  0.5137390000000  0.4712220000000 1.0
C      1  0.5000570000000  0.4854510000000  0.5283760000000 1.0
C      1  0.5001130000000  0.4853350000000  0.4716840000000 1.0
C      1  0.5253980000000  0.5459370000000  0.4531060000000 1.0
C      1  0.4734290000000  0.5469090000000  0.5444890000000 1.0
C      1  0.5252820000000  0.4518480000000  0.5428980000000 1.0
C      1  0.4727440000000  0.4517450000000  0.4539530000000 1.0
C      1  0.4510320000000  0.5468350000000  0.5259050000000 1.0
C      1  0.5461590000000  0.5469840000000  0.4739020000000 1.0
C      1  0.5471960000000  0.4492930000000  0.5249020000000 1.0
C      1  0.4521380000000  0.4534110000000  0.4754080000000 1.0
C      1  0.4784140000000  0.5288150000000  0.4122560000000 1.0
C      1  0.5142120000000  0.5192740000000  0.5894420000000 1.0
C      1  0.4865980000000  0.4795910000000  0.5903890000000 1.0
C      1  0.5168250000000  0.4727990000000  0.4123400000000 1.0
C      1  0.4091120000000  0.5169270000000  0.4822590000000 1.0
C      1  0.5872910000000  0.5268980000000  0.5126920000000 1.0
C      1  0.5870820000000  0.4725750000000  0.4797610000000 1.0
C      1  0.4105500000000  0.4816830000000  0.5207690000000 1.0
C      1  0.4572520000000  0.5686970000000  0.5057470000000 1.0
C      1  0.5420220000000  0.5690190000000  0.4951760000000 1.0
C      1  0.4555900000000  0.4306720000000  0.4937980000000 1.0
C      1  0.5421140000000  0.4262090000000  0.5041940000000 1.0
C      1  0.5063010000000  0.5693960000000  0.4567390000000 1.0
C      1  0.4928500000000  0.5690260000000  0.5394940000000 1.0
C      1  0.4936890000000  0.4300620000000  0.4613620000000 1.0
C      1  0.5061230000000  0.4308020000000  0.5416940000000 1.0
C      1  0.4937610000000  0.5330900000000  0.5760540000000 1.0
C      1  0.5050360000000  0.5320830000000  0.4211070000000 1.0
C      1  0.4865910000000  0.4717270000000  0.4199700000000 1.0
C      1  0.5066040000000  0.4645460000000  0.5757430000000 1.0
C      1  0.5802990000000  0.5265430000000  0.4836250000000 1.0
C      1  0.4201820000000  0.5263070000000  0.5073610000000 1.0
C      1  0.4179630000000  0.4732120000000  0.4935690000000 1.0
C      1  0.5790730000000  0.4682630000000  0.5062830000000 1.0
C      1  0.5270210000000  0.4056340000000  0.5137730000000 1.0
C      1  0.4723890000000  0.4093100000000  0.4897490000000 1.0
C      1  0.5266780000000  0.5900060000000  0.4914660000000 1.0
C      1  0.4737200000000  0.5894490000000  0.5093750000000 1.0
C      1  0.5083010000000  0.4066480000000  0.5297230000000 1.0
C      1  0.4922690000000  0.4064400000000  0.4731100000000 1.0
C      1  0.4918640000000  0.5932470000000  0.5275260000000 1.0
C      1  0.5094150000000  0.5909060000000  0.4723940000000 1.0
C      1  0.5526530000000  0.5445110000000  0.5339650000000 1.0
C      1  0.4465250000000  0.5445770000000  0.4667570000000 1.0
C      1  0.5545540000000  0.4530060000000  0.4647700000000 1.0
C      1  0.4465240000000  0.4537210000000  0.5354520000000 1.0
C      1  0.5324470000000  0.5439990000000  0.5531830000000 1.0
C      1  0.4651020000000  0.5458480000000  0.4467540000000 1.0
C      1  0.4673730000000  0.4554600000000  0.5535130000000 1.0
C      1  0.5333630000000  0.4547020000000  0.4457330000000 1.0
C      1  0.5163530000000  0.4785030000000  0.5509320000000 1.0
C      1  0.4831580000000  0.4800730000000  0.4491810000000 1.0
C      1  0.5142430000000  0.5191770000000  0.4474650000000 1.0
C      1  0.4840570000000  0.5203220000000  0.5512660000000 1.0
C      1  0.5529730000000  0.4790900000000  0.5160100000000 1.0
C      1  0.4461130000000  0.4803100000000  0.4852620000000 1.0
C      1  0.4472050000000  0.5186550000000  0.5159970000000 1.0
C      1  0.5516820000000  0.5199100000000  0.4829750000000 1.0
C      1  0.5007620000000  0.4909960000000  0.3980410000000 1.0
C      1  0.5156370000000  0.4768410000000  0.5998470000000 1.0
C      1  0.4854140000000  0.5220570000000  0.5993750000000 1.0
C      1  0.5161070000000  0.5156690000000  0.3988360000000 1.0
C      1  0.3999140000000  0.4888870000000  0.4771110000000 1.0
C      1  0.6013020000000  0.4844680000000  0.5182770000000 1.0
C      1  0.6040470000000  0.5075100000000  0.5017980000000 1.0
C      1  0.4024450000000  0.5101800000000  0.5233070000000 1.0
C      1  0.5623560000000  0.4825570000000  0.4700780000000 1.0
C      1  0.4373870000000  0.4818900000000  0.5324160000000 1.0
C      1  0.5647710000000  0.5174480000000  0.5299090000000 1.0
C      1  0.4352160000000  0.5168890000000  0.4683070000000 1.0
C      1  0.4722600000000  0.4833130000000  0.5648840000000 1.0
C      1  0.5292180000000  0.4834260000000  0.4371170000000 1.0
C      1  0.5277240000000  0.5158070000000  0.5635680000000 1.0
C      1  0.4697540000000  0.5169930000000  0.4367200000000 1.0
C      1  0.4776210000000  0.5700730000000  0.4576270000000 1.0
C      1  0.5211820000000  0.5694380000000  0.5428910000000 1.0
C      1  0.4790490000000  0.4306940000000  0.5434930000000 1.0
C      1  0.5218040000000  0.4295820000000  0.4575970000000 1.0
C      1  0.4568620000000  0.5691050000000  0.4789400000000 1.0
C      1  0.5418780000000  0.5690390000000  0.5221270000000 1.0
C      1  0.5429280000000  0.4303630000000  0.4768150000000 1.0
C      1  0.4578030000000  0.4298250000000  0.5223580000000 1.0
C      1  0.4245490000000  0.5346350000000  0.5659760000000 1.0
C      1  0.5780080000000  0.5357880000000  0.4331520000000 1.0
C      1  0.4381780000000  0.4643060000000  0.4237220000000 1.0
C      1  0.5780870000000  0.4639760000000  0.5595750000000 1.0
C      1  0.4993320000000  0.5256360000000  0.4999770000000 1.0
C      1  0.4983700000000  0.4729170000000  0.5007380000000 1.0
END
