TITL C-2441164-471-948 0.0998951405384869 125000 -26645.1156747415 0 0 195 (C1) n - 1
REM
REM in /home/bkarasulu/work/CARBON/AIRSS/Generating-Clusters/ReaxFF-fromJPCA2015/Units_Real/with-SteepDescent/Higher-Symm
REM
REM
REM
REM
REM
REM ./C.cell (1df0a924f5614ab8850e4351716899ee)
REM
REM compiler GCC version 9.2.1 20190827 (Red Hat 9.2.1-1)
REM options -cpp -mtune=generic -march=x86-64 -g -O0 -fpre-include=/usr/include/finclude/math-vector-fortran.h
REM seed 374488066 685075128 936464354 633542815 -984060944 -730079780 -1108706542 -409273252 472037067 -1164147762 1411612068 -2028624252 1718505225 139417605 -2141449698 1779564372 1188182496 705102173 -1693823887 -1463726883 318925270 -467641255 1655455664 337679087 1440070150 756842058 676512511 85979491 441037063 -1527019784 -2049842234 2026968942 677551705
REM
CELL 1.54180   50.00000   50.00000   50.00000   90.00000   90.00000   90.00000
LATT -1
SFAC C  
C      1  0.5821330000000  0.4893450000000  0.5779180000000 1.0
C      1  0.4697690000000  0.5714610000000  0.5830490000000 1.0
C      1  0.4468650000000  0.4394760000000  0.5786080000000 1.0
C      1  0.4988050000000  0.5924190000000  0.5336450000000 1.0
C      1  0.4155380000000  0.4505440000000  0.5311300000000 1.0
C      1  0.5796680000000  0.4577280000000  0.5367890000000 1.0
C      1  0.4362900000000  0.5572990000000  0.5297130000000 1.0
C      1  0.4788870000000  0.4175780000000  0.5290630000000 1.0
C      1  0.5807790000000  0.5277550000000  0.5312130000000 1.0
C      1  0.4867260000000  0.4760100000000  0.4756900000000 1.0
C      1  0.5262780000000  0.4897830000000  0.4756950000000 1.0
C      1  0.4965850000000  0.5288640000000  0.4702450000000 1.0
C      1  0.4777300000000  0.3987580000000  0.4461910000000 1.0
C      1  0.5971670000000  0.5268100000000  0.4362500000000 1.0
C      1  0.4207270000000  0.5694700000000  0.4477640000000 1.0
C      1  0.4498280000000  0.4198730000000  0.5584820000000 1.0
C      1  0.5992080000000  0.5043190000000  0.5604030000000 1.0
C      1  0.4535780000000  0.5810080000000  0.5594040000000 1.0
C      1  0.4560310000000  0.5940690000000  0.5323200000000 1.0
C      1  0.4368060000000  0.4140850000000  0.5284270000000 1.0
C      1  0.6076530000000  0.4943210000000  0.5337330000000 1.0
C      1  0.3898670000000  0.5040010000000  0.4734010000000 1.0
C      1  0.5566700000000  0.4028330000000  0.4741170000000 1.0
C      1  0.5529040000000  0.5977730000000  0.4704940000000 1.0
C      1  0.5044220000000  0.4646630000000  0.4348690000000 1.0
C      1  0.5396150000000  0.5096470000000  0.4421060000000 1.0
C      1  0.4667090000000  0.5162780000000  0.4389400000000 1.0
C      1  0.6128750000000  0.5081630000000  0.5085600000000 1.0
C      1  0.4400360000000  0.5929900000000  0.5075460000000 1.0
C      1  0.4483000000000  0.4013010000000  0.5050210000000 1.0
C      1  0.5933710000000  0.4409770000000  0.4415370000000 1.0
C      1  0.4998270000000  0.6075040000000  0.4547240000000 1.0
C      1  0.4107530000000  0.4416240000000  0.4584800000000 1.0
C      1  0.3996000000000  0.5031190000000  0.5421420000000 1.0
C      1  0.5497690000000  0.4118650000000  0.5400460000000 1.0
C      1  0.5538450000000  0.5879420000000  0.5398180000000 1.0
C      1  0.6022150000000  0.5336290000000  0.5127460000000 1.0
C      1  0.4196920000000  0.5750540000000  0.5144610000000 1.0
C      1  0.4753040000000  0.3953060000000  0.5114100000000 1.0
C      1  0.5066290000000  0.5897770000000  0.5593900000000 1.0
C      1  0.4179130000000  0.4573870000000  0.5534930000000 1.0
C      1  0.5764770000000  0.4634150000000  0.5648270000000 1.0
C      1  0.4964430000000  0.3875280000000  0.4943130000000 1.0
C      1  0.5988110000000  0.5554160000000  0.4947560000000 1.0
C      1  0.4001910000000  0.5630540000000  0.4972400000000 1.0
C      1  0.4853520000000  0.4950710000000  0.6169960000000 1.0
C      1  0.5125000000000  0.4909360000000  0.6158490000000 1.0
C      1  0.5033600000000  0.5178880000000  0.6156350000000 1.0
C      1  0.5489780000000  0.5509220000000  0.5770940000000 1.0
C      1  0.4314320000000  0.5102580000000  0.5822880000000 1.0
C      1  0.5236650000000  0.4304880000000  0.5819040000000 1.0
C      1  0.5062100000000  0.5246960000000  0.4166810000000 1.0
C      1  0.4694690000000  0.4927540000000  0.4184180000000 1.0
C      1  0.5137930000000  0.4821600000000  0.4126890000000 1.0
C      1  0.5455170000000  0.4109860000000  0.4469300000000 1.0
C      1  0.5542410000000  0.5793870000000  0.4488920000000 1.0
C      1  0.4017430000000  0.5042770000000  0.4464990000000 1.0
C      1  0.5657150000000  0.4234680000000  0.5177930000000 1.0
C      1  0.5388410000000  0.5919390000000  0.5136990000000 1.0
C      1  0.4069060000000  0.4885260000000  0.5167820000000 1.0
C      1  0.5791780000000  0.5754680000000  0.5364660000000 1.0
C      1  0.3957740000000  0.5324010000000  0.5389550000000 1.0
C      1  0.5237430000000  0.3992620000000  0.5371670000000 1.0
C      1  0.4323470000000  0.5216710000000  0.4930660000000 1.0
C      1  0.5245790000000  0.4398590000000  0.4772580000000 1.0
C      1  0.5450620000000  0.5509760000000  0.4824920000000 1.0
C      1  0.4991740000000  0.4751980000000  0.5040510000000 1.0
C      1  0.5213170000000  0.5077600000000  0.5053180000000 1.0
C      1  0.4962550000000  0.5160740000000  0.4964230000000 1.0
C      1  0.5135740000000  0.5433510000000  0.5511780000000 1.0
C      1  0.4504270000000  0.4868360000000  0.5444620000000 1.0
C      1  0.5260360000000  0.4645520000000  0.5481740000000 1.0
C      1  0.4564490000000  0.5232940000000  0.3938860000000 1.0
C      1  0.5006870000000  0.4498100000000  0.3916310000000 1.0
C      1  0.5398910000000  0.5158950000000  0.3946440000000 1.0
C      1  0.4460830000000  0.4525850000000  0.4790990000000 1.0
C      1  0.5809730000000  0.4689260000000  0.4774860000000 1.0
C      1  0.4856570000000  0.5751680000000  0.4818840000000 1.0
C      1  0.5769590000000  0.5617370000000  0.4475810000000 1.0
C      1  0.4060950000000  0.5308060000000  0.4440800000000 1.0
C      1  0.5191340000000  0.3997080000000  0.4458640000000 1.0
C      1  0.4767620000000  0.4127580000000  0.5698200000000 1.0
C      1  0.5878530000000  0.5297860000000  0.5713650000000 1.0
C      1  0.4317330000000  0.5630550000000  0.5693120000000 1.0
C      1  0.5101200000000  0.5170200000000  0.3903110000000 1.0
C      1  0.4788530000000  0.5052930000000  0.3919090000000 1.0
C      1  0.5035840000000  0.4763850000000  0.3867550000000 1.0
C      1  0.4989510000000  0.4073650000000  0.4270090000000 1.0
C      1  0.5752620000000  0.5415350000000  0.4252540000000 1.0
C      1  0.4189690000000  0.5476810000000  0.4268910000000 1.0
C      1  0.4737150000000  0.4362880000000  0.5888750000000 1.0
C      1  0.5663220000000  0.5143350000000  0.5840480000000 1.0
C      1  0.4511540000000  0.5487850000000  0.5859820000000 1.0
C      1  0.5304780000000  0.5317850000000  0.5719430000000 1.0
C      1  0.4517890000000  0.5102920000000  0.5613080000000 1.0
C      1  0.5079990000000  0.4502390000000  0.5659390000000 1.0
C      1  0.3890930000000  0.5401220000000  0.5114630000000 1.0
C      1  0.5207270000000  0.3929610000000  0.5085530000000 1.0
C      1  0.5833140000000  0.5747020000000  0.5079000000000 1.0
C      1  0.4953910000000  0.4332260000000  0.4779740000000 1.0
C      1  0.5622260000000  0.5280220000000  0.4798550000000 1.0
C      1  0.4424390000000  0.5424090000000  0.4777230000000 1.0
C      1  0.5391990000000  0.5023110000000  0.5776070000000 1.0
C      1  0.4719300000000  0.5283320000000  0.5743490000000 1.0
C      1  0.4900440000000  0.4613190000000  0.5870880000000 1.0
C      1  0.5348670000000  0.4115470000000  0.4908700000000 1.0
C      1  0.5575070000000  0.5782080000000  0.4954430000000 1.0
C      1  0.4031740000000  0.5221420000000  0.4930540000000 1.0
C      1  0.5421810000000  0.4922730000000  0.5482140000000 1.0
C      1  0.4850010000000  0.5364850000000  0.5471850000000 1.0
C      1  0.4704770000000  0.4672340000000  0.5460220000000 1.0
C      1  0.5265490000000  0.4798630000000  0.5946360000000 1.0
C      1  0.4950690000000  0.5353100000000  0.5949490000000 1.0
C      1  0.4702940000000  0.4818830000000  0.5957090000000 1.0
C      1  0.4668430000000  0.5746180000000  0.4356570000000 1.0
C      1  0.4534050000000  0.4364660000000  0.4324320000000 1.0
C      1  0.5921710000000  0.4868790000000  0.4347320000000 1.0
C      1  0.5446390000000  0.4383020000000  0.4528140000000 1.0
C      1  0.5293520000000  0.5631610000000  0.4363500000000 1.0
C      1  0.4304980000000  0.4910620000000  0.4461560000000 1.0
C      1  0.5011440000000  0.4467530000000  0.5097640000000 1.0
C      1  0.5420340000000  0.5261230000000  0.5138380000000 1.0
C      1  0.4520680000000  0.5214070000000  0.5144000000000 1.0
C      1  0.6132830000000  0.4952830000000  0.4824290000000 1.0
C      1  0.4494690000000  0.5979780000000  0.4795150000000 1.0
C      1  0.4396480000000  0.4087450000000  0.4770790000000 1.0
C      1  0.4973260000000  0.4078770000000  0.5490460000000 1.0
C      1  0.5858270000000  0.5494910000000  0.5501350000000 1.0
C      1  0.4152330000000  0.5516510000000  0.5486060000000 1.0
C      1  0.4777780000000  0.6057570000000  0.5178280000000 1.0
C      1  0.4161850000000  0.4259840000000  0.5139040000000 1.0
C      1  0.6016320000000  0.4691020000000  0.5228420000000 1.0
C      1  0.4209490000000  0.4667290000000  0.4699660000000 1.0
C      1  0.5766870000000  0.4407440000000  0.4664650000000 1.0
C      1  0.5108730000000  0.5881000000000  0.4708330000000 1.0
C      1  0.5358680000000  0.5636860000000  0.4089250000000 1.0
C      1  0.4399540000000  0.4892490000000  0.4154570000000 1.0
C      1  0.5334180000000  0.4447710000000  0.4264840000000 1.0
C      1  0.5474080000000  0.5776280000000  0.5673780000000 1.0
C      1  0.4097470000000  0.4960750000000  0.5685160000000 1.0
C      1  0.5482840000000  0.4219320000000  0.5681390000000 1.0
C      1  0.4969440000000  0.4021400000000  0.4692850000000 1.0
C      1  0.5862650000000  0.5447730000000  0.4706850000000 1.0
C      1  0.4185690000000  0.5582290000000  0.4748320000000 1.0
C      1  0.4954100000000  0.5077500000000  0.5432860000000 1.0
C      1  0.4902140000000  0.4842550000000  0.5528320000000 1.0
C      1  0.5185210000000  0.4987340000000  0.5306980000000 1.0
C      1  0.5419170000000  0.4936740000000  0.4166210000000 1.0
C      1  0.4720940000000  0.5457160000000  0.4384150000000 1.0
C      1  0.4735890000000  0.4583250000000  0.4349890000000 1.0
C      1  0.5582640000000  0.4731670000000  0.4951110000000 1.0
C      1  0.5019780000000  0.5617350000000  0.4987920000000 1.0
C      1  0.4529620000000  0.4636780000000  0.5043340000000 1.0
C      1  0.6035790000000  0.5036090000000  0.4525690000000 1.0
C      1  0.4453710000000  0.5849750000000  0.4527700000000 1.0
C      1  0.4534120000000  0.4128640000000  0.4509630000000 1.0
C      1  0.5587180000000  0.5093120000000  0.5298880000000 1.0
C      1  0.4620680000000  0.5443910000000  0.5274520000000 1.0
C      1  0.4730500000000  0.4465700000000  0.5245180000000 1.0
C      1  0.5748210000000  0.4180190000000  0.4907980000000 1.0
C      1  0.5291480000000  0.6053530000000  0.4844260000000 1.0
C      1  0.4001440000000  0.4816960000000  0.4898770000000 1.0
C      1  0.4642440000000  0.4893970000000  0.4858000000000 1.0
C      1  0.5331700000000  0.4661910000000  0.4855550000000 1.0
C      1  0.5171300000000  0.5477590000000  0.4816000000000 1.0
C      1  0.5059930000000  0.4836170000000  0.4572530000000 1.0
C      1  0.5181080000000  0.5297420000000  0.4424390000000 1.0
C      1  0.4524790000000  0.5041170000000  0.4608090000000 1.0
C      1  0.4730690000000  0.4510360000000  0.4649550000000 1.0
C      1  0.5508130000000  0.5027850000000  0.4672690000000 1.0
C      1  0.4709210000000  0.5477360000000  0.4679740000000 1.0
C      1  0.4735250000000  0.5055740000000  0.5061180000000 1.0
C      1  0.5264700000000  0.4509200000000  0.5245360000000 1.0
C      1  0.5292080000000  0.5477310000000  0.5287270000000 1.0
C      1  0.5380360000000  0.4527580000000  0.5951980000000 1.0
C      1  0.4972300000000  0.5639210000000  0.5918360000000 1.0
C      1  0.4410920000000  0.4838960000000  0.5932880000000 1.0
C      1  0.4238280000000  0.4413620000000  0.4313590000000 1.0
C      1  0.5819580000000  0.4630190000000  0.4238830000000 1.0
C      1  0.4917950000000  0.5914580000000  0.4320280000000 1.0
C      1  0.5568020000000  0.4514300000000  0.5183260000000 1.0
C      1  0.5164370000000  0.5713870000000  0.5177910000000 1.0
C      1  0.4337660000000  0.4776590000000  0.5222850000000 1.0
C      1  0.5523770000000  0.5397820000000  0.4052480000000 1.0
C      1  0.4386490000000  0.5362000000000  0.4071350000000 1.0
C      1  0.5005460000000  0.4283830000000  0.4072050000000 1.0
C      1  0.5630650000000  0.4436680000000  0.5817670000000 1.0
C      1  0.5202780000000  0.5816620000000  0.5815840000000 1.0
C      1  0.4206420000000  0.4650920000000  0.5786740000000 1.0
C      1  0.4282610000000  0.4638470000000  0.4146080000000 1.0
C      1  0.5527360000000  0.4630450000000  0.4166060000000 1.0
C      1  0.5110410000000  0.5742160000000  0.4179470000000 1.0
C      1  0.6055370000000  0.4702180000000  0.4933340000000 1.0
C      1  0.4764590000000  0.6032400000000  0.4875840000000 1.0
C      1  0.4161430000000  0.4243640000000  0.4816550000000 1.0
END
