TITL C-2441167-4473-556 0.0314715269040303 125000 -12784.6449972526 0 0 91 (C1) n - 1
REM
REM in /home/bkarasulu/work/CARBON/AIRSS/Generating-Clusters/ReaxFF-fromJPCA2015/Units_Real/with-SteepDescent/Higher-Symm
REM
REM
REM
REM
REM
REM ./C.cell (1df0a924f5614ab8850e4351716899ee)
REM
REM compiler GCC version 9.2.1 20190827 (Red Hat 9.2.1-1)
REM options -cpp -mtune=generic -march=x86-64 -g -O0 -fpre-include=/usr/include/finclude/math-vector-fortran.h
REM seed -1976984820 408595344 396838714 338037739 -1092121365 1180176492 -422281909 -1115574003 1566497867 -1698343530 -459675696 -315607482 617816764 -1626595221 405886208 -524784484 529863431 -212210118 346025026 1339774811 1286197072 -1927236899 2037100469 -109230283 -67821105 306280228 -832308838 2053076541 1476751289 -1753160338 992900988 1775668416 -387944571
REM
CELL 1.54180   50.00000   50.00000   50.00000   90.00000   90.00000   90.00000
LATT -1
SFAC C  
C      1  0.4721130000000  0.4220820000000  0.4827850000000 1.0
C      1  0.4727780000000  0.4289020000000  0.5351450000000 1.0
C      1  0.4728730000000  0.4678230000000  0.5720230000000 1.0
C      1  0.4730730000000  0.5214960000000  0.5756290000000 1.0
C      1  0.4730170000000  0.5649930000000  0.5437230000000 1.0
C      1  0.4728870000000  0.5778520000000  0.4912990000000 1.0
C      1  0.4728150000000  0.5540720000000  0.4431480000000 1.0
C      1  0.4731140000000  0.5051740000000  0.4210820000000 1.0
C      1  0.4741680000000  0.4538700000000  0.4359390000000 1.0
C      1  0.4268120000000  0.5426970000000  0.4962180000000 1.0
C      1  0.4266890000000  0.5298930000000  0.4695500000000 1.0
C      1  0.4277810000000  0.5031980000000  0.4567240000000 1.0
C      1  0.4273480000000  0.4744260000000  0.4643280000000 1.0
C      1  0.4269660000000  0.4575800000000  0.4885730000000 1.0
C      1  0.4268270000000  0.4602270000000  0.5180360000000 1.0
C      1  0.4268860000000  0.4811840000000  0.5389670000000 1.0
C      1  0.4270380000000  0.5106740000000  0.5416870000000 1.0
C      1  0.4267780000000  0.5350330000000  0.5248530000000 1.0
C      1  0.5539930000000  0.4379790000000  0.5230510000000 1.0
C      1  0.5539010000000  0.4673130000000  0.5570090000000 1.0
C      1  0.5541050000000  0.5116300000000  0.5643090000000 1.0
C      1  0.5541270000000  0.5501430000000  0.5415830000000 1.0
C      1  0.5540820000000  0.5650310000000  0.4992520000000 1.0
C      1  0.5543150000000  0.5495570000000  0.4571180000000 1.0
C      1  0.5542280000000  0.5106090000000  0.4353090000000 1.0
C      1  0.5527900000000  0.4673400000000  0.4443090000000 1.0
C      1  0.5532230000000  0.4383550000000  0.4782280000000 1.0
C      1  0.5406390000000  0.5695910000000  0.5246960000000 1.0
C      1  0.5410190000000  0.5694850000000  0.4736760000000 1.0
C      1  0.5412840000000  0.5364990000000  0.4347010000000 1.0
C      1  0.5406350000000  0.4863700000000  0.4264960000000 1.0
C      1  0.5385260000000  0.4430870000000  0.4528280000000 1.0
C      1  0.5406150000000  0.4251210000000  0.5004630000000 1.0
C      1  0.5410150000000  0.4425470000000  0.5486810000000 1.0
C      1  0.5408440000000  0.4874140000000  0.5734460000000 1.0
C      1  0.5406960000000  0.5374280000000  0.5640440000000 1.0
C      1  0.5711400000000  0.4599330000000  0.4853630000000 1.0
C      1  0.5712100000000  0.4599510000000  0.5142930000000 1.0
C      1  0.5709400000000  0.4787560000000  0.5361350000000 1.0
C      1  0.5710770000000  0.5070080000000  0.5410500000000 1.0
C      1  0.5711170000000  0.5316280000000  0.5267530000000 1.0
C      1  0.5712960000000  0.5413530000000  0.4997880000000 1.0
C      1  0.5714690000000  0.5316100000000  0.4726900000000 1.0
C      1  0.5713090000000  0.5066560000000  0.4584480000000 1.0
C      1  0.5704320000000  0.4786440000000  0.4635890000000 1.0
C      1  0.5114060000000  0.5652370000000  0.5261280000000 1.0
C      1  0.5115990000000  0.5680480000000  0.4774950000000 1.0
C      1  0.5117770000000  0.5385980000000  0.4378380000000 1.0
C      1  0.5114790000000  0.4891780000000  0.4286200000000 1.0
C      1  0.5104600000000  0.4397070000000  0.4509350000000 1.0
C      1  0.5113010000000  0.4275200000000  0.4961710000000 1.0
C      1  0.5116650000000  0.4422240000000  0.5446190000000 1.0
C      1  0.5115460000000  0.4846890000000  0.5701370000000 1.0
C      1  0.5114840000000  0.5330260000000  0.5624200000000 1.0
C      1  0.4678680000000  0.5289490000000  0.4749780000000 1.0
C      1  0.4725360000000  0.5057660000000  0.4610660000000 1.0
C      1  0.4672500000000  0.4796760000000  0.4669010000000 1.0
C      1  0.4686040000000  0.4630160000000  0.4866630000000 1.0
C      1  0.4682470000000  0.4635160000000  0.5132840000000 1.0
C      1  0.4684860000000  0.4805410000000  0.5334770000000 1.0
C      1  0.4687630000000  0.5065390000000  0.5379140000000 1.0
C      1  0.4684400000000  0.5291820000000  0.5243200000000 1.0
C      1  0.4682210000000  0.5380840000000  0.4992710000000 1.0
C      1  0.4859950000000  0.4777280000000  0.4218840000000 1.0
C      1  0.4856900000000  0.4337620000000  0.4551220000000 1.0
C      1  0.4857800000000  0.4196240000000  0.5083210000000 1.0
C      1  0.4855670000000  0.4436200000000  0.5574360000000 1.0
C      1  0.4856090000000  0.4936070000000  0.5797190000000 1.0
C      1  0.4857760000000  0.5461790000000  0.5646680000000 1.0
C      1  0.4856740000000  0.5768180000000  0.5194920000000 1.0
C      1  0.4855290000000  0.5716570000000  0.4650630000000 1.0
C      1  0.4854410000000  0.5329560000000  0.4265670000000 1.0
C      1  0.5121170000000  0.4886870000000  0.5400430000000 1.0
C      1  0.5117790000000  0.5169470000000  0.5363660000000 1.0
C      1  0.5119120000000  0.5364180000000  0.5157000000000 1.0
C      1  0.5123200000000  0.5395090000000  0.4875720000000 1.0
C      1  0.5121840000000  0.5248130000000  0.4643250000000 1.0
C      1  0.5077300000000  0.4971800000000  0.4579470000000 1.0
C      1  0.5142440000000  0.4809450000000  0.4812430000000 1.0
C      1  0.5115380000000  0.4576100000000  0.4974120000000 1.0
C      1  0.5122390000000  0.4648620000000  0.5243020000000 1.0
C      1  0.4497050000000  0.5612270000000  0.4980290000000 1.0
C      1  0.4496430000000  0.5452090000000  0.4591300000000 1.0
C      1  0.4509770000000  0.5083250000000  0.4395700000000 1.0
C      1  0.4501510000000  0.4673090000000  0.4469100000000 1.0
C      1  0.4499960000000  0.4406730000000  0.4804690000000 1.0
C      1  0.4499110000000  0.4422950000000  0.5226000000000 1.0
C      1  0.4498660000000  0.4702550000000  0.5539850000000 1.0
C      1  0.4500580000000  0.5118090000000  0.5601860000000 1.0
C      1  0.4499350000000  0.5477270000000  0.5380690000000 1.0
C      1  0.5126370000000  0.4984430000000  0.5004810000000 1.0
END
