TITL C-2441164-471-21 0.195194298325395 125000 -14763.9800225408 0 0 139 (C1) n - 1
REM
REM in /home/bkarasulu/work/CARBON/AIRSS/Generating-Clusters/ReaxFF-fromJPCA2015/Units_Real/with-SteepDescent/Higher-Symm
REM
REM
REM
REM
REM
REM ./C.cell (1df0a924f5614ab8850e4351716899ee)
REM
REM compiler GCC version 9.2.1 20190827 (Red Hat 9.2.1-1)
REM options -cpp -mtune=generic -march=x86-64 -g -O0 -fpre-include=/usr/include/finclude/math-vector-fortran.h
REM seed 1249118331 1397553822 -900469962 -2042746244 1690031108 707913488 -1749063116 -2004951911 1083065245 1172307528 1688664945 -1129768360 -1208743463 -1609378628 -455199259 1263741905 2086326097 -1827867705 949325883 -729064108 517766812 1403212387 426031809 880998913 -834347613 1671946659 888615166 -1449218960 -1307337034 494658876 1030280282 -1200921648 -1755651022
REM
CELL 1.54180   50.00000   50.00000   50.00000   90.00000   90.00000   90.00000
LATT -1
SFAC C  
C      1  0.4481920000000  0.5166620000000  0.5800430000000 1.0
C      1  0.5497070000000  0.4855940000000  0.5816000000000 1.0
C      1  0.4479030000000  0.5149580000000  0.4198510000000 1.0
C      1  0.5516310000000  0.4836110000000  0.4195440000000 1.0
C      1  0.4472460000000  0.4850430000000  0.5805210000000 1.0
C      1  0.5495160000000  0.5141710000000  0.5812890000000 1.0
C      1  0.4490430000000  0.4830330000000  0.4207630000000 1.0
C      1  0.5514510000000  0.5163290000000  0.4194300000000 1.0
C      1  0.4283560000000  0.4850160000000  0.4682940000000 1.0
C      1  0.5722390000000  0.5140910000000  0.4672130000000 1.0
C      1  0.4284770000000  0.4860240000000  0.5320770000000 1.0
C      1  0.5704480000000  0.5175460000000  0.5330380000000 1.0
C      1  0.4276150000000  0.5133630000000  0.4677070000000 1.0
C      1  0.5716770000000  0.4853300000000  0.4673630000000 1.0
C      1  0.4284980000000  0.5145950000000  0.5317720000000 1.0
C      1  0.5703840000000  0.4821540000000  0.5331450000000 1.0
C      1  0.4755730000000  0.5130310000000  0.5294030000000 1.0
C      1  0.5253450000000  0.4885670000000  0.5257430000000 1.0
C      1  0.4736340000000  0.5145260000000  0.4708410000000 1.0
C      1  0.5249600000000  0.4851210000000  0.4755350000000 1.0
C      1  0.4745230000000  0.4846130000000  0.5286320000000 1.0
C      1  0.5254200000000  0.5168130000000  0.5325840000000 1.0
C      1  0.4751910000000  0.4864970000000  0.4701000000000 1.0
C      1  0.5259420000000  0.5143230000000  0.4688900000000 1.0
C      1  0.4438790000000  0.5621380000000  0.4547270000000 1.0
C      1  0.5559070000000  0.4362380000000  0.4558100000000 1.0
C      1  0.4460820000000  0.5645260000000  0.5493970000000 1.0
C      1  0.5571880000000  0.4376470000000  0.5477360000000 1.0
C      1  0.4456320000000  0.4351500000000  0.4518170000000 1.0
C      1  0.5564090000000  0.5633190000000  0.4543600000000 1.0
C      1  0.4429940000000  0.4370090000000  0.5454890000000 1.0
C      1  0.5558760000000  0.5624210000000  0.5469360000000 1.0
C      1  0.4822280000000  0.4638150000000  0.4860950000000 1.0
C      1  0.5146200000000  0.5351360000000  0.4856810000000 1.0
C      1  0.4862350000000  0.4623490000000  0.5150100000000 1.0
C      1  0.5203970000000  0.5386320000000  0.5143540000000 1.0
C      1  0.4862930000000  0.5352420000000  0.4861830000000 1.0
C      1  0.5121470000000  0.4593350000000  0.4839280000000 1.0
C      1  0.4795240000000  0.5372300000000  0.5139530000000 1.0
C      1  0.5160140000000  0.4589560000000  0.5130700000000 1.0
C      1  0.5217350000000  0.5851650000000  0.5304750000000 1.0
C      1  0.4736860000000  0.4115420000000  0.5299430000000 1.0
C      1  0.5232920000000  0.5873200000000  0.4705010000000 1.0
C      1  0.4790720000000  0.4129290000000  0.4698540000000 1.0
C      1  0.5286900000000  0.4108650000000  0.5310540000000 1.0
C      1  0.4791470000000  0.5852910000000  0.5302020000000 1.0
C      1  0.5210840000000  0.4130000000000  0.4700400000000 1.0
C      1  0.4768040000000  0.5871560000000  0.4704460000000 1.0
C      1  0.5523710000000  0.4250130000000  0.5216250000000 1.0
C      1  0.4525470000000  0.5728860000000  0.5222100000000 1.0
C      1  0.5471550000000  0.4220180000000  0.4816230000000 1.0
C      1  0.4528430000000  0.5778820000000  0.4823470000000 1.0
C      1  0.5486950000000  0.5741720000000  0.5211390000000 1.0
C      1  0.4495140000000  0.4220810000000  0.5188710000000 1.0
C      1  0.5481210000000  0.5782270000000  0.4812810000000 1.0
C      1  0.4518250000000  0.4237510000000  0.4784640000000 1.0
C      1  0.4865880000000  0.5561500000000  0.5594440000000 1.0
C      1  0.5144380000000  0.4410990000000  0.5570750000000 1.0
C      1  0.4863660000000  0.5565700000000  0.4420990000000 1.0
C      1  0.5139290000000  0.4427770000000  0.4420440000000 1.0
C      1  0.4861200000000  0.4415110000000  0.5580790000000 1.0
C      1  0.5144800000000  0.5562790000000  0.5585760000000 1.0
C      1  0.4858330000000  0.4424290000000  0.4416970000000 1.0
C      1  0.5146500000000  0.5569010000000  0.4421410000000 1.0
C      1  0.5833260000000  0.5146920000000  0.5582940000000 1.0
C      1  0.4188600000000  0.4756950000000  0.5538110000000 1.0
C      1  0.5805190000000  0.5247780000000  0.4454740000000 1.0
C      1  0.4202920000000  0.4737650000000  0.4465480000000 1.0
C      1  0.5839700000000  0.4854020000000  0.5588170000000 1.0
C      1  0.4201940000000  0.5258410000000  0.5534450000000 1.0
C      1  0.5805240000000  0.4747820000000  0.4454670000000 1.0
C      1  0.4189790000000  0.5242290000000  0.4460940000000 1.0
C      1  0.5229050000000  0.4745590000000  0.5846030000000 1.0
C      1  0.4753360000000  0.5242600000000  0.5864080000000 1.0
C      1  0.5234450000000  0.4749150000000  0.4155080000000 1.0
C      1  0.4754140000000  0.5245700000000  0.4143120000000 1.0
C      1  0.5233510000000  0.5252660000000  0.5868700000000 1.0
C      1  0.4747650000000  0.4750770000000  0.5854130000000 1.0
C      1  0.5238770000000  0.5245810000000  0.4140580000000 1.0
C      1  0.4760950000000  0.4750530000000  0.4146360000000 1.0
C      1  0.5885140000000  0.4739970000000  0.5128090000000 1.0
C      1  0.4103230000000  0.5256390000000  0.5144030000000 1.0
C      1  0.5898020000000  0.4755400000000  0.4846080000000 1.0
C      1  0.4092680000000  0.5235760000000  0.4849800000000 1.0
C      1  0.5888380000000  0.5251400000000  0.5128080000000 1.0
C      1  0.4099130000000  0.4755980000000  0.5149710000000 1.0
C      1  0.5899610000000  0.5241710000000  0.4845930000000 1.0
C      1  0.4105090000000  0.4735500000000  0.4856470000000 1.0
C      1  0.5595110000000  0.4653110000000  0.4371950000000 1.0
C      1  0.4395720000000  0.5342050000000  0.4372540000000 1.0
C      1  0.5607000000000  0.4668790000000  0.5564910000000 1.0
C      1  0.4404830000000  0.5374550000000  0.5611020000000 1.0
C      1  0.5598020000000  0.5352850000000  0.4371640000000 1.0
C      1  0.4408510000000  0.4622890000000  0.4391870000000 1.0
C      1  0.5610500000000  0.5333440000000  0.5561160000000 1.0
C      1  0.4398230000000  0.4660370000000  0.5622410000000 1.0
C      1  0.5229900000000  0.5518440000000  0.4162320000000 1.0
C      1  0.4773310000000  0.4477010000000  0.4158670000000 1.0
C      1  0.5237850000000  0.5528100000000  0.5845930000000 1.0
C      1  0.4766290000000  0.4478310000000  0.5834650000000 1.0
C      1  0.5239700000000  0.4472350000000  0.4165300000000 1.0
C      1  0.4765610000000  0.5519410000000  0.4164320000000 1.0
C      1  0.5222560000000  0.4467980000000  0.5831090000000 1.0
C      1  0.4767980000000  0.5516570000000  0.5850500000000 1.0
C      1  0.4460310000000  0.5515700000000  0.4827650000000 1.0
C      1  0.5519960000000  0.4502100000000  0.4833430000000 1.0
C      1  0.4536210000000  0.5492290000000  0.5093510000000 1.0
C      1  0.5449500000000  0.4504800000000  0.5112580000000 1.0
C      1  0.4538030000000  0.4502170000000  0.4891060000000 1.0
C      1  0.5520540000000  0.5499520000000  0.4828310000000 1.0
C      1  0.4464600000000  0.4502270000000  0.5164720000000 1.0
C      1  0.5468040000000  0.5498810000000  0.5104850000000 1.0
C      1  0.5132760000000  0.4850810000000  0.4425870000000 1.0
C      1  0.4857520000000  0.5145980000000  0.4424280000000 1.0
C      1  0.5130750000000  0.4853000000000  0.5571840000000 1.0
C      1  0.4854410000000  0.5141830000000  0.5576050000000 1.0
C      1  0.5138940000000  0.5130200000000  0.4423590000000 1.0
C      1  0.4858700000000  0.4859950000000  0.4431430000000 1.0
C      1  0.5134440000000  0.5133480000000  0.5586530000000 1.0
C      1  0.4854010000000  0.4856090000000  0.5572230000000 1.0
C      1  0.4667270000000  0.4213400000000  0.5560460000000 1.0
C      1  0.5323370000000  0.5765420000000  0.5579590000000 1.0
C      1  0.4697950000000  0.4210850000000  0.4423180000000 1.0
C      1  0.5314770000000  0.5776300000000  0.4444760000000 1.0
C      1  0.4694220000000  0.5796830000000  0.5585440000000 1.0
C      1  0.5340350000000  0.4222410000000  0.5572190000000 1.0
C      1  0.4681820000000  0.5781220000000  0.4445860000000 1.0
C      1  0.5326750000000  0.4207620000000  0.4430390000000 1.0
C      1  0.4856850000000  0.3894830000000  0.4855870000000 1.0
C      1  0.5148120000000  0.6105150000000  0.4855180000000 1.0
C      1  0.4858390000000  0.3895190000000  0.5157510000000 1.0
C      1  0.5149080000000  0.6091330000000  0.5156890000000 1.0
C      1  0.4856250000000  0.6102610000000  0.4854950000000 1.0
C      1  0.5150060000000  0.3890690000000  0.4856430000000 1.0
C      1  0.4855330000000  0.6096080000000  0.5156190000000 1.0
C      1  0.5151660000000  0.3906850000000  0.5158020000000 1.0
C      1  0.5814240000000  0.4997040000000  0.5012300000000 1.0
C      1  0.4140070000000  0.4995510000000  0.5000210000000 1.0
C      1  0.5089090000000  0.4971580000000  0.5010620000000 1.0
END
