TITL C-2441157-2117-978 0.0673347223239275 125000 -25948.0913740262 0 0 186 (C1) n - 1
REM
REM in /home/bkarasulu/work/CARBON/AIRSS/Generating-Clusters/ReaxFF-fromJPCA2015/Units_Real/with-SteepDescent/Higher-Symm
REM
REM
REM
REM
REM
REM ./C.cell (1df0a924f5614ab8850e4351716899ee)
REM
REM compiler GCC version 9.2.1 20190827 (Red Hat 9.2.1-1)
REM options -cpp -mtune=generic -march=x86-64 -g -O0 -fpre-include=/usr/include/finclude/math-vector-fortran.h
REM seed 2072017617 470474197 519368697 1350543426 -1340901447 -1016707076 588736223 805153462 -1209813350 316995928 -117198995 -437913119 -1767159929 465914282 621294569 -1163453777 1126970781 1408604800 -219523068 -619567478 1976465440 -2088621924 1965059038 1100180679 -1075565218 1756703364 1740099769 2129328934 1587273094 942672831 397947090 -669154516 -1405836165
REM
CELL 1.54180   50.00000   50.00000   50.00000   90.00000   90.00000   90.00000
LATT -1
SFAC C  
C      1  0.4370430000000  0.4681960000000  0.5846350000000 1.0
C      1  0.4418220000000  0.5379960000000  0.4181010000000 1.0
C      1  0.4415280000000  0.5408950000000  0.5818830000000 1.0
C      1  0.4412030000000  0.4617920000000  0.4176850000000 1.0
C      1  0.5184880000000  0.5844300000000  0.5583280000000 1.0
C      1  0.5183120000000  0.4137640000000  0.4414120000000 1.0
C      1  0.5172840000000  0.4156980000000  0.5589250000000 1.0
C      1  0.5160980000000  0.5886590000000  0.4398100000000 1.0
C      1  0.4751140000000  0.5989720000000  0.5442950000000 1.0
C      1  0.4755170000000  0.4002450000000  0.4570590000000 1.0
C      1  0.4764610000000  0.4000510000000  0.5449750000000 1.0
C      1  0.4726460000000  0.6012800000000  0.4531140000000 1.0
C      1  0.5253690000000  0.4571520000000  0.4509360000000 1.0
C      1  0.5265610000000  0.5345970000000  0.5480380000000 1.0
C      1  0.5237050000000  0.5357510000000  0.4457350000000 1.0
C      1  0.5251100000000  0.4696310000000  0.5465800000000 1.0
C      1  0.4930470000000  0.3962530000000  0.4804940000000 1.0
C      1  0.4953290000000  0.6012890000000  0.5234810000000 1.0
C      1  0.4944940000000  0.5995930000000  0.4737440000000 1.0
C      1  0.4993470000000  0.3985360000000  0.5265920000000 1.0
C      1  0.4545910000000  0.5508760000000  0.4645220000000 1.0
C      1  0.4548440000000  0.4509130000000  0.5414420000000 1.0
C      1  0.4493790000000  0.4507710000000  0.4579430000000 1.0
C      1  0.4576550000000  0.5449320000000  0.5329260000000 1.0
C      1  0.4040810000000  0.5599210000000  0.5526590000000 1.0
C      1  0.4035550000000  0.4425690000000  0.4480520000000 1.0
C      1  0.4161560000000  0.4382890000000  0.5547910000000 1.0
C      1  0.4148780000000  0.5575270000000  0.4478210000000 1.0
C      1  0.5029860000000  0.4881490000000  0.4358110000000 1.0
C      1  0.5003340000000  0.5140530000000  0.5562470000000 1.0
C      1  0.5058730000000  0.5167710000000  0.4345750000000 1.0
C      1  0.5053920000000  0.4855350000000  0.5608210000000 1.0
C      1  0.5066940000000  0.4231050000000  0.4881510000000 1.0
C      1  0.5076290000000  0.5717860000000  0.5163510000000 1.0
C      1  0.5082430000000  0.5716870000000  0.4838000000000 1.0
C      1  0.5080420000000  0.4278560000000  0.5180290000000 1.0
C      1  0.5695490000000  0.5152450000000  0.4293620000000 1.0
C      1  0.5712960000000  0.4846780000000  0.5724310000000 1.0
C      1  0.5695790000000  0.4855180000000  0.4292050000000 1.0
C      1  0.5707880000000  0.5146480000000  0.5718600000000 1.0
C      1  0.5831310000000  0.4392060000000  0.5157070000000 1.0
C      1  0.5850220000000  0.5581820000000  0.4869310000000 1.0
C      1  0.5844540000000  0.5604330000000  0.5162040000000 1.0
C      1  0.5825990000000  0.4417540000000  0.4864360000000 1.0
C      1  0.5295660000000  0.5559380000000  0.5285960000000 1.0
C      1  0.5276170000000  0.4399740000000  0.4736990000000 1.0
C      1  0.5285970000000  0.4440680000000  0.5305870000000 1.0
C      1  0.5333200000000  0.5661150000000  0.4696020000000 1.0
C      1  0.4866250000000  0.5618100000000  0.5847540000000 1.0
C      1  0.4856140000000  0.4382470000000  0.4154530000000 1.0
C      1  0.4825870000000  0.4399040000000  0.5842410000000 1.0
C      1  0.4864000000000  0.5626740000000  0.4139740000000 1.0
C      1  0.5412200000000  0.3975810000000  0.4877950000000 1.0
C      1  0.5412070000000  0.6033150000000  0.5131370000000 1.0
C      1  0.5413930000000  0.6032660000000  0.4907750000000 1.0
C      1  0.5405790000000  0.3979980000000  0.5104340000000 1.0
C      1  0.5789680000000  0.5636460000000  0.4336020000000 1.0
C      1  0.5759150000000  0.4350070000000  0.5660510000000 1.0
C      1  0.5780820000000  0.4365020000000  0.4340220000000 1.0
C      1  0.5786020000000  0.5650510000000  0.5686840000000 1.0
C      1  0.4126360000000  0.5185910000000  0.5319260000000 1.0
C      1  0.4162700000000  0.4809970000000  0.4707170000000 1.0
C      1  0.4213070000000  0.4867150000000  0.5324350000000 1.0
C      1  0.4126630000000  0.5200580000000  0.4740190000000 1.0
C      1  0.5477710000000  0.5141530000000  0.5912830000000 1.0
C      1  0.5476530000000  0.4859310000000  0.4084240000000 1.0
C      1  0.5483970000000  0.4849480000000  0.5915950000000 1.0
C      1  0.5473540000000  0.5149180000000  0.4084590000000 1.0
C      1  0.4487090000000  0.4337780000000  0.4345260000000 1.0
C      1  0.4511680000000  0.5586390000000  0.5580650000000 1.0
C      1  0.4424760000000  0.5582200000000  0.4373640000000 1.0
C      1  0.4460970000000  0.4328820000000  0.5634140000000 1.0
C      1  0.5125710000000  0.5547490000000  0.4054120000000 1.0
C      1  0.5102330000000  0.4461090000000  0.5946250000000 1.0
C      1  0.5108770000000  0.4478130000000  0.4050450000000 1.0
C      1  0.5127510000000  0.5537140000000  0.5931090000000 1.0
C      1  0.5642470000000  0.5871480000000  0.4426300000000 1.0
C      1  0.5612480000000  0.4116930000000  0.5560270000000 1.0
C      1  0.5631010000000  0.4121900000000  0.4427830000000 1.0
C      1  0.5634110000000  0.5883710000000  0.5577470000000 1.0
C      1  0.4652600000000  0.5081850000000  0.4845590000000 1.0
C      1  0.4502330000000  0.4891550000000  0.5263810000000 1.0
C      1  0.4675830000000  0.4809200000000  0.4742360000000 1.0
C      1  0.4651670000000  0.5093160000000  0.5132700000000 1.0
C      1  0.4150760000000  0.5669500000000  0.4753410000000 1.0
C      1  0.4159820000000  0.4276520000000  0.5246830000000 1.0
C      1  0.4130300000000  0.4340280000000  0.4744120000000 1.0
C      1  0.4151220000000  0.5667090000000  0.5265770000000 1.0
C      1  0.5847350000000  0.5377970000000  0.5601070000000 1.0
C      1  0.5834950000000  0.4637810000000  0.4431270000000 1.0
C      1  0.5828690000000  0.4617220000000  0.5584470000000 1.0
C      1  0.5841630000000  0.5362610000000  0.4433820000000 1.0
C      1  0.5305090000000  0.5609910000000  0.5720630000000 1.0
C      1  0.5296550000000  0.4371450000000  0.4250380000000 1.0
C      1  0.5285150000000  0.4285150000000  0.5808950000000 1.0
C      1  0.5287900000000  0.5649880000000  0.4264090000000 1.0
C      1  0.3883540000000  0.5129330000000  0.5164770000000 1.0
C      1  0.3918540000000  0.4842210000000  0.4869180000000 1.0
C      1  0.3959110000000  0.4846250000000  0.5159200000000 1.0
C      1  0.3888630000000  0.5132850000000  0.4873300000000 1.0
C      1  0.5949640000000  0.4593830000000  0.5327260000000 1.0
C      1  0.5959310000000  0.5359380000000  0.4702750000000 1.0
C      1  0.5977480000000  0.5414460000000  0.5341600000000 1.0
C      1  0.5947390000000  0.4634710000000  0.4703220000000 1.0
C      1  0.5256560000000  0.4704680000000  0.3965350000000 1.0
C      1  0.5246080000000  0.5291380000000  0.6027570000000 1.0
C      1  0.5248040000000  0.5300200000000  0.3961680000000 1.0
C      1  0.5257650000000  0.4694120000000  0.6036570000000 1.0
C      1  0.5025330000000  0.4841630000000  0.6114020000000 1.0
C      1  0.5034180000000  0.5132850000000  0.3867330000000 1.0
C      1  0.5019420000000  0.5129840000000  0.6101510000000 1.0
C      1  0.5026090000000  0.4844070000000  0.3880390000000 1.0
C      1  0.4843630000000  0.4847020000000  0.5856170000000 1.0
C      1  0.4840120000000  0.5160800000000  0.4093020000000 1.0
C      1  0.4827570000000  0.5153830000000  0.5871240000000 1.0
C      1  0.4833570000000  0.4856820000000  0.4113360000000 1.0
C      1  0.5384340000000  0.4799930000000  0.4628490000000 1.0
C      1  0.5418670000000  0.5151140000000  0.5322860000000 1.0
C      1  0.5337010000000  0.5256730000000  0.4718150000000 1.0
C      1  0.5451160000000  0.4865990000000  0.5339470000000 1.0
C      1  0.4284150000000  0.5417270000000  0.4860920000000 1.0
C      1  0.4382280000000  0.4452230000000  0.5153790000000 1.0
C      1  0.4322440000000  0.4574390000000  0.4814780000000 1.0
C      1  0.4307170000000  0.5409980000000  0.5171370000000 1.0
C      1  0.4295260000000  0.5183390000000  0.5727340000000 1.0
C      1  0.4328660000000  0.4861420000000  0.4312160000000 1.0
C      1  0.4374870000000  0.4917120000000  0.5701470000000 1.0
C      1  0.4289570000000  0.5153580000000  0.4295160000000 1.0
C      1  0.5376990000000  0.4035160000000  0.5411420000000 1.0
C      1  0.5396210000000  0.5927540000000  0.4591100000000 1.0
C      1  0.5397690000000  0.5965310000000  0.5432660000000 1.0
C      1  0.5398500000000  0.4029620000000  0.4575340000000 1.0
C      1  0.5549180000000  0.5614330000000  0.5151210000000 1.0
C      1  0.5531080000000  0.4382490000000  0.4873350000000 1.0
C      1  0.5536260000000  0.4382790000000  0.5159000000000 1.0
C      1  0.5558350000000  0.5615390000000  0.4868160000000 1.0
C      1  0.4097420000000  0.5299630000000  0.5582030000000 1.0
C      1  0.4095680000000  0.4723040000000  0.4429670000000 1.0
C      1  0.4174800000000  0.4713630000000  0.5616280000000 1.0
C      1  0.4107360000000  0.5285600000000  0.4474580000000 1.0
C      1  0.4923210000000  0.4645960000000  0.5151800000000 1.0
C      1  0.4930050000000  0.5427110000000  0.4872560000000 1.0
C      1  0.4828160000000  0.5539500000000  0.5155940000000 1.0
C      1  0.4755250000000  0.4600420000000  0.4921430000000 1.0
C      1  0.5590430000000  0.4860940000000  0.4820640000000 1.0
C      1  0.5652150000000  0.5188310000000  0.5109950000000 1.0
C      1  0.5584680000000  0.5143120000000  0.4826020000000 1.0
C      1  0.5640660000000  0.4824030000000  0.5113260000000 1.0
C      1  0.5560030000000  0.4249200000000  0.5809280000000 1.0
C      1  0.5562480000000  0.5720530000000  0.4213010000000 1.0
C      1  0.5555280000000  0.5722160000000  0.5791360000000 1.0
C      1  0.5563470000000  0.4278570000000  0.4208350000000 1.0
C      1  0.6035680000000  0.4849240000000  0.4879530000000 1.0
C      1  0.5957230000000  0.5194340000000  0.5150660000000 1.0
C      1  0.6053070000000  0.5140450000000  0.4871430000000 1.0
C      1  0.5928820000000  0.4803160000000  0.5152220000000 1.0
C      1  0.4680840000000  0.4605570000000  0.4088610000000 1.0
C      1  0.4683920000000  0.5401580000000  0.5904350000000 1.0
C      1  0.4673480000000  0.5410510000000  0.4096680000000 1.0
C      1  0.4646610000000  0.4623040000000  0.5873620000000 1.0
C      1  0.4537650000000  0.4114020000000  0.4724050000000 1.0
C      1  0.4535400000000  0.5967690000000  0.5233520000000 1.0
C      1  0.4522360000000  0.6014110000000  0.4749600000000 1.0
C      1  0.4563380000000  0.3985600000000  0.5204150000000 1.0
C      1  0.4902490000000  0.5824600000000  0.5632480000000 1.0
C      1  0.4907990000000  0.4173580000000  0.4378510000000 1.0
C      1  0.4880650000000  0.4196850000000  0.5625410000000 1.0
C      1  0.4885490000000  0.5829500000000  0.4354840000000 1.0
C      1  0.4255110000000  0.5920640000000  0.4857000000000 1.0
C      1  0.4261580000000  0.4040580000000  0.5121140000000 1.0
C      1  0.4269310000000  0.4084410000000  0.4831970000000 1.0
C      1  0.4254220000000  0.5921800000000  0.5148800000000 1.0
C      1  0.4890970000000  0.5104300000000  0.5290300000000 1.0
C      1  0.4939250000000  0.4828000000000  0.4622440000000 1.0
C      1  0.4722310000000  0.4735270000000  0.5360060000000 1.0
C      1  0.4735560000000  0.5311080000000  0.4700100000000 1.0
C      1  0.5146650000000  0.5099920000000  0.5144970000000 1.0
C      1  0.5151190000000  0.4842560000000  0.4790010000000 1.0
C      1  0.5149410000000  0.4815780000000  0.5072010000000 1.0
C      1  0.5144720000000  0.5260340000000  0.4914790000000 1.0
C      1  0.4611020000000  0.5739100000000  0.4794540000000 1.0
C      1  0.4591950000000  0.4259000000000  0.5106510000000 1.0
C      1  0.4724780000000  0.4316050000000  0.4869980000000 1.0
C      1  0.4643180000000  0.5742630000000  0.5065080000000 1.0
C      1  0.4837740000000  0.6087990000000  0.4983850000000 1.0
C      1  0.4828300000000  0.3868850000000  0.5054600000000 1.0
END
