TITL C-2441161-5029-869 0.0875179581560615 125000 -20139.1857501992 0 0 151 (C1) n - 1
REM
REM in /home/bkarasulu/work/CARBON/AIRSS/Generating-Clusters/ReaxFF-fromJPCA2015/Units_Real/with-SteepDescent/Higher-Symm
REM
REM
REM
REM
REM
REM ./C.cell (1df0a924f5614ab8850e4351716899ee)
REM
REM compiler GCC version 9.2.1 20190827 (Red Hat 9.2.1-1)
REM options -cpp -mtune=generic -march=x86-64 -g -O0 -fpre-include=/usr/include/finclude/math-vector-fortran.h
REM seed 2103609424 -1333788153 589211670 -1221682416 745301505 787045319 859871637 975174435 -1967579495 1681523711 348608598 1580112457 -985051719 -1292065528 1591561870 562558434 163500251 -754358004 -343534042 1261927751 35573205 872453922 -2010876336 -959607184 -1164897617 -1389679289 -2086452620 1348290891 467737806 -626086166 1815996473 -730142226 -1965729100
REM
CELL 1.54180   50.00000   50.00000   50.00000   90.00000   90.00000   90.00000
LATT -1
SFAC C  
C      1  0.5238910000000  0.5195610000000  0.4867540000000 1.0
C      1  0.4948110000000  0.4539980000000  0.4075970000000 1.0
C      1  0.4746920000000  0.4615590000000  0.5178920000000 1.0
C      1  0.4574240000000  0.4302610000000  0.4369080000000 1.0
C      1  0.4375230000000  0.4920010000000  0.5016440000000 1.0
C      1  0.5461600000000  0.4281500000000  0.5295130000000 1.0
C      1  0.5687570000000  0.5563120000000  0.5531010000000 1.0
C      1  0.4385250000000  0.4148530000000  0.4712210000000 1.0
C      1  0.5479810000000  0.4844490000000  0.5501280000000 1.0
C      1  0.3898330000000  0.4960680000000  0.5087970000000 1.0
C      1  0.4512950000000  0.5374100000000  0.4747400000000 1.0
C      1  0.5230690000000  0.5283080000000  0.4160220000000 1.0
C      1  0.5493830000000  0.5220040000000  0.4246460000000 1.0
C      1  0.4832410000000  0.4946160000000  0.5469540000000 1.0
C      1  0.4333340000000  0.5542150000000  0.5570590000000 1.0
C      1  0.4599660000000  0.4896770000000  0.4818290000000 1.0
C      1  0.4873020000000  0.4673780000000  0.5611210000000 1.0
C      1  0.5450400000000  0.4881520000000  0.4746110000000 1.0
C      1  0.4070150000000  0.5442520000000  0.5096710000000 1.0
C      1  0.5219950000000  0.4620950000000  0.4028090000000 1.0
C      1  0.5914570000000  0.4857040000000  0.5478290000000 1.0
C      1  0.5694980000000  0.5362630000000  0.4927970000000 1.0
C      1  0.4121820000000  0.4948820000000  0.4608930000000 1.0
C      1  0.4967770000000  0.5231380000000  0.4927550000000 1.0
C      1  0.4281770000000  0.5008650000000  0.4129990000000 1.0
C      1  0.5966940000000  0.4635330000000  0.5067050000000 1.0
C      1  0.4293560000000  0.5275610000000  0.4260640000000 1.0
C      1  0.5287890000000  0.5060280000000  0.4635800000000 1.0
C      1  0.5857540000000  0.5094700000000  0.5645590000000 1.0
C      1  0.5683810000000  0.5650080000000  0.4939960000000 1.0
C      1  0.4977840000000  0.4175450000000  0.4465580000000 1.0
C      1  0.4757250000000  0.5872430000000  0.4722930000000 1.0
C      1  0.5893910000000  0.5367070000000  0.5521200000000 1.0
C      1  0.5427230000000  0.4855730000000  0.5199180000000 1.0
C      1  0.4897800000000  0.4882880000000  0.5183560000000 1.0
C      1  0.4562590000000  0.5726030000000  0.5608610000000 1.0
C      1  0.4306650000000  0.4396810000000  0.5205800000000 1.0
C      1  0.5229430000000  0.5578990000000  0.4743010000000 1.0
C      1  0.4639360000000  0.5657450000000  0.4360430000000 1.0
C      1  0.5704600000000  0.5070390000000  0.4382060000000 1.0
C      1  0.4508860000000  0.5196060000000  0.4499340000000 1.0
C      1  0.4408280000000  0.4937620000000  0.4540310000000 1.0
C      1  0.4808330000000  0.5364380000000  0.4733470000000 1.0
C      1  0.5325750000000  0.5853390000000  0.4697210000000 1.0
C      1  0.5829650000000  0.4525180000000  0.4569410000000 1.0
C      1  0.5166420000000  0.4785400000000  0.5094300000000 1.0
C      1  0.5116840000000  0.5273720000000  0.5932310000000 1.0
C      1  0.5577610000000  0.5080940000000  0.5699020000000 1.0
C      1  0.5613660000000  0.5764470000000  0.4681910000000 1.0
C      1  0.4535400000000  0.4691940000000  0.5378600000000 1.0
C      1  0.5392100000000  0.5441480000000  0.4557800000000 1.0
C      1  0.4862010000000  0.4681460000000  0.4713550000000 1.0
C      1  0.5250550000000  0.5911220000000  0.5000400000000 1.0
C      1  0.4639610000000  0.5022900000000  0.6008780000000 1.0
C      1  0.5254380000000  0.5691420000000  0.5741130000000 1.0
C      1  0.4277100000000  0.5427600000000  0.5305430000000 1.0
C      1  0.5386210000000  0.4599150000000  0.4742040000000 1.0
C      1  0.5121190000000  0.5782560000000  0.4413290000000 1.0
C      1  0.5018460000000  0.4803550000000  0.3971400000000 1.0
C      1  0.6007670000000  0.4943550000000  0.4808750000000 1.0
C      1  0.4562440000000  0.4340800000000  0.5675450000000 1.0
C      1  0.5464880000000  0.4123660000000  0.4741270000000 1.0
C      1  0.5420870000000  0.5380940000000  0.5251710000000 1.0
C      1  0.5567990000000  0.4717250000000  0.4203100000000 1.0
C      1  0.4774830000000  0.4112520000000  0.5334660000000 1.0
C      1  0.5227830000000  0.4885860000000  0.5634010000000 1.0
C      1  0.4971210000000  0.5526590000000  0.5317780000000 1.0
C      1  0.4808350000000  0.5447130000000  0.4239330000000 1.0
C      1  0.5578410000000  0.4443370000000  0.4954530000000 1.0
C      1  0.4363140000000  0.4779480000000  0.4299510000000 1.0
C      1  0.5982230000000  0.5374590000000  0.4974810000000 1.0
C      1  0.5780480000000  0.4755130000000  0.4377040000000 1.0
C      1  0.5968750000000  0.5280770000000  0.5254100000000 1.0
C      1  0.4745970000000  0.5898200000000  0.5133500000000 1.0
C      1  0.4707730000000  0.5910410000000  0.5423560000000 1.0
C      1  0.5441620000000  0.4173580000000  0.5026150000000 1.0
C      1  0.4399370000000  0.5280900000000  0.5679550000000 1.0
C      1  0.4952800000000  0.4272720000000  0.4965390000000 1.0
C      1  0.4735100000000  0.5372910000000  0.5344820000000 1.0
C      1  0.5849300000000  0.4606910000000  0.5345820000000 1.0
C      1  0.5358370000000  0.4320720000000  0.5564040000000 1.0
C      1  0.4957440000000  0.5775840000000  0.5469130000000 1.0
C      1  0.4533730000000  0.4045950000000  0.4944200000000 1.0
C      1  0.5392980000000  0.4429160000000  0.4481640000000 1.0
C      1  0.4048500000000  0.4750770000000  0.5232190000000 1.0
C      1  0.4377210000000  0.5083330000000  0.5888020000000 1.0
C      1  0.5306890000000  0.4754270000000  0.4249220000000 1.0
C      1  0.4773140000000  0.5201520000000  0.4029010000000 1.0
C      1  0.4212970000000  0.4581200000000  0.4459110000000 1.0
C      1  0.4504590000000  0.4178550000000  0.5195460000000 1.0
C      1  0.5832440000000  0.4876060000000  0.5005370000000 1.0
C      1  0.4625570000000  0.4588010000000  0.5808170000000 1.0
C      1  0.5551540000000  0.4549420000000  0.5628620000000 1.0
C      1  0.4461680000000  0.4963890000000  0.5308360000000 1.0
C      1  0.4168170000000  0.5408060000000  0.4477360000000 1.0
C      1  0.5566100000000  0.5647650000000  0.5257310000000 1.0
C      1  0.5123060000000  0.4661570000000  0.4853690000000 1.0
C      1  0.5847880000000  0.5279770000000  0.4506930000000 1.0
C      1  0.4418890000000  0.4421890000000  0.4596640000000 1.0
C      1  0.5092580000000  0.5549030000000  0.4246920000000 1.0
C      1  0.4590350000000  0.5674550000000  0.5033970000000 1.0
C      1  0.4184590000000  0.4932810000000  0.5430680000000 1.0
C      1  0.4558940000000  0.4039140000000  0.4502690000000 1.0
C      1  0.4868440000000  0.4897490000000  0.4494670000000 1.0
C      1  0.5405800000000  0.5264030000000  0.5837990000000 1.0
C      1  0.5022190000000  0.5546100000000  0.5857820000000 1.0
C      1  0.4747080000000  0.5572440000000  0.5764480000000 1.0
C      1  0.4814690000000  0.4189440000000  0.5610650000000 1.0
C      1  0.5241100000000  0.4199480000000  0.4555040000000 1.0
C      1  0.4372590000000  0.4468050000000  0.5478170000000 1.0
C      1  0.4937890000000  0.4523120000000  0.5369850000000 1.0
C      1  0.4799940000000  0.5184450000000  0.4473290000000 1.0
C      1  0.5644740000000  0.4299350000000  0.4548260000000 1.0
C      1  0.4103660000000  0.5156440000000  0.4965560000000 1.0
C      1  0.4764920000000  0.4485580000000  0.4907700000000 1.0
C      1  0.4460970000000  0.4800350000000  0.5914650000000 1.0
C      1  0.5472920000000  0.5177290000000  0.5053800000000 1.0
C      1  0.5222710000000  0.5876270000000  0.5514640000000 1.0
C      1  0.4786810000000  0.5046050000000  0.4991860000000 1.0
C      1  0.5175000000000  0.5334200000000  0.5380260000000 1.0
C      1  0.5374570000000  0.5885050000000  0.5257460000000 1.0
C      1  0.4862870000000  0.5151440000000  0.5877710000000 1.0
C      1  0.4534700000000  0.5398540000000  0.5143230000000 1.0
C      1  0.5075890000000  0.5093770000000  0.5511090000000 1.0
C      1  0.5155430000000  0.4880060000000  0.4467620000000 1.0
C      1  0.4233850000000  0.4640160000000  0.5004270000000 1.0
C      1  0.5874800000000  0.5017170000000  0.5252520000000 1.0
C      1  0.4835070000000  0.5858310000000  0.4447710000000 1.0
C      1  0.5495470000000  0.5531230000000  0.5747880000000 1.0
C      1  0.4054560000000  0.5219980000000  0.4672530000000 1.0
C      1  0.5581030000000  0.4554570000000  0.5219090000000 1.0
C      1  0.4821800000000  0.3985990000000  0.4621170000000 1.0
C      1  0.4688380000000  0.5312540000000  0.5637490000000 1.0
C      1  0.4190640000000  0.5654030000000  0.4961990000000 1.0
C      1  0.5016760000000  0.4269360000000  0.5253970000000 1.0
C      1  0.6045150000000  0.5203640000000  0.4723520000000 1.0
C      1  0.4846400000000  0.4374260000000  0.4292160000000 1.0
C      1  0.4545250000000  0.5039620000000  0.4035050000000 1.0
C      1  0.5855340000000  0.4479650000000  0.4853970000000 1.0
C      1  0.4413820000000  0.5592520000000  0.4557710000000 1.0
C      1  0.5093500000000  0.4295090000000  0.5696160000000 1.0
C      1  0.5036760000000  0.5087550000000  0.4031820000000 1.0
C      1  0.4829560000000  0.4010710000000  0.4914580000000 1.0
C      1  0.4111180000000  0.4679330000000  0.4715080000000 1.0
C      1  0.5654900000000  0.5518490000000  0.4504180000000 1.0
C      1  0.4936390000000  0.5642980000000  0.4786990000000 1.0
C      1  0.5246390000000  0.4743380000000  0.5888750000000 1.0
C      1  0.5041160000000  0.4541650000000  0.5837990000000 1.0
C      1  0.5001360000000  0.5764050000000  0.5053610000000 1.0
C      1  0.5532340000000  0.4631510000000  0.5912040000000 1.0
C      1  0.4402550000000  0.5787410000000  0.4824420000000 1.0
END
