TITL C-2441169-1362-653 0.0229801513591497 125000 -8545.05743802013 0 0 64 (C1) n - 1
REM
REM in /home/bkarasulu/work/CARBON/AIRSS/Generating-Clusters/ReaxFF-fromJPCA2015/Units_Real/with-SteepDescent/Higher-Symm
REM
REM
REM
REM
REM
REM ./C.cell (1df0a924f5614ab8850e4351716899ee)
REM
REM compiler GCC version 9.2.1 20190827 (Red Hat 9.2.1-1)
REM options -cpp -mtune=generic -march=x86-64 -g -O0 -fpre-include=/usr/include/finclude/math-vector-fortran.h
REM seed 846071757 1478739279 -944867334 1700511964 -56461756 -340531520 -495068715 2009895353 159462751 986822963 138334451 2081169251 -355978241 746171585 756669765 -1346092342 -674787826 -432061038 -1272312255 641180989 301856719 -1676425435 -388803969 1216399373 410658053 -175748926 -1096354680 2030460075 443044947 297263857 1018750194 261388721 1206656585
REM
CELL 1.54180   50.00000   50.00000   50.00000   90.00000   90.00000   90.00000
LATT -1
SFAC C  
C      1  0.5027540000000  0.4418900000000  0.4454820000000 1.0
C      1  0.5091900000000  0.4281380000000  0.5345720000000 1.0
C      1  0.5098900000000  0.5132240000000  0.5791630000000 1.0
C      1  0.5097150000000  0.5820190000000  0.5111650000000 1.0
C      1  0.5113660000000  0.5365090000000  0.4258190000000 1.0
C      1  0.4934650000000  0.4426720000000  0.5557340000000 1.0
C      1  0.4944720000000  0.4256030000000  0.4618090000000 1.0
C      1  0.4946510000000  0.5135420000000  0.4162140000000 1.0
C      1  0.4937470000000  0.5825680000000  0.4859490000000 1.0
C      1  0.4935430000000  0.5374900000000  0.5726470000000 1.0
C      1  0.4927890000000  0.4388160000000  0.4862780000000 1.0
C      1  0.4910010000000  0.4721910000000  0.5545020000000 1.0
C      1  0.4907670000000  0.5456610000000  0.5440330000000 1.0
C      1  0.4914140000000  0.5576560000000  0.4694320000000 1.0
C      1  0.4915590000000  0.4908460000000  0.4354770000000 1.0
C      1  0.5128620000000  0.4396150000000  0.5075080000000 1.0
C      1  0.5108810000000  0.4690410000000  0.4407710000000 1.0
C      1  0.5122560000000  0.5435300000000  0.4547280000000 1.0
C      1  0.5118900000000  0.5569320000000  0.5272350000000 1.0
C      1  0.5121280000000  0.4908560000000  0.5597060000000 1.0
C      1  0.4457310000000  0.4813520000000  0.5339710000000 1.0
C      1  0.4468170000000  0.5284070000000  0.5269700000000 1.0
C      1  0.4465240000000  0.5366970000000  0.4790930000000 1.0
C      1  0.4467290000000  0.4934780000000  0.4572570000000 1.0
C      1  0.4455910000000  0.4595590000000  0.4915380000000 1.0
C      1  0.5571030000000  0.4823680000000  0.4607000000000 1.0
C      1  0.5544040000000  0.5312600000000  0.4681600000000 1.0
C      1  0.5568090000000  0.5371240000000  0.5176690000000 1.0
C      1  0.5570180000000  0.4943230000000  0.5388380000000 1.0
C      1  0.5571880000000  0.4614100000000  0.5050040000000 1.0
C      1  0.5428450000000  0.4645120000000  0.4787100000000 1.0
C      1  0.5438470000000  0.4694070000000  0.5294670000000 1.0
C      1  0.5433680000000  0.5198500000000  0.5371990000000 1.0
C      1  0.5423010000000  0.5423630000000  0.4924760000000 1.0
C      1  0.5419520000000  0.5078330000000  0.4565020000000 1.0
C      1  0.4580280000000  0.4602800000000  0.5183190000000 1.0
C      1  0.4599580000000  0.4703200000000  0.4687160000000 1.0
C      1  0.4610490000000  0.5186660000000  0.4606190000000 1.0
C      1  0.4611050000000  0.5406160000000  0.5034720000000 1.0
C      1  0.4607790000000  0.5064340000000  0.5404020000000 1.0
C      1  0.4880080000000  0.5407370000000  0.4929250000000 1.0
C      1  0.4879570000000  0.5074710000000  0.4591660000000 1.0
C      1  0.4875580000000  0.4703600000000  0.4808470000000 1.0
C      1  0.4850040000000  0.4732500000000  0.5247210000000 1.0
C      1  0.4864620000000  0.5183650000000  0.5344040000000 1.0
C      1  0.5154380000000  0.5382820000000  0.5045390000000 1.0
C      1  0.5160310000000  0.5073790000000  0.5343780000000 1.0
C      1  0.5176320000000  0.4679530000000  0.5157530000000 1.0
C      1  0.5163660000000  0.4724350000000  0.4692780000000 1.0
C      1  0.5153730000000  0.5164740000000  0.4667820000000 1.0
C      1  0.5819790000000  0.4863190000000  0.4754690000000 1.0
C      1  0.5822260000000  0.4758130000000  0.5028130000000 1.0
C      1  0.5818440000000  0.4969590000000  0.5235100000000 1.0
C      1  0.5819980000000  0.5235350000000  0.5116770000000 1.0
C      1  0.5767010000000  0.5157770000000  0.4824300000000 1.0
C      1  0.4210750000000  0.4887390000000  0.5206780000000 1.0
C      1  0.4210460000000  0.4751040000000  0.4948690000000 1.0
C      1  0.4250950000000  0.4975530000000  0.4766360000000 1.0
C      1  0.4218320000000  0.5242850000000  0.4883820000000 1.0
C      1  0.4214550000000  0.5177450000000  0.5169010000000 1.0
C      1  0.5234740000000  0.4979810000000  0.5021870000000 1.0
C      1  0.4792240000000  0.4922320000000  0.5019360000000 1.0
C      1  0.5507040000000  0.5019650000000  0.4965960000000 1.0
C      1  0.4535560000000  0.5000210000000  0.4972440000000 1.0
END
