TITL C-2441168-9922-732 0.220037950731172 125000 -20501.5720138675 0 0 178 (C1) n - 1
REM
REM in /home/bkarasulu/work/CARBON/AIRSS/Generating-Clusters/ReaxFF-fromJPCA2015/Units_Real/with-SteepDescent/Higher-Symm
REM
REM
REM
REM
REM
REM ./C.cell (1df0a924f5614ab8850e4351716899ee)
REM
REM compiler GCC version 9.2.1 20190827 (Red Hat 9.2.1-1)
REM options -cpp -mtune=generic -march=x86-64 -g -O0 -fpre-include=/usr/include/finclude/math-vector-fortran.h
REM seed -533273609 1053019049 1499893043 2052328401 1458409283 -440739607 167025646 -2063020466 -176375259 -1831473174 -250896692 -973058686 147389995 612756733 -1756860243 2057801683 1417168673 657869049 -368186743 1671598816 1664202516 1102655286 80810752 1223836193 1720240819 459777343 -1134763766 -666126578 2010198469 -600240933 434123253 919980103 1738818325
REM
CELL 1.54180   50.00000   50.00000   50.00000   90.00000   90.00000   90.00000
LATT -1
SFAC C  
C      1  0.5399550000000  0.5687990000000  0.5522400000000 1.0
C      1  0.5650420000000  0.5719590000000  0.4777450000000 1.0
C      1  0.4989080000000  0.5753650000000  0.4314900000000 1.0
C      1  0.4339700000000  0.5747270000000  0.4784920000000 1.0
C      1  0.4598440000000  0.5755760000000  0.5566470000000 1.0
C      1  0.5412430000000  0.4248150000000  0.5560520000000 1.0
C      1  0.5647400000000  0.4285710000000  0.4786710000000 1.0
C      1  0.5000220000000  0.4241760000000  0.4297790000000 1.0
C      1  0.4329550000000  0.4258770000000  0.4800360000000 1.0
C      1  0.4595480000000  0.4238300000000  0.5533540000000 1.0
C      1  0.5423090000000  0.5711100000000  0.4624180000000 1.0
C      1  0.4777660000000  0.5742860000000  0.4507890000000 1.0
C      1  0.4484320000000  0.5756900000000  0.5039890000000 1.0
C      1  0.4887750000000  0.5752180000000  0.5537540000000 1.0
C      1  0.5493010000000  0.5749410000000  0.5269480000000 1.0
C      1  0.5415490000000  0.4288430000000  0.4631540000000 1.0
C      1  0.4811500000000  0.4233690000000  0.4514390000000 1.0
C      1  0.4490440000000  0.4199980000000  0.5038610000000 1.0
C      1  0.4870550000000  0.4210540000000  0.5473770000000 1.0
C      1  0.5485610000000  0.4260430000000  0.5289250000000 1.0
C      1  0.4708250000000  0.5349820000000  0.5245550000000 1.0
C      1  0.5171640000000  0.5300530000000  0.5370970000000 1.0
C      1  0.5313880000000  0.5363420000000  0.4978780000000 1.0
C      1  0.5066260000000  0.5288330000000  0.4630920000000 1.0
C      1  0.4588040000000  0.5249890000000  0.4813710000000 1.0
C      1  0.4766230000000  0.4708380000000  0.5377330000000 1.0
C      1  0.5298950000000  0.4713310000000  0.5383650000000 1.0
C      1  0.5406460000000  0.4746340000000  0.4929200000000 1.0
C      1  0.5058730000000  0.4704420000000  0.4659770000000 1.0
C      1  0.4594590000000  0.4723970000000  0.4807360000000 1.0
C      1  0.4968230000000  0.4403960000000  0.4069000000000 1.0
C      1  0.4161780000000  0.4502190000000  0.4697550000000 1.0
C      1  0.4483890000000  0.4385630000000  0.5745240000000 1.0
C      1  0.5568480000000  0.4377910000000  0.5748930000000 1.0
C      1  0.5865710000000  0.4404140000000  0.4677630000000 1.0
C      1  0.4958680000000  0.5619140000000  0.4069340000000 1.0
C      1  0.4113340000000  0.5585850000000  0.4751430000000 1.0
C      1  0.4489930000000  0.5577020000000  0.5754890000000 1.0
C      1  0.5522920000000  0.5411240000000  0.5834600000000 1.0
C      1  0.5873180000000  0.5615990000000  0.4669130000000 1.0
C      1  0.4936100000000  0.5164180000000  0.4056930000000 1.0
C      1  0.4075170000000  0.5116790000000  0.4863090000000 1.0
C      1  0.4675850000000  0.5111880000000  0.5910090000000 1.0
C      1  0.5755970000000  0.5094140000000  0.5553190000000 1.0
C      1  0.5833930000000  0.5174480000000  0.4556040000000 1.0
C      1  0.4729780000000  0.4881830000000  0.4078770000000 1.0
C      1  0.4060660000000  0.4863250000000  0.5005250000000 1.0
C      1  0.4488850000000  0.4842020000000  0.5820310000000 1.0
C      1  0.5678920000000  0.4810570000000  0.5616710000000 1.0
C      1  0.5777700000000  0.4883090000000  0.4427770000000 1.0
C      1  0.4054630000000  0.4853100000000  0.5477400000000 1.0
C      1  0.5060460000000  0.4794680000000  0.6049750000000 1.0
C      1  0.6041260000000  0.4758800000000  0.5249250000000 1.0
C      1  0.5536430000000  0.4736630000000  0.4082170000000 1.0
C      1  0.4283830000000  0.4725530000000  0.4182700000000 1.0
C      1  0.4025710000000  0.5279540000000  0.5462430000000 1.0
C      1  0.5104670000000  0.5257640000000  0.6090920000000 1.0
C      1  0.6015040000000  0.5264180000000  0.5283650000000 1.0
C      1  0.5527560000000  0.5215520000000  0.4093120000000 1.0
C      1  0.4319980000000  0.5186670000000  0.4150740000000 1.0
C      1  0.4191780000000  0.4907910000000  0.5733610000000 1.0
C      1  0.5349590000000  0.4901060000000  0.5939550000000 1.0
C      1  0.6116330000000  0.4847700000000  0.4938680000000 1.0
C      1  0.5242000000000  0.4854100000000  0.4013230000000 1.0
C      1  0.4112600000000  0.4824420000000  0.4458960000000 1.0
C      1  0.4239700000000  0.5184510000000  0.5675030000000 1.0
C      1  0.5399260000000  0.5176270000000  0.5987670000000 1.0
C      1  0.6004850000000  0.5074580000000  0.4828760000000 1.0
C      1  0.5213970000000  0.5130160000000  0.3968620000000 1.0
C      1  0.4058720000000  0.5082570000000  0.4371190000000 1.0
C      1  0.4613780000000  0.5401510000000  0.5957230000000 1.0
C      1  0.5764620000000  0.5384270000000  0.5678430000000 1.0
C      1  0.5866750000000  0.5447280000000  0.4431170000000 1.0
C      1  0.4763720000000  0.5409200000000  0.4009130000000 1.0
C      1  0.3970350000000  0.5385020000000  0.4926530000000 1.0
C      1  0.4611800000000  0.4584100000000  0.5925540000000 1.0
C      1  0.5801560000000  0.4551900000000  0.5666430000000 1.0
C      1  0.5862270000000  0.4570850000000  0.4442980000000 1.0
C      1  0.4753290000000  0.4592900000000  0.3999470000000 1.0
C      1  0.3965940000000  0.4570720000000  0.4901810000000 1.0
C      1  0.5065820000000  0.5136700000000  0.5749500000000 1.0
C      1  0.5758520000000  0.5266950000000  0.5108110000000 1.0
C      1  0.5380070000000  0.5219190000000  0.4347870000000 1.0
C      1  0.4462310000000  0.5126780000000  0.4400540000000 1.0
C      1  0.4281500000000  0.5199240000000  0.5289470000000 1.0
C      1  0.5023720000000  0.4849650000000  0.5738760000000 1.0
C      1  0.5751080000000  0.4702630000000  0.5147280000000 1.0
C      1  0.5382760000000  0.4730720000000  0.4347150000000 1.0
C      1  0.4484400000000  0.4858820000000  0.4423210000000 1.0
C      1  0.4298040000000  0.4711440000000  0.5391390000000 1.0
C      1  0.4339810000000  0.5345650000000  0.5099350000000 1.0
C      1  0.4855010000000  0.5269560000000  0.5670130000000 1.0
C      1  0.5595900000000  0.5206570000000  0.5326940000000 1.0
C      1  0.5538740000000  0.5235140000000  0.4570080000000 1.0
C      1  0.4691070000000  0.5279190000000  0.4413640000000 1.0
C      1  0.4321820000000  0.4758430000000  0.5107040000000 1.0
C      1  0.4913880000000  0.4630430000000  0.5602070000000 1.0
C      1  0.5572530000000  0.4706610000000  0.5373520000000 1.0
C      1  0.5520170000000  0.4768670000000  0.4557470000000 1.0
C      1  0.4717900000000  0.4735600000000  0.4379620000000 1.0
C      1  0.4300730000000  0.4414290000000  0.5501180000000 1.0
C      1  0.5286670000000  0.4412930000000  0.5744160000000 1.0
C      1  0.5825250000000  0.4415000000000  0.4973650000000 1.0
C      1  0.5209110000000  0.4405010000000  0.4214440000000 1.0
C      1  0.4341630000000  0.4336120000000  0.4534840000000 1.0
C      1  0.4356800000000  0.5621220000000  0.5508020000000 1.0
C      1  0.5308680000000  0.5611190000000  0.5755380000000 1.0
C      1  0.5819140000000  0.5576760000000  0.4963990000000 1.0
C      1  0.5188910000000  0.5575220000000  0.4226870000000 1.0
C      1  0.4310340000000  0.5591960000000  0.4555020000000 1.0
C      1  0.4053000000000  0.4409620000000  0.5103730000000 1.0
C      1  0.4889350000000  0.4546700000000  0.5994100000000 1.0
C      1  0.5931460000000  0.4489610000000  0.5414340000000 1.0
C      1  0.5675070000000  0.4488850000000  0.4248690000000 1.0
C      1  0.4495510000000  0.4525400000000  0.4111800000000 1.0
C      1  0.3945340000000  0.5387040000000  0.5210460000000 1.0
C      1  0.4889810000000  0.5462360000000  0.6025450000000 1.0
C      1  0.5892740000000  0.5489320000000  0.5435390000000 1.0
C      1  0.5657460000000  0.5471800000000  0.4234220000000 1.0
C      1  0.4490940000000  0.5433110000000  0.4104180000000 1.0
C      1  0.4616550000000  0.5155670000000  0.5068800000000 1.0
C      1  0.4885530000000  0.5209200000000  0.5397940000000 1.0
C      1  0.5357990000000  0.5169680000000  0.5183310000000 1.0
C      1  0.5324780000000  0.5187830000000  0.4744040000000 1.0
C      1  0.4799170000000  0.5155740000000  0.4638570000000 1.0
C      1  0.4579130000000  0.4855230000000  0.5060640000000 1.0
C      1  0.4900150000000  0.4944380000000  0.5303990000000 1.0
C      1  0.5276290000000  0.4873090000000  0.5141170000000 1.0
C      1  0.5306010000000  0.4866070000000  0.4708440000000 1.0
C      1  0.4805220000000  0.4841730000000  0.4617800000000 1.0
C      1  0.4738950000000  0.5611140000000  0.5098280000000 1.0
C      1  0.4997450000000  0.5727040000000  0.5261310000000 1.0
C      1  0.5271930000000  0.5649430000000  0.5072750000000 1.0
C      1  0.5195190000000  0.5754340000000  0.4801860000000 1.0
C      1  0.4862240000000  0.5693290000000  0.4784580000000 1.0
C      1  0.4761590000000  0.4327690000000  0.5029990000000 1.0
C      1  0.4968780000000  0.4314330000000  0.5221080000000 1.0
C      1  0.5245310000000  0.4237380000000  0.5109910000000 1.0
C      1  0.5166550000000  0.4266340000000  0.4780360000000 1.0
C      1  0.4888870000000  0.4356140000000  0.4772190000000 1.0
C      1  0.4557990000000  0.5553360000000  0.4398200000000 1.0
C      1  0.4296620000000  0.5607290000000  0.5216950000000 1.0
C      1  0.4990120000000  0.5570930000000  0.5754380000000 1.0
C      1  0.5768170000000  0.5666570000000  0.5240450000000 1.0
C      1  0.5445900000000  0.5635980000000  0.4341420000000 1.0
C      1  0.4597350000000  0.4414140000000  0.4387710000000 1.0
C      1  0.4261090000000  0.4286960000000  0.5236440000000 1.0
C      1  0.4995830000000  0.4389390000000  0.5749370000000 1.0
C      1  0.5764920000000  0.4322010000000  0.5250750000000 1.0
C      1  0.5450510000000  0.4334680000000  0.4345900000000 1.0
C      1  0.4532750000000  0.4853510000000  0.5513470000000 1.0
C      1  0.5292620000000  0.4849130000000  0.5647320000000 1.0
C      1  0.5648980000000  0.4828430000000  0.4955610000000 1.0
C      1  0.5135170000000  0.4845200000000  0.4291150000000 1.0
C      1  0.4360120000000  0.4842240000000  0.4662350000000 1.0
C      1  0.4473150000000  0.5148450000000  0.5489900000000 1.0
C      1  0.5289460000000  0.5161260000000  0.5575840000000 1.0
C      1  0.5729660000000  0.5068830000000  0.4925350000000 1.0
C      1  0.5111450000000  0.5135740000000  0.4360460000000 1.0
C      1  0.4342490000000  0.5139330000000  0.4721870000000 1.0
C      1  0.5038260000000  0.3983380000000  0.4762060000000 1.0
C      1  0.4793510000000  0.3935100000000  0.4905200000000 1.0
C      1  0.4755200000000  0.3944730000000  0.5184130000000 1.0
C      1  0.5019450000000  0.3889830000000  0.5236670000000 1.0
C      1  0.5190900000000  0.3937270000000  0.5016940000000 1.0
C      1  0.5084570000000  0.6048110000000  0.4792840000000 1.0
C      1  0.4794360000000  0.5981570000000  0.4858370000000 1.0
C      1  0.4778300000000  0.6095740000000  0.5139960000000 1.0
C      1  0.5046380000000  0.6025580000000  0.5252620000000 1.0
C      1  0.5233110000000  0.6137150000000  0.5027460000000 1.0
C      1  0.6025380000000  0.5010790000000  0.5403290000000 1.0
C      1  0.5690280000000  0.4974020000000  0.4160380000000 1.0
C      1  0.4434700000000  0.4928410000000  0.4029710000000 1.0
C      1  0.4897760000000  0.5053020000000  0.6104630000000 1.0
C      1  0.3960880000000  0.4981890000000  0.5238870000000 1.0
C      1  0.5003000000000  0.5278780000000  0.4947940000000 1.0
C      1  0.4977290000000  0.4680130000000  0.4926770000000 1.0
C      1  0.4999290000000  0.4945460000000  0.5053360000000 1.0
END
