TITL C-2441165-58-549 1.81199748088539e-12 125000 -385.378541035978 0 0 5 (Td) n - 1
REM
REM in /home/bkarasulu/work/CARBON/AIRSS/Generating-Clusters/ReaxFF-fromJPCA2015/Units_Real/with-SteepDescent/Higher-Symm
REM
REM
REM
REM
REM
REM ./C.cell (1df0a924f5614ab8850e4351716899ee)
REM
REM compiler GCC version 9.2.1 20190827 (Red Hat 9.2.1-1)
REM options -cpp -mtune=generic -march=x86-64 -g -O0 -fpre-include=/usr/include/finclude/math-vector-fortran.h
REM seed 1487479511 -1589928229 1689889076 703949345 -176367106 525788563 1896969171 1238141459 1397043424 -1881410844 -1720024988 1636859871 1970011923 -142185981 -1914579835 492602765 1162555703 1971597273 1487009524 -1891561251 -1673082103 871687228 524554869 1738298599 -1384056713 2098172093 -1551721596 602985497 826459063 -441260668 1818104676 494001381 -1631742239
REM
CELL 1.54180   50.00000   50.00000   50.00000   90.00000   90.00000   90.00000
LATT -1
SFAC C  
C      1  0.5174360000000  0.5153310000000  0.5253860000000 1.0
C      1  0.5174360000000  0.5156430000000  0.4736470000000 1.0
C      1  0.5174360000000  0.4706790000000  0.4992470000000 1.0
C      1  0.5068740000000  0.5005510000000  0.4994270000000 1.0
C      1  0.4751900000000  0.5005510000000  0.4994270000000 1.0
END
