TITL C-2441167-4473-742 4.3786357878942e-05 125000 -11393.8665477847 0 0 72 (S12) n - 1
REM
REM in /home/bkarasulu/work/CARBON/AIRSS/Generating-Clusters/ReaxFF-fromJPCA2015/Units_Real/with-SteepDescent/Higher-Symm
REM
REM
REM
REM
REM
REM ./C.cell (1df0a924f5614ab8850e4351716899ee)
REM
REM compiler GCC version 9.2.1 20190827 (Red Hat 9.2.1-1)
REM options -cpp -mtune=generic -march=x86-64 -g -O0 -fpre-include=/usr/include/finclude/math-vector-fortran.h
REM seed 2078033738 -1515761047 -1821157957 515909547 1626665243 1519233463 1929283204 -2114965325 1884726974 -1850585360 1575208797 -902767528 -1500225537 -483617010 -520226896 -1589119275 -841725206 -191675119 1644925301 -2015278359 -1888135183 -1616796789 -55508803 -1045790662 12592893 -1698974352 -288037740 765001634 397158516 1746109524 1881733029 -2000658676 1952059649
REM
CELL 1.54180   50.00000   50.00000   50.00000   90.00000   90.00000   90.00000
LATT -1
SFAC C  
C      1  0.5122510000000  0.5536780000000  0.5643650000000 1.0
C      1  0.5122490000000  0.5825350000000  0.4857080000000 1.0
C      1  0.5122420000000  0.5288810000000  0.4213380000000 1.0
C      1  0.5122540000000  0.4463120000000  0.4356370000000 1.0
C      1  0.5122510000000  0.4174430000000  0.5143120000000 1.0
C      1  0.5122490000000  0.4711170000000  0.5786800000000 1.0
C      1  0.5123380000000  0.4462670000000  0.5642520000000 1.0
C      1  0.5123410000000  0.4174990000000  0.4855770000000 1.0
C      1  0.5123400000000  0.4712250000000  0.4213170000000 1.0
C      1  0.5123330000000  0.5537290000000  0.4357660000000 1.0
C      1  0.5123190000000  0.5824760000000  0.5144370000000 1.0
C      1  0.5123250000000  0.5287650000000  0.5786820000000 1.0
C      1  0.5364780000000  0.4398480000000  0.5507790000000 1.0
C      1  0.5364600000000  0.5139000000000  0.5775050000000 1.0
C      1  0.5364510000000  0.5740360000000  0.5267160000000 1.0
C      1  0.5364710000000  0.5601540000000  0.4492280000000 1.0
C      1  0.5364790000000  0.4861020000000  0.4224770000000 1.0
C      1  0.5364810000000  0.4259450000000  0.4732780000000 1.0
C      1  0.5365030000000  0.5602270000000  0.5507650000000 1.0
C      1  0.5364790000000  0.4861700000000  0.5775300000000 1.0
C      1  0.5364780000000  0.4259760000000  0.5267690000000 1.0
C      1  0.5364890000000  0.4397800000000  0.4492450000000 1.0
C      1  0.5364800000000  0.5138330000000  0.4224660000000 1.0
C      1  0.5364980000000  0.5740430000000  0.4732310000000 1.0
C      1  0.5544480000000  0.5546470000000  0.4855330000000 1.0
C      1  0.5544050000000  0.5148020000000  0.4454270000000 1.0
C      1  0.5543990000000  0.4601670000000  0.4598800000000 1.0
C      1  0.5543650000000  0.4453980000000  0.5144320000000 1.0
C      1  0.5543860000000  0.4852100000000  0.5545500000000 1.0
C      1  0.5544540000000  0.5398700000000  0.5401180000000 1.0
C      1  0.5544890000000  0.4453150000000  0.4855900000000 1.0
C      1  0.5544990000000  0.4851110000000  0.4453970000000 1.0
C      1  0.5544730000000  0.5397930000000  0.4598200000000 1.0
C      1  0.5544170000000  0.5546580000000  0.5143740000000 1.0
C      1  0.5544410000000  0.5148960000000  0.5545560000000 1.0
C      1  0.5544820000000  0.4602050000000  0.5401660000000 1.0
C      1  0.4635140000000  0.4224910000000  0.4861580000000 1.0
C      1  0.4635150000000  0.4492650000000  0.5602140000000 1.0
C      1  0.4634940000000  0.5267840000000  0.5740870000000 1.0
C      1  0.4634790000000  0.5775200000000  0.5138530000000 1.0
C      1  0.4635110000000  0.5507310000000  0.4397920000000 1.0
C      1  0.4635200000000  0.4732140000000  0.4259300000000 1.0
C      1  0.4635350000000  0.5774560000000  0.4861200000000 1.0
C      1  0.4635470000000  0.5507690000000  0.5601690000000 1.0
C      1  0.4635380000000  0.4732930000000  0.5740590000000 1.0
C      1  0.4635410000000  0.4225370000000  0.5138900000000 1.0
C      1  0.4635420000000  0.4492200000000  0.4398320000000 1.0
C      1  0.4635280000000  0.5267080000000  0.4259380000000 1.0
C      1  0.4455070000000  0.5545820000000  0.5148080000000 1.0
C      1  0.4455650000000  0.5400840000000  0.4601440000000 1.0
C      1  0.4455730000000  0.4855280000000  0.4453220000000 1.0
C      1  0.4455620000000  0.4454420000000  0.4851930000000 1.0
C      1  0.4455690000000  0.4599170000000  0.5398590000000 1.0
C      1  0.4455310000000  0.5144870000000  0.5546930000000 1.0
C      1  0.4455740000000  0.4454890000000  0.5148840000000 1.0
C      1  0.4455590000000  0.4598340000000  0.4601960000000 1.0
C      1  0.4455230000000  0.5143720000000  0.4452910000000 1.0
C      1  0.4455630000000  0.5545100000000  0.4851150000000 1.0
C      1  0.4455850000000  0.5401610000000  0.5397880000000 1.0
C      1  0.4455670000000  0.4856400000000  0.5546850000000 1.0
C      1  0.4876700000000  0.5786310000000  0.4712580000000 1.0
C      1  0.4876670000000  0.5144120000000  0.4174870000000 1.0
C      1  0.4876780000000  0.4357590000000  0.4462530000000 1.0
C      1  0.4876760000000  0.4213540000000  0.5287630000000 1.0
C      1  0.4876710000000  0.4855830000000  0.5825230000000 1.0
C      1  0.4876730000000  0.5642280000000  0.5537570000000 1.0
C      1  0.4877620000000  0.4213590000000  0.4711140000000 1.0
C      1  0.4877630000000  0.4856790000000  0.4174290000000 1.0
C      1  0.4877550000000  0.5643220000000  0.4463450000000 1.0
C      1  0.4877380000000  0.5786350000000  0.5289000000000 1.0
C      1  0.4877460000000  0.5143160000000  0.5825800000000 1.0
C      1  0.4877610000000  0.4356760000000  0.5536710000000 1.0
END
