TITL C-2441159-1093-825 0.047523699454088 125000 -26864.0242274857 0 0 182 (C1) n - 1
REM
REM in /home/bkarasulu/work/CARBON/AIRSS/Generating-Clusters/ReaxFF-fromJPCA2015/Units_Real/with-SteepDescent/Higher-Symm
REM
REM
REM
REM
REM
REM ./C.cell (1df0a924f5614ab8850e4351716899ee)
REM
REM compiler GCC version 9.2.1 20190827 (Red Hat 9.2.1-1)
REM options -cpp -mtune=generic -march=x86-64 -g -O0 -fpre-include=/usr/include/finclude/math-vector-fortran.h
REM seed 934510955 -1564022590 2093315919 -725177892 813045547 -1235551625 -109846172 -1234732074 -822559442 477345489 -1601562352 1143405556 2030011395 -1834292074 -593535307 -126656746 481406259 -879861037 1546458438 640628475 2102001800 -1759832482 -1258481550 1671427389 1357100811 -332976147 -1890564828 1432982554 626243306 -1476737125 -1228402453 138559420 1536147354
REM
CELL 1.54180   50.00000   50.00000   50.00000   90.00000   90.00000   90.00000
LATT -1
SFAC C  
C      1  0.5725400000000  0.4239150000000  0.5249410000000 1.0
C      1  0.5796740000000  0.5755220000000  0.4789800000000 1.0
C      1  0.4303570000000  0.5834140000000  0.5216130000000 1.0
C      1  0.4286240000000  0.4177410000000  0.4773560000000 1.0
C      1  0.5790460000000  0.5148220000000  0.5837830000000 1.0
C      1  0.5754540000000  0.4924790000000  0.4164380000000 1.0
C      1  0.4183960000000  0.4738330000000  0.5841300000000 1.0
C      1  0.4199820000000  0.5161890000000  0.4145840000000 1.0
C      1  0.4274730000000  0.4893440000000  0.4182380000000 1.0
C      1  0.4332630000000  0.5016280000000  0.5737410000000 1.0
C      1  0.5648220000000  0.5182380000000  0.4292050000000 1.0
C      1  0.5679970000000  0.4909890000000  0.5686190000000 1.0
C      1  0.4391630000000  0.4502700000000  0.4230600000000 1.0
C      1  0.4403990000000  0.5433570000000  0.5764890000000 1.0
C      1  0.5617770000000  0.5649890000000  0.4406100000000 1.0
C      1  0.5541220000000  0.4529550000000  0.5733450000000 1.0
C      1  0.5614140000000  0.5316050000000  0.5332550000000 1.0
C      1  0.5560730000000  0.4685840000000  0.4657950000000 1.0
C      1  0.4466630000000  0.4645060000000  0.5349000000000 1.0
C      1  0.4543460000000  0.5347610000000  0.4731740000000 1.0
C      1  0.4946100000000  0.4853340000000  0.5817880000000 1.0
C      1  0.4878740000000  0.5069850000000  0.4183810000000 1.0
C      1  0.5072100000000  0.5177400000000  0.5843420000000 1.0
C      1  0.5045570000000  0.4821880000000  0.4160450000000 1.0
C      1  0.5292850000000  0.5247320000000  0.4637990000000 1.0
C      1  0.5276310000000  0.4765750000000  0.5333740000000 1.0
C      1  0.4622460000000  0.4686030000000  0.4755970000000 1.0
C      1  0.4652480000000  0.5306390000000  0.5269270000000 1.0
C      1  0.4657750000000  0.4644690000000  0.5107730000000 1.0
C      1  0.4745390000000  0.5270050000000  0.4950080000000 1.0
C      1  0.5483780000000  0.5266370000000  0.5072010000000 1.0
C      1  0.5425060000000  0.4758600000000  0.4903550000000 1.0
C      1  0.5258850000000  0.4348900000000  0.4193670000000 1.0
C      1  0.5249260000000  0.5677070000000  0.5785440000000 1.0
C      1  0.4712470000000  0.5727930000000  0.4130190000000 1.0
C      1  0.4803940000000  0.4302330000000  0.5797320000000 1.0
C      1  0.5249070000000  0.4053990000000  0.5838170000000 1.0
C      1  0.5171540000000  0.5778370000000  0.4225670000000 1.0
C      1  0.4762260000000  0.5798250000000  0.5810630000000 1.0
C      1  0.4788680000000  0.4186530000000  0.4220790000000 1.0
C      1  0.3980450000000  0.5043860000000  0.4755890000000 1.0
C      1  0.3895150000000  0.5023960000000  0.5251600000000 1.0
C      1  0.6039950000000  0.4992330000000  0.4755680000000 1.0
C      1  0.6092590000000  0.5019950000000  0.5290210000000 1.0
C      1  0.4775690000000  0.4161200000000  0.5548190000000 1.0
C      1  0.4763950000000  0.5893270000000  0.4373980000000 1.0
C      1  0.5233220000000  0.5805010000000  0.5514110000000 1.0
C      1  0.5233830000000  0.4241950000000  0.4464570000000 1.0
C      1  0.5110600000000  0.4799720000000  0.4931730000000 1.0
C      1  0.5212650000000  0.5250740000000  0.5163220000000 1.0
C      1  0.4923150000000  0.5012450000000  0.4881150000000 1.0
C      1  0.4826470000000  0.4830600000000  0.5288960000000 1.0
C      1  0.4373360000000  0.5349580000000  0.5337190000000 1.0
C      1  0.4353440000000  0.4675740000000  0.4657470000000 1.0
C      1  0.5494360000000  0.4691660000000  0.5164600000000 1.0
C      1  0.5522830000000  0.5325150000000  0.4805690000000 1.0
C      1  0.4256870000000  0.5262180000000  0.5584410000000 1.0
C      1  0.4272240000000  0.4703490000000  0.4391220000000 1.0
C      1  0.5731540000000  0.4630300000000  0.5561030000000 1.0
C      1  0.5760630000000  0.5408240000000  0.4448260000000 1.0
C      1  0.4063280000000  0.5319170000000  0.4318390000000 1.0
C      1  0.4002390000000  0.4716980000000  0.5634690000000 1.0
C      1  0.5899520000000  0.4721300000000  0.4320810000000 1.0
C      1  0.5932220000000  0.5327050000000  0.5679000000000 1.0
C      1  0.5081540000000  0.5407640000000  0.4541030000000 1.0
C      1  0.5134920000000  0.4566110000000  0.5463690000000 1.0
C      1  0.4812430000000  0.4539150000000  0.4567810000000 1.0
C      1  0.4849050000000  0.5430480000000  0.5475440000000 1.0
C      1  0.5521390000000  0.4790680000000  0.4032550000000 1.0
C      1  0.5547580000000  0.5268280000000  0.5960970000000 1.0
C      1  0.4715100000000  0.5320120000000  0.3904570000000 1.0
C      1  0.4558240000000  0.4707610000000  0.6001320000000 1.0
C      1  0.4739550000000  0.4915580000000  0.6048840000000 1.0
C      1  0.4684190000000  0.5034400000000  0.3976010000000 1.0
C      1  0.5314140000000  0.5103940000000  0.6002610000000 1.0
C      1  0.5280940000000  0.4941360000000  0.3993160000000 1.0
C      1  0.4194420000000  0.5723490000000  0.4744640000000 1.0
C      1  0.4128880000000  0.4300050000000  0.5256410000000 1.0
C      1  0.5893320000000  0.4309110000000  0.4763550000000 1.0
C      1  0.5902160000000  0.5694900000000  0.5261600000000 1.0
C      1  0.5496950000000  0.5537920000000  0.5863350000000 1.0
C      1  0.5503590000000  0.4506630000000  0.4119400000000 1.0
C      1  0.4559910000000  0.4439950000000  0.5911670000000 1.0
C      1  0.4541440000000  0.5504620000000  0.4066600000000 1.0
C      1  0.5334350000000  0.4110850000000  0.5095670000000 1.0
C      1  0.5402670000000  0.5906540000000  0.4835170000000 1.0
C      1  0.4712380000000  0.5847780000000  0.5078350000000 1.0
C      1  0.4664090000000  0.3988070000000  0.4923960000000 1.0
C      1  0.4678770000000  0.5941050000000  0.5584270000000 1.0
C      1  0.4742340000000  0.4050120000000  0.4465230000000 1.0
C      1  0.5370410000000  0.4050770000000  0.5610020000000 1.0
C      1  0.5043480000000  0.5913130000000  0.4447700000000 1.0
C      1  0.5281900000000  0.4441790000000  0.5671420000000 1.0
C      1  0.5417010000000  0.5615430000000  0.4211220000000 1.0
C      1  0.4662460000000  0.5549380000000  0.5672090000000 1.0
C      1  0.4652320000000  0.4423790000000  0.4341000000000 1.0
C      1  0.4866250000000  0.4428080000000  0.5110160000000 1.0
C      1  0.4882620000000  0.5518740000000  0.4945380000000 1.0
C      1  0.5079650000000  0.5498430000000  0.5139450000000 1.0
C      1  0.5072760000000  0.4506030000000  0.4920600000000 1.0
C      1  0.5475780000000  0.5845310000000  0.5371970000000 1.0
C      1  0.5470770000000  0.4155490000000  0.4591190000000 1.0
C      1  0.4515830000000  0.4130550000000  0.5424740000000 1.0
C      1  0.4584560000000  0.5858210000000  0.4599420000000 1.0
C      1  0.4592120000000  0.5980400000000  0.4872690000000 1.0
C      1  0.4485960000000  0.4010290000000  0.5164060000000 1.0
C      1  0.5507210000000  0.4070270000000  0.4865580000000 1.0
C      1  0.5520770000000  0.5938380000000  0.5101850000000 1.0
C      1  0.4996600000000  0.5645600000000  0.5928990000000 1.0
C      1  0.4995030000000  0.4350550000000  0.4065660000000 1.0
C      1  0.5077380000000  0.4376270000000  0.5888110000000 1.0
C      1  0.4978250000000  0.5663490000000  0.4033540000000 1.0
C      1  0.3951190000000  0.4511240000000  0.5189130000000 1.0
C      1  0.4010080000000  0.5502780000000  0.4778890000000 1.0
C      1  0.6056270000000  0.5467130000000  0.5210420000000 1.0
C      1  0.6038560000000  0.4549140000000  0.4801130000000 1.0
C      1  0.5592720000000  0.5855420000000  0.4620700000000 1.0
C      1  0.5486990000000  0.4104990000000  0.5347110000000 1.0
C      1  0.4535840000000  0.4033920000000  0.4663930000000 1.0
C      1  0.4561550000000  0.5939360000000  0.5328180000000 1.0
C      1  0.4929490000000  0.4056860000000  0.4841340000000 1.0
C      1  0.4960510000000  0.5928990000000  0.5054960000000 1.0
C      1  0.5104600000000  0.5882390000000  0.4781760000000 1.0
C      1  0.5052680000000  0.4047570000000  0.5107170000000 1.0
C      1  0.3987000000000  0.5288140000000  0.4593470000000 1.0
C      1  0.3898410000000  0.4726350000000  0.5381330000000 1.0
C      1  0.6032210000000  0.4750910000000  0.4588390000000 1.0
C      1  0.6061680000000  0.5283190000000  0.5428830000000 1.0
C      1  0.5767310000000  0.4155090000000  0.4976390000000 1.0
C      1  0.5797760000000  0.5855400000000  0.5058900000000 1.0
C      1  0.4306410000000  0.5909410000000  0.4939580000000 1.0
C      1  0.4235440000000  0.4114270000000  0.5054550000000 1.0
C      1  0.3782300000000  0.5266680000000  0.5297690000000 1.0
C      1  0.3840430000000  0.4776320000000  0.4744440000000 1.0
C      1  0.6224880000000  0.4763350000000  0.5311540000000 1.0
C      1  0.6245010000000  0.5229330000000  0.4766120000000 1.0
C      1  0.5513760000000  0.4905660000000  0.4487750000000 1.0
C      1  0.5521960000000  0.5104760000000  0.5489940000000 1.0
C      1  0.4643500000000  0.5184750000000  0.4525830000000 1.0
C      1  0.4462750000000  0.4888520000000  0.5491440000000 1.0
C      1  0.4921970000000  0.5379950000000  0.6014560000000 1.0
C      1  0.4903760000000  0.4609170000000  0.3980980000000 1.0
C      1  0.5078360000000  0.4661950000000  0.6000120000000 1.0
C      1  0.4998720000000  0.5398210000000  0.3919210000000 1.0
C      1  0.5017420000000  0.4797230000000  0.4472880000000 1.0
C      1  0.5048210000000  0.5246630000000  0.5567970000000 1.0
C      1  0.4875440000000  0.5277070000000  0.4388110000000 1.0
C      1  0.4921400000000  0.4726040000000  0.5542760000000 1.0
C      1  0.4440470000000  0.5606150000000  0.4634280000000 1.0
C      1  0.4339120000000  0.4379940000000  0.5464060000000 1.0
C      1  0.5675250000000  0.4387480000000  0.4562810000000 1.0
C      1  0.5687880000000  0.5627770000000  0.5432610000000 1.0
C      1  0.3942600000000  0.4541250000000  0.4888650000000 1.0
C      1  0.4024350000000  0.5421290000000  0.5056090000000 1.0
C      1  0.6055620000000  0.5384960000000  0.4923190000000 1.0
C      1  0.6005030000000  0.4645540000000  0.5091970000000 1.0
C      1  0.5020950000000  0.4324520000000  0.4681560000000 1.0
C      1  0.5045450000000  0.5743130000000  0.5287320000000 1.0
C      1  0.4996220000000  0.5613560000000  0.4716170000000 1.0
C      1  0.4958090000000  0.4240750000000  0.5319530000000 1.0
C      1  0.4666480000000  0.4750420000000  0.3894810000000 1.0
C      1  0.4694810000000  0.5214000000000  0.6083970000000 1.0
C      1  0.5245840000000  0.5228900000000  0.3959960000000 1.0
C      1  0.5315560000000  0.4820510000000  0.6057990000000 1.0
C      1  0.5783180000000  0.5440610000000  0.4735470000000 1.0
C      1  0.5745240000000  0.4539350000000  0.5282490000000 1.0
C      1  0.4196910000000  0.4448660000000  0.4754650000000 1.0
C      1  0.4222430000000  0.5558830000000  0.5217340000000 1.0
C      1  0.5741870000000  0.4481360000000  0.4278770000000 1.0
C      1  0.5752870000000  0.5544770000000  0.5722960000000 1.0
C      1  0.4307740000000  0.5422700000000  0.4209750000000 1.0
C      1  0.4302620000000  0.4476330000000  0.5778900000000 1.0
C      1  0.5219360000000  0.5082170000000  0.5396280000000 1.0
C      1  0.5242520000000  0.4966320000000  0.4563620000000 1.0
C      1  0.4656140000000  0.5042410000000  0.5360530000000 1.0
C      1  0.4767070000000  0.4938530000000  0.4641140000000 1.0
C      1  0.5554620000000  0.4734990000000  0.5916800000000 1.0
C      1  0.5449360000000  0.5343690000000  0.4124070000000 1.0
C      1  0.4436170000000  0.5224350000000  0.5956340000000 1.0
C      1  0.4399330000000  0.4692480000000  0.4006230000000 1.0
C      1  0.5958290000000  0.4930230000000  0.5031260000000 1.0
C      1  0.4057440000000  0.5128790000000  0.5023890000000 1.0
END
