TITL C-2441158-471-1011 0.104804933495978 125000 -10896.3984111979 0 0 96 (C1) n - 1
REM
REM in /home/bkarasulu/work/CARBON/AIRSS/Generating-Clusters/ReaxFF-fromJPCA2015/Units_Real/with-SteepDescent/Higher-Symm
REM
REM
REM
REM
REM
REM ./C.cell (1df0a924f5614ab8850e4351716899ee)
REM
REM compiler GCC version 9.2.1 20190827 (Red Hat 9.2.1-1)
REM options -cpp -mtune=generic -march=x86-64 -g -O0 -fpre-include=/usr/include/finclude/math-vector-fortran.h
REM seed 1131287417 -1486553685 -1926862740 -287887630 -1580710950 585445478 -127165939 -577684304 1655531591 570301872 1101208249 255785269 -94705660 1614837765 -1344576488 66115021 -585415754 -1153789469 -250157381 752154719 1833693613 -681409740 -841280895 2018496642 -1236421607 2024985205 263712905 784882003 2063966450 -1183748568 -2129140037 -308782722 -140554208
REM
CELL 1.54180   50.00000   50.00000   50.00000   90.00000   90.00000   90.00000
LATT -1
SFAC C  
C      1  0.4964450000000  0.4610840000000  0.4354280000000 1.0
C      1  0.4949470000000  0.4604950000000  0.5594160000000 1.0
C      1  0.4309240000000  0.5280280000000  0.5439150000000 1.0
C      1  0.4340140000000  0.5249500000000  0.4512660000000 1.0
C      1  0.5449140000000  0.5094650000000  0.5199470000000 1.0
C      1  0.5464080000000  0.5079560000000  0.4757070000000 1.0
C      1  0.4513160000000  0.5034990000000  0.4553910000000 1.0
C      1  0.4550920000000  0.5091540000000  0.5343900000000 1.0
C      1  0.5932090000000  0.4936600000000  0.5212290000000 1.0
C      1  0.5922040000000  0.4953930000000  0.4766570000000 1.0
C      1  0.5776320000000  0.4916380000000  0.4524650000000 1.0
C      1  0.5771160000000  0.4893140000000  0.5440050000000 1.0
C      1  0.4473130000000  0.4694710000000  0.5398010000000 1.0
C      1  0.4477670000000  0.4732320000000  0.4512590000000 1.0
C      1  0.4730950000000  0.5566790000000  0.4581720000000 1.0
C      1  0.4759030000000  0.5549140000000  0.5490550000000 1.0
C      1  0.4777860000000  0.5405860000000  0.5242380000000 1.0
C      1  0.4849210000000  0.5334350000000  0.4713820000000 1.0
C      1  0.4875350000000  0.5292890000000  0.5613950000000 1.0
C      1  0.4963370000000  0.5191220000000  0.4308620000000 1.0
C      1  0.5396960000000  0.4723680000000  0.4460550000000 1.0
C      1  0.5402890000000  0.4705160000000  0.5514410000000 1.0
C      1  0.5006180000000  0.4962620000000  0.5278060000000 1.0
C      1  0.4970920000000  0.4902000000000  0.4712000000000 1.0
C      1  0.5280750000000  0.5430970000000  0.4431360000000 1.0
C      1  0.5262320000000  0.5390930000000  0.5525400000000 1.0
C      1  0.5057930000000  0.4356260000000  0.5468850000000 1.0
C      1  0.5062710000000  0.4384850000000  0.4510180000000 1.0
C      1  0.4575930000000  0.4486170000000  0.4608660000000 1.0
C      1  0.4552780000000  0.4428040000000  0.5356420000000 1.0
C      1  0.5469840000000  0.5187120000000  0.5470220000000 1.0
C      1  0.5464920000000  0.5191180000000  0.4495560000000 1.0
C      1  0.5150100000000  0.5641090000000  0.4574780000000 1.0
C      1  0.5181970000000  0.5620880000000  0.5399050000000 1.0
C      1  0.5010370000000  0.5243830000000  0.5356600000000 1.0
C      1  0.5072980000000  0.5252640000000  0.4555240000000 1.0
C      1  0.5504440000000  0.4561950000000  0.4679710000000 1.0
C      1  0.5515060000000  0.4534400000000  0.5293390000000 1.0
C      1  0.4695960000000  0.4755710000000  0.5574690000000 1.0
C      1  0.4703740000000  0.4747170000000  0.4313220000000 1.0
C      1  0.4971630000000  0.5742130000000  0.5292380000000 1.0
C      1  0.4935830000000  0.5760510000000  0.4707790000000 1.0
C      1  0.5316200000000  0.4351650000000  0.5322540000000 1.0
C      1  0.5320190000000  0.4359500000000  0.4648560000000 1.0
C      1  0.4843840000000  0.4068230000000  0.4786810000000 1.0
C      1  0.4878190000000  0.4080750000000  0.5222610000000 1.0
C      1  0.4449070000000  0.5491610000000  0.4592300000000 1.0
C      1  0.4446520000000  0.5529400000000  0.5455360000000 1.0
C      1  0.4812290000000  0.4307160000000  0.5360290000000 1.0
C      1  0.4791330000000  0.4295030000000  0.4612420000000 1.0
C      1  0.5559550000000  0.4938310000000  0.5614950000000 1.0
C      1  0.5555930000000  0.4945790000000  0.4348370000000 1.0
C      1  0.5118530000000  0.4801980000000  0.5485140000000 1.0
C      1  0.5104870000000  0.4848280000000  0.4462940000000 1.0
C      1  0.4721740000000  0.5046740000000  0.4323530000000 1.0
C      1  0.4707240000000  0.5057740000000  0.5590660000000 1.0
C      1  0.5712240000000  0.4361530000000  0.4990210000000 1.0
C      1  0.5442860000000  0.5280090000000  0.4982030000000 1.0
C      1  0.5099690000000  0.6043870000000  0.4957090000000 1.0
C      1  0.4595390000000  0.4815570000000  0.4952220000000 1.0
C      1  0.5664880000000  0.4637660000000  0.4972390000000 1.0
C      1  0.4516710000000  0.4327760000000  0.5060100000000 1.0
C      1  0.4357490000000  0.5954380000000  0.4997060000000 1.0
C      1  0.4692500000000  0.4562630000000  0.4975620000000 1.0
C      1  0.4971200000000  0.5830480000000  0.5013060000000 1.0
C      1  0.4293870000000  0.5064300000000  0.4961820000000 1.0
C      1  0.4378080000000  0.5452280000000  0.4909690000000 1.0
C      1  0.5224640000000  0.4637300000000  0.5025740000000 1.0
C      1  0.4671370000000  0.5078860000000  0.5064490000000 1.0
C      1  0.5626230000000  0.5453240000000  0.4967490000000 1.0
C      1  0.5231250000000  0.5410610000000  0.4980930000000 1.0
C      1  0.4085920000000  0.4494750000000  0.4944700000000 1.0
C      1  0.5075640000000  0.4091420000000  0.4991190000000 1.0
C      1  0.5050680000000  0.5009770000000  0.4987860000000 1.0
C      1  0.4653680000000  0.5513340000000  0.5018120000000 1.0
C      1  0.4220460000000  0.4309090000000  0.4957910000000 1.0
C      1  0.5467130000000  0.5873440000000  0.4992800000000 1.0
C      1  0.5678860000000  0.5709030000000  0.5017760000000 1.0
C      1  0.5820320000000  0.5115080000000  0.5001790000000 1.0
C      1  0.5110910000000  0.4387950000000  0.4981160000000 1.0
C      1  0.5466460000000  0.4220040000000  0.4958210000000 1.0
C      1  0.4168680000000  0.5287060000000  0.5015550000000 1.0
C      1  0.4986280000000  0.5294180000000  0.4964340000000 1.0
C      1  0.5876510000000  0.5372650000000  0.4923330000000 1.0
C      1  0.4051130000000  0.4765480000000  0.5004580000000 1.0
C      1  0.4008240000000  0.5054260000000  0.4973280000000 1.0
C      1  0.5380930000000  0.3953880000000  0.5001540000000 1.0
C      1  0.5997010000000  0.5625630000000  0.4989310000000 1.0
C      1  0.4353020000000  0.4818280000000  0.5100960000000 1.0
C      1  0.4585230000000  0.5807110000000  0.4997860000000 1.0
C      1  0.4957790000000  0.4578130000000  0.4942740000000 1.0
C      1  0.4261560000000  0.5721310000000  0.4990030000000 1.0
C      1  0.4672720000000  0.4066030000000  0.5014960000000 1.0
C      1  0.5946830000000  0.4738500000000  0.4976550000000 1.0
C      1  0.5336210000000  0.4916630000000  0.4992150000000 1.0
C      1  0.5330780000000  0.6076620000000  0.4979920000000 1.0
END
