TITL C-2441163-1170-1392 0.0019366827390535 125000 -17231.6346804864 0 0 110 (C1) n - 1
REM
REM in /home/bkarasulu/work/CARBON/AIRSS/Generating-Clusters/ReaxFF-fromJPCA2015/Units_Real/with-SteepDescent/Higher-Symm
REM
REM
REM
REM
REM
REM ./C.cell (1df0a924f5614ab8850e4351716899ee)
REM
REM compiler GCC version 9.2.1 20190827 (Red Hat 9.2.1-1)
REM options -cpp -mtune=generic -march=x86-64 -g -O0 -fpre-include=/usr/include/finclude/math-vector-fortran.h
REM seed 1019585289 -503694940 -289775163 716825980 -437136604 2130511053 1477468899 -1519812687 948333809 1334888318 1607009230 -1641410544 -1808448326 1395624271 -1278105469 -355442027 1047151573 164954992 1360484004 -177682537 -452051139 -1900727549 -582710019 1463797124 -146703985 -1200802899 407917441 -582470230 644194556 -1282028853 595026596 -627254753 1707605293
REM
CELL 1.54180   50.00000   50.00000   50.00000   90.00000   90.00000   90.00000
LATT -1
SFAC C  
C      1  0.4632490000000  0.4894140000000  0.4749050000000 1.0
C      1  0.5067770000000  0.5080710000000  0.4762880000000 1.0
C      1  0.5168910000000  0.4821740000000  0.4668090000000 1.0
C      1  0.5289680000000  0.5247650000000  0.4864380000000 1.0
C      1  0.5326700000000  0.4751440000000  0.4910610000000 1.0
C      1  0.5340840000000  0.5195980000000  0.5156740000000 1.0
C      1  0.5157330000000  0.4758370000000  0.5160600000000 1.0
C      1  0.5155320000000  0.5134000000000  0.5366660000000 1.0
C      1  0.4960490000000  0.4952500000000  0.5259990000000 1.0
C      1  0.4684270000000  0.5017790000000  0.5148730000000 1.0
C      1  0.4604310000000  0.4767940000000  0.5008480000000 1.0
C      1  0.4783760000000  0.5109060000000  0.4860320000000 1.0
C      1  0.5341270000000  0.4701290000000  0.5851170000000 1.0
C      1  0.4886270000000  0.5273280000000  0.5812410000000 1.0
C      1  0.4436880000000  0.4710720000000  0.5686070000000 1.0
C      1  0.4210950000000  0.5255170000000  0.5274300000000 1.0
C      1  0.4098590000000  0.4674380000000  0.4848720000000 1.0
C      1  0.4290640000000  0.5274580000000  0.4442860000000 1.0
C      1  0.4704930000000  0.4706730000000  0.4238730000000 1.0
C      1  0.5140300000000  0.5288950000000  0.4149760000000 1.0
C      1  0.5553760000000  0.4708830000000  0.4344940000000 1.0
C      1  0.5781800000000  0.5310790000000  0.4726770000000 1.0
C      1  0.5784600000000  0.4677520000000  0.5145660000000 1.0
C      1  0.5677270000000  0.5311430000000  0.5562120000000 1.0
C      1  0.4532660000000  0.4863620000000  0.4415250000000 1.0
C      1  0.4913820000000  0.5117140000000  0.4113530000000 1.0
C      1  0.5307330000000  0.4867430000000  0.4341850000000 1.0
C      1  0.5563050000000  0.5144280000000  0.4624500000000 1.0
C      1  0.5677400000000  0.4854960000000  0.4944710000000 1.0
C      1  0.5632830000000  0.5134990000000  0.5315670000000 1.0
C      1  0.5572710000000  0.4863270000000  0.5788580000000 1.0
C      1  0.5115720000000  0.5127250000000  0.5715000000000 1.0
C      1  0.4615860000000  0.4869530000000  0.5848610000000 1.0
C      1  0.4406490000000  0.5086900000000  0.5397980000000 1.0
C      1  0.4047230000000  0.4842190000000  0.5076780000000 1.0
C      1  0.4117890000000  0.5114730000000  0.4600250000000 1.0
C      1  0.5035260000000  0.4502720000000  0.5263530000000 1.0
C      1  0.4886680000000  0.5714640000000  0.5281030000000 1.0
C      1  0.4728980000000  0.4504460000000  0.5137250000000 1.0
C      1  0.4720300000000  0.5667850000000  0.5035860000000 1.0
C      1  0.4793340000000  0.4332070000000  0.4874510000000 1.0
C      1  0.4855040000000  0.5611360000000  0.4790300000000 1.0
C      1  0.5017730000000  0.4495990000000  0.4682700000000 1.0
C      1  0.5152360000000  0.5550340000000  0.4782550000000 1.0
C      1  0.5273410000000  0.4447740000000  0.4815030000000 1.0
C      1  0.5302070000000  0.5781100000000  0.4988080000000 1.0
C      1  0.5217860000000  0.4281450000000  0.5097080000000 1.0
C      1  0.5171590000000  0.5739110000000  0.5272380000000 1.0
C      1  0.4270060000000  0.4441420000000  0.5209290000000 1.0
C      1  0.4271490000000  0.5506430000000  0.4829510000000 1.0
C      1  0.4465160000000  0.4425120000000  0.4496840000000 1.0
C      1  0.4789770000000  0.5531530000000  0.4304650000000 1.0
C      1  0.5190590000000  0.4436010000000  0.4258390000000 1.0
C      1  0.5524810000000  0.5583340000000  0.4475530000000 1.0
C      1  0.5731330000000  0.4411250000000  0.4788740000000 1.0
C      1  0.5738220000000  0.5586980000000  0.5192490000000 1.0
C      1  0.5531490000000  0.4424310000000  0.5506870000000 1.0
C      1  0.5226670000000  0.5562900000000  0.5738820000000 1.0
C      1  0.4825790000000  0.4464620000000  0.5727330000000 1.0
C      1  0.4497570000000  0.5529650000000  0.5527290000000 1.0
C      1  0.5691350000000  0.4869560000000  0.4532280000000 1.0
C      1  0.5831390000000  0.5136070000000  0.4943770000000 1.0
C      1  0.5734740000000  0.4844640000000  0.5359010000000 1.0
C      1  0.5570780000000  0.5163240000000  0.5787750000000 1.0
C      1  0.5104380000000  0.4858840000000  0.5860960000000 1.0
C      1  0.4639990000000  0.5150200000000  0.5812820000000 1.0
C      1  0.4292490000000  0.4842510000000  0.5487970000000 1.0
C      1  0.4064070000000  0.5131220000000  0.5072110000000 1.0
C      1  0.4121460000000  0.4817260000000  0.4601310000000 1.0
C      1  0.4473490000000  0.5130100000000  0.4302660000000 1.0
C      1  0.4916340000000  0.4835050000000  0.4121840000000 1.0
C      1  0.5361810000000  0.5143340000000  0.4241020000000 1.0
C      1  0.5840650000000  0.5304960000000  0.5171750000000 1.0
C      1  0.5666100000000  0.4687730000000  0.5578380000000 1.0
C      1  0.5322340000000  0.5302480000000  0.5821970000000 1.0
C      1  0.4858480000000  0.4714410000000  0.5880750000000 1.0
C      1  0.4481690000000  0.5256850000000  0.5617940000000 1.0
C      1  0.4150860000000  0.4693410000000  0.5298550000000 1.0
C      1  0.4098550000000  0.5271850000000  0.4835840000000 1.0
C      1  0.4312890000000  0.4671630000000  0.4447190000000 1.0
C      1  0.4692400000000  0.5274970000000  0.4197540000000 1.0
C      1  0.5155740000000  0.4706620000000  0.4160160000000 1.0
C      1  0.5541090000000  0.5306030000000  0.4383020000000 1.0
C      1  0.5795670000000  0.4692230000000  0.4729130000000 1.0
C      1  0.4395340000000  0.5507790000000  0.4574380000000 1.0
C      1  0.4715690000000  0.4438160000000  0.4338690000000 1.0
C      1  0.5077060000000  0.5543990000000  0.4278880000000 1.0
C      1  0.5463030000000  0.4433160000000  0.4370150000000 1.0
C      1  0.5696230000000  0.5595940000000  0.4715520000000 1.0
C      1  0.5719150000000  0.4394900000000  0.5084620000000 1.0
C      1  0.5617260000000  0.5579320000000  0.5459620000000 1.0
C      1  0.5307720000000  0.4452080000000  0.5687940000000 1.0
C      1  0.4935740000000  0.5549260000000  0.5745890000000 1.0
C      1  0.4560090000000  0.4459780000000  0.5607020000000 1.0
C      1  0.4321480000000  0.5523160000000  0.5294430000000 1.0
C      1  0.4264060000000  0.4434980000000  0.4916880000000 1.0
C      1  0.4759870000000  0.5656220000000  0.5538250000000 1.0
C      1  0.4528280000000  0.4387740000000  0.5327260000000 1.0
C      1  0.4429720000000  0.5620850000000  0.5045510000000 1.0
C      1  0.4491160000000  0.4337380000000  0.4766560000000 1.0
C      1  0.4673640000000  0.5599130000000  0.4559790000000 1.0
C      1  0.4975020000000  0.4383600000000  0.4434730000000 1.0
C      1  0.5239560000000  0.5626470000000  0.4508240000000 1.0
C      1  0.5494910000000  0.4339340000000  0.4641280000000 1.0
C      1  0.5610580000000  0.5706720000000  0.4965570000000 1.0
C      1  0.5500340000000  0.4301570000000  0.5246470000000 1.0
C      1  0.5342780000000  0.5682870000000  0.5496960000000 1.0
C      1  0.5052900000000  0.4416570000000  0.5557080000000 1.0
C      1  0.5241400000000  0.6054780000000  0.4894930000000 1.0
C      1  0.4979650000000  0.4125350000000  0.4998940000000 1.0
END
