TITL C-2441164-471-615 0.109853305610759 125000 -19777.9914106752 0 0 148 (C1) n - 1
REM
REM in /home/bkarasulu/work/CARBON/AIRSS/Generating-Clusters/ReaxFF-fromJPCA2015/Units_Real/with-SteepDescent/Higher-Symm
REM
REM
REM
REM
REM
REM ./C.cell (1df0a924f5614ab8850e4351716899ee)
REM
REM compiler GCC version 9.2.1 20190827 (Red Hat 9.2.1-1)
REM options -cpp -mtune=generic -march=x86-64 -g -O0 -fpre-include=/usr/include/finclude/math-vector-fortran.h
REM seed 2057946594 934915676 1103475670 -297267551 1233903156 1468361635 1976716820 807912529 -1150711465 185388443 719639864 67349281 622991381 1235189096 1478579538 1969589672 1872768611 699136479 835412097 -839989417 1949021541 -200113276 2112333851 1680982817 275493319 1862179159 -2127199755 94931928 320995188 153083427 511306131 1329421065 -1631596244
REM
CELL 1.54180   50.00000   50.00000   50.00000   90.00000   90.00000   90.00000
LATT -1
SFAC C  
C      1  0.4964430000000  0.5427960000000  0.4116600000000 1.0
C      1  0.4131700000000  0.5435980000000  0.5025670000000 1.0
C      1  0.5047390000000  0.5429150000000  0.5905290000000 1.0
C      1  0.5879930000000  0.5419210000000  0.4971440000000 1.0
C      1  0.4968390000000  0.4573870000000  0.5891370000000 1.0
C      1  0.4094740000000  0.4563970000000  0.4980800000000 1.0
C      1  0.5026750000000  0.4581230000000  0.4104490000000 1.0
C      1  0.5868090000000  0.4574930000000  0.5043070000000 1.0
C      1  0.5269960000000  0.5040780000000  0.3995270000000 1.0
C      1  0.4017430000000  0.5025770000000  0.4737130000000 1.0
C      1  0.4722070000000  0.5044820000000  0.5966260000000 1.0
C      1  0.5979960000000  0.5039340000000  0.5291850000000 1.0
C      1  0.5293420000000  0.4971720000000  0.5984800000000 1.0
C      1  0.4029200000000  0.4971910000000  0.5284120000000 1.0
C      1  0.4693530000000  0.4961090000000  0.4002530000000 1.0
C      1  0.5999590000000  0.4963450000000  0.4704300000000 1.0
C      1  0.4878530000000  0.4965400000000  0.5741370000000 1.0
C      1  0.5753970000000  0.4972280000000  0.5128450000000 1.0
C      1  0.5109660000000  0.4959900000000  0.4229700000000 1.0
C      1  0.4252610000000  0.4957840000000  0.4901200000000 1.0
C      1  0.4858790000000  0.5040440000000  0.4222870000000 1.0
C      1  0.5774550000000  0.5045310000000  0.4872370000000 1.0
C      1  0.5131230000000  0.5061470000000  0.5770020000000 1.0
C      1  0.4268610000000  0.5059120000000  0.5144230000000 1.0
C      1  0.4997350000000  0.5501850000000  0.5627910000000 1.0
C      1  0.5596560000000  0.5459760000000  0.4992710000000 1.0
C      1  0.5010800000000  0.5467260000000  0.4402130000000 1.0
C      1  0.4381630000000  0.5570510000000  0.4911690000000 1.0
C      1  0.5008140000000  0.4516330000000  0.4382750000000 1.0
C      1  0.5585040000000  0.4523820000000  0.4991030000000 1.0
C      1  0.5078090000000  0.4455780000000  0.5632290000000 1.0
C      1  0.4357310000000  0.4472310000000  0.5073350000000 1.0
C      1  0.5115730000000  0.5867890000000  0.4889400000000 1.0
C      1  0.4828850000000  0.5848710000000  0.4801940000000 1.0
C      1  0.4833170000000  0.5874380000000  0.5296940000000 1.0
C      1  0.5082350000000  0.5856510000000  0.5174810000000 1.0
C      1  0.5171360000000  0.4217930000000  0.5221850000000 1.0
C      1  0.4721880000000  0.4230920000000  0.5174870000000 1.0
C      1  0.4892040000000  0.4245020000000  0.4751610000000 1.0
C      1  0.5197460000000  0.4144900000000  0.4811720000000 1.0
C      1  0.4097330000000  0.5376110000000  0.5309600000000 1.0
C      1  0.5334930000000  0.5378310000000  0.5926440000000 1.0
C      1  0.5924750000000  0.5385090000000  0.4679730000000 1.0
C      1  0.4675480000000  0.5380870000000  0.4071370000000 1.0
C      1  0.4082830000000  0.4608070000000  0.4688840000000 1.0
C      1  0.5317870000000  0.4617210000000  0.4074730000000 1.0
C      1  0.5925930000000  0.4620060000000  0.5336440000000 1.0
C      1  0.4679770000000  0.4632320000000  0.5907640000000 1.0
C      1  0.5513320000000  0.5695550000000  0.4599460000000 1.0
C      1  0.4564900000000  0.5686050000000  0.4459230000000 1.0
C      1  0.4471660000000  0.5692050000000  0.5436520000000 1.0
C      1  0.5443370000000  0.5681440000000  0.5515130000000 1.0
C      1  0.5529580000000  0.4322040000000  0.5445850000000 1.0
C      1  0.4538230000000  0.4327730000000  0.5536330000000 1.0
C      1  0.4472000000000  0.4289860000000  0.4548970000000 1.0
C      1  0.5458210000000  0.4301100000000  0.4458990000000 1.0
C      1  0.4533090000000  0.5171270000000  0.5216280000000 1.0
C      1  0.5226340000000  0.5135800000000  0.5509460000000 1.0
C      1  0.5523400000000  0.5101060000000  0.4765630000000 1.0
C      1  0.4757100000000  0.5107980000000  0.4478970000000 1.0
C      1  0.4530450000000  0.4946810000000  0.4835520000000 1.0
C      1  0.5172310000000  0.4950920000000  0.4508370000000 1.0
C      1  0.5474670000000  0.4937710000000  0.5159730000000 1.0
C      1  0.4849890000000  0.4870540000000  0.5476080000000 1.0
C      1  0.5737460000000  0.4498990000000  0.5517450000000 1.0
C      1  0.5500670000000  0.4519540000000  0.4276820000000 1.0
C      1  0.4294660000000  0.4508440000000  0.4514910000000 1.0
C      1  0.4485960000000  0.4511590000000  0.5742560000000 1.0
C      1  0.5715850000000  0.5503880000000  0.4526210000000 1.0
C      1  0.5504130000000  0.5509280000000  0.5737310000000 1.0
C      1  0.4289780000000  0.5478820000000  0.5483930000000 1.0
C      1  0.4491800000000  0.5513360000000  0.4247060000000 1.0
C      1  0.5935130000000  0.4854430000000  0.5512300000000 1.0
C      1  0.5470730000000  0.4850230000000  0.4049610000000 1.0
C      1  0.4065140000000  0.4840760000000  0.4523350000000 1.0
C      1  0.4491790000000  0.4879240000000  0.5907840000000 1.0
C      1  0.5932830000000  0.5157540000000  0.4499380000000 1.0
C      1  0.5517940000000  0.5147330000000  0.5919380000000 1.0
C      1  0.4104190000000  0.5121070000000  0.5526410000000 1.0
C      1  0.4488390000000  0.5155570000000  0.4061210000000 1.0
C      1  0.5787240000000  0.4571100000000  0.4588090000000 1.0
C      1  0.4559980000000  0.4573980000000  0.4214790000000 1.0
C      1  0.4196430000000  0.4638700000000  0.5467820000000 1.0
C      1  0.5466900000000  0.4630940000000  0.5792700000000 1.0
C      1  0.5770820000000  0.5410950000000  0.5443270000000 1.0
C      1  0.4553310000000  0.5405400000000  0.5789580000000 1.0
C      1  0.4205050000000  0.5374920000000  0.4526080000000 1.0
C      1  0.5444440000000  0.5420450000000  0.4225840000000 1.0
C      1  0.4025970000000  0.4686970000000  0.5232470000000 1.0
C      1  0.5229780000000  0.4688320000000  0.5961580000000 1.0
C      1  0.5969200000000  0.4679120000000  0.4786000000000 1.0
C      1  0.4760080000000  0.4679170000000  0.4034520000000 1.0
C      1  0.4044950000000  0.5318650000000  0.4767040000000 1.0
C      1  0.5239740000000  0.5336040000000  0.4045360000000 1.0
C      1  0.5963350000000  0.5328320000000  0.5240130000000 1.0
C      1  0.4775870000000  0.5329290000000  0.5968330000000 1.0
C      1  0.4594080000000  0.5821900000000  0.5218990000000 1.0
C      1  0.5210290000000  0.5812220000000  0.5431720000000 1.0
C      1  0.5395760000000  0.5796270000000  0.4844830000000 1.0
C      1  0.4817400000000  0.5813220000000  0.4521900000000 1.0
C      1  0.4599720000000  0.4172770000000  0.4777270000000 1.0
C      1  0.5220180000000  0.4146610000000  0.4532540000000 1.0
C      1  0.5452440000000  0.4187520000000  0.5207230000000 1.0
C      1  0.4759530000000  0.4160640000000  0.5447320000000 1.0
C      1  0.4944050000000  0.4553440000000  0.4803390000000 1.0
C      1  0.4801780000000  0.4503890000000  0.5109910000000 1.0
C      1  0.5074190000000  0.4531130000000  0.5186770000000 1.0
C      1  0.5157620000000  0.4642950000000  0.4955410000000 1.0
C      1  0.4891450000000  0.5372150000000  0.5191730000000 1.0
C      1  0.4778720000000  0.5384600000000  0.4917400000000 1.0
C      1  0.5021170000000  0.5353540000000  0.4809800000000 1.0
C      1  0.5154870000000  0.5359120000000  0.5044960000000 1.0
C      1  0.4334900000000  0.4410970000000  0.5355050000000 1.0
C      1  0.5367170000000  0.4417510000000  0.5650150000000 1.0
C      1  0.5666050000000  0.4314060000000  0.4653430000000 1.0
C      1  0.4646040000000  0.4326640000000  0.4332440000000 1.0
C      1  0.4361370000000  0.5591490000000  0.4624980000000 1.0
C      1  0.5358520000000  0.5672420000000  0.4359670000000 1.0
C      1  0.5658220000000  0.5663540000000  0.5343820000000 1.0
C      1  0.4626510000000  0.5651690000000  0.5666450000000 1.0
C      1  0.5651640000000  0.5249720000000  0.4371240000000 1.0
C      1  0.4312230000000  0.5286000000000  0.4269610000000 1.0
C      1  0.4343080000000  0.5230060000000  0.5648870000000 1.0
C      1  0.5670430000000  0.5279730000000  0.5688710000000 1.0
C      1  0.5716660000000  0.4742770000000  0.5676320000000 1.0
C      1  0.4327530000000  0.4805230000000  0.5671640000000 1.0
C      1  0.4377300000000  0.4756160000000  0.4389890000000 1.0
C      1  0.5632910000000  0.4736910000000  0.4397350000000 1.0
C      1  0.5410500000000  0.5229610000000  0.5011110000000 1.0
C      1  0.5006100000000  0.5227690000000  0.4577250000000 1.0
C      1  0.4566120000000  0.5223640000000  0.4928250000000 1.0
C      1  0.4983220000000  0.5278860000000  0.5449250000000 1.0
C      1  0.5414940000000  0.4750790000000  0.4933990000000 1.0
C      1  0.5090250000000  0.4721200000000  0.5404630000000 1.0
C      1  0.4597500000000  0.4719760000000  0.5081430000000 1.0
C      1  0.4992190000000  0.4714290000000  0.4572950000000 1.0
C      1  0.5479310000000  0.4243120000000  0.4914320000000 1.0
C      1  0.4911020000000  0.4246670000000  0.4453210000000 1.0
C      1  0.4476110000000  0.4205670000000  0.5034190000000 1.0
C      1  0.5038370000000  0.4201730000000  0.5477070000000 1.0
C      1  0.5516050000000  0.5710230000000  0.5097150000000 1.0
C      1  0.4937770000000  0.5793310000000  0.5552160000000 1.0
C      1  0.4583520000000  0.5778810000000  0.4952630000000 1.0
C      1  0.5097090000000  0.5726800000000  0.4481850000000 1.0
C      1  0.5483190000000  0.4980220000000  0.4504440000000 1.0
C      1  0.4562800000000  0.4925000000000  0.4553780000000 1.0
C      1  0.4626720000000  0.4906230000000  0.5304860000000 1.0
C      1  0.5314170000000  0.4896000000000  0.5387920000000 1.0
END
