TITL C-2441169-1362-1172 0.00829926738807395 125000 -7167.4429053217 0 0 51 (C1) n - 1
REM
REM in /home/bkarasulu/work/CARBON/AIRSS/Generating-Clusters/ReaxFF-fromJPCA2015/Units_Real/with-SteepDescent/Higher-Symm
REM
REM
REM
REM
REM
REM ./C.cell (1df0a924f5614ab8850e4351716899ee)
REM
REM compiler GCC version 9.2.1 20190827 (Red Hat 9.2.1-1)
REM options -cpp -mtune=generic -march=x86-64 -g -O0 -fpre-include=/usr/include/finclude/math-vector-fortran.h
REM seed -1160509074 -1135953551 1313782803 1500648555 -1354789842 -984682798 1962197174 -1724165042 1426924121 -568433163 -1854461036 406288916 56477200 1935757674 -822847300 1395087844 -274962247 -294455069 2132499322 76760852 1544260930 1380721868 1926518065 -1860707682 1556302064 -1839788035 -1769600078 -786814188 -492418969 1054183949 624807328 -767215870 -834326815
REM
CELL 1.54180   50.00000   50.00000   50.00000   90.00000   90.00000   90.00000
LATT -1
SFAC C  
C      1  0.5140020000000  0.4284580000000  0.4586450000000 1.0
C      1  0.4572810000000  0.4284800000000  0.5087700000000 1.0
C      1  0.5284890000000  0.4286880000000  0.5328760000000 1.0
C      1  0.5140000000000  0.5716010000000  0.4588890000000 1.0
C      1  0.4572170000000  0.5714050000000  0.5082160000000 1.0
C      1  0.5289020000000  0.5717110000000  0.5325090000000 1.0
C      1  0.4859630000000  0.4285020000000  0.4586020000000 1.0
C      1  0.5427450000000  0.4285190000000  0.5087840000000 1.0
C      1  0.4715200000000  0.4286740000000  0.5328750000000 1.0
C      1  0.4860400000000  0.5716180000000  0.4588950000000 1.0
C      1  0.5427590000000  0.5714500000000  0.5082380000000 1.0
C      1  0.4710860000000  0.5717190000000  0.5324760000000 1.0
C      1  0.4834660000000  0.5418710000000  0.4737440000000 1.0
C      1  0.4850680000000  0.5418370000000  0.5273790000000 1.0
C      1  0.5312020000000  0.5416680000000  0.4986780000000 1.0
C      1  0.4831250000000  0.4582650000000  0.4730110000000 1.0
C      1  0.4854740000000  0.4584590000000  0.5279380000000 1.0
C      1  0.5315860000000  0.4582990000000  0.4990190000000 1.0
C      1  0.5165560000000  0.5418660000000  0.4737420000000 1.0
C      1  0.5149210000000  0.5418430000000  0.5274020000000 1.0
C      1  0.4688590000000  0.5416440000000  0.4986770000000 1.0
C      1  0.5168840000000  0.4582450000000  0.4730090000000 1.0
C      1  0.5145020000000  0.4584630000000  0.5279300000000 1.0
C      1  0.4683940000000  0.4582820000000  0.4990310000000 1.0
C      1  0.5210680000000  0.5214760000000  0.5473510000000 1.0
C      1  0.5303310000000  0.5212610000000  0.4586150000000 1.0
C      1  0.4487430000000  0.5211860000000  0.4944890000000 1.0
C      1  0.5207390000000  0.4791460000000  0.5471440000000 1.0
C      1  0.5308000000000  0.4788340000000  0.4578510000000 1.0
C      1  0.4482740000000  0.4788530000000  0.4944860000000 1.0
C      1  0.4789270000000  0.5214640000000  0.5473390000000 1.0
C      1  0.4696830000000  0.5212690000000  0.4586280000000 1.0
C      1  0.5512870000000  0.5211920000000  0.4944740000000 1.0
C      1  0.4792470000000  0.4791460000000  0.5471470000000 1.0
C      1  0.4692050000000  0.4788690000000  0.4578770000000 1.0
C      1  0.5517020000000  0.4788670000000  0.4944710000000 1.0
C      1  0.4359560000000  0.5146790000000  0.5195440000000 1.0
C      1  0.5491560000000  0.5148050000000  0.5458470000000 1.0
C      1  0.5150670000000  0.5148050000000  0.4349400000000 1.0
C      1  0.4357360000000  0.4853650000000  0.5197180000000 1.0
C      1  0.5489090000000  0.4854920000000  0.5457580000000 1.0
C      1  0.5151690000000  0.4854900000000  0.4344990000000 1.0
C      1  0.5640610000000  0.5146910000000  0.5195450000000 1.0
C      1  0.4508370000000  0.5147950000000  0.5458510000000 1.0
C      1  0.4849350000000  0.5148130000000  0.4349560000000 1.0
C      1  0.5642490000000  0.4853840000000  0.5196990000000 1.0
C      1  0.4510740000000  0.4854790000000  0.5457720000000 1.0
C      1  0.4848230000000  0.4854990000000  0.4344990000000 1.0
C      1  0.5490520000000  0.5011630000000  0.4717590000000 1.0
C      1  0.4509420000000  0.5011580000000  0.4717860000000 1.0
C      1  0.4999880000000  0.4993570000000  0.5566210000000 1.0
END
