TITL C-2441166-8118-654 0.0317324725279024 125000 -11618.9854294573 0 0 85 (C1) n - 1
REM
REM in /home/bkarasulu/work/CARBON/AIRSS/Generating-Clusters/ReaxFF-fromJPCA2015/Units_Real/with-SteepDescent/Higher-Symm
REM
REM
REM
REM
REM
REM ./C.cell (1df0a924f5614ab8850e4351716899ee)
REM
REM compiler GCC version 9.2.1 20190827 (Red Hat 9.2.1-1)
REM options -cpp -mtune=generic -march=x86-64 -g -O0 -fpre-include=/usr/include/finclude/math-vector-fortran.h
REM seed 1755317315 1005843910 2017039068 -993735523 -861019161 2066931766 1444282050 -587362038 1692945789 554065180 291482904 429374912 -2114695941 -105665952 209807471 529849256 1868941730 -363178499 -1597004962 252322025 313687527 -650613145 -674780260 1416057885 -365396877 -240816932 1939894898 -534058992 -1191307118 1047875003 -1283557541 2143568388 -1906093204
REM
CELL 1.54180   50.00000   50.00000   50.00000   90.00000   90.00000   90.00000
LATT -1
SFAC C  
C      1  0.5540220000000  0.5269110000000  0.5442860000000 1.0
C      1  0.4464940000000  0.4746690000000  0.5456380000000 1.0
C      1  0.5556270000000  0.4738670000000  0.5447330000000 1.0
C      1  0.4464080000000  0.5261240000000  0.5451420000000 1.0
C      1  0.4866290000000  0.5329120000000  0.5282180000000 1.0
C      1  0.5187110000000  0.4727670000000  0.5307500000000 1.0
C      1  0.4836410000000  0.4690540000000  0.5242570000000 1.0
C      1  0.5134890000000  0.5271220000000  0.5307250000000 1.0
C      1  0.4863510000000  0.4574290000000  0.5732360000000 1.0
C      1  0.5153460000000  0.5439620000000  0.5741450000000 1.0
C      1  0.4868180000000  0.5435730000000  0.5732500000000 1.0
C      1  0.5148550000000  0.4568960000000  0.5740850000000 1.0
C      1  0.5474070000000  0.4444620000000  0.5069970000000 1.0
C      1  0.4529370000000  0.5544010000000  0.5069330000000 1.0
C      1  0.5463890000000  0.5544300000000  0.5064650000000 1.0
C      1  0.4541730000000  0.4460450000000  0.5078800000000 1.0
C      1  0.5470270000000  0.4493460000000  0.4792450000000 1.0
C      1  0.4532460000000  0.5510920000000  0.4790840000000 1.0
C      1  0.5456030000000  0.5528220000000  0.4784860000000 1.0
C      1  0.4535220000000  0.4505770000000  0.4804650000000 1.0
C      1  0.4692610000000  0.5459680000000  0.5467930000000 1.0
C      1  0.5329970000000  0.4536010000000  0.5487360000000 1.0
C      1  0.4685570000000  0.4542950000000  0.5475970000000 1.0
C      1  0.5337450000000  0.5485270000000  0.5493730000000 1.0
C      1  0.5216750000000  0.5211680000000  0.5909260000000 1.0
C      1  0.4792590000000  0.4799720000000  0.5893870000000 1.0
C      1  0.5214890000000  0.4794510000000  0.5907000000000 1.0
C      1  0.4791450000000  0.5213990000000  0.5894180000000 1.0
C      1  0.4468260000000  0.4709210000000  0.4405280000000 1.0
C      1  0.5547850000000  0.5267490000000  0.4359090000000 1.0
C      1  0.4538260000000  0.5290610000000  0.4392000000000 1.0
C      1  0.5458120000000  0.4746200000000  0.4403650000000 1.0
C      1  0.5576280000000  0.4735790000000  0.5175610000000 1.0
C      1  0.4418730000000  0.5275830000000  0.5172250000000 1.0
C      1  0.5588740000000  0.5266770000000  0.5151360000000 1.0
C      1  0.4419060000000  0.4739980000000  0.5170350000000 1.0
C      1  0.4178610000000  0.5143790000000  0.5021110000000 1.0
C      1  0.5793540000000  0.4858680000000  0.5144650000000 1.0
C      1  0.4175630000000  0.4865120000000  0.5025950000000 1.0
C      1  0.5822900000000  0.5096900000000  0.5004230000000 1.0
C      1  0.5541920000000  0.5281240000000  0.4663790000000 1.0
C      1  0.4457010000000  0.4757930000000  0.4694950000000 1.0
C      1  0.5535050000000  0.4748860000000  0.4673320000000 1.0
C      1  0.4463230000000  0.5253770000000  0.4675710000000 1.0
C      1  0.4722750000000  0.5632770000000  0.4626070000000 1.0
C      1  0.5256650000000  0.4398920000000  0.4588070000000 1.0
C      1  0.4732780000000  0.4415380000000  0.4598610000000 1.0
C      1  0.5252510000000  0.5589290000000  0.4588080000000 1.0
C      1  0.4728300000000  0.4322060000000  0.5249520000000 1.0
C      1  0.5281260000000  0.5674730000000  0.5249680000000 1.0
C      1  0.4716430000000  0.5685140000000  0.5235420000000 1.0
C      1  0.5293220000000  0.4314620000000  0.5254220000000 1.0
C      1  0.4729690000000  0.4575640000000  0.4344260000000 1.0
C      1  0.5281200000000  0.5425160000000  0.4355280000000 1.0
C      1  0.4787420000000  0.5492780000000  0.4372000000000 1.0
C      1  0.5236800000000  0.4574940000000  0.4347620000000 1.0
C      1  0.5030530000000  0.5337250000000  0.4248150000000 1.0
C      1  0.4979950000000  0.4656530000000  0.4221190000000 1.0
C      1  0.5552170000000  0.4972480000000  0.4275540000000 1.0
C      1  0.4490700000000  0.5080300000000  0.4224510000000 1.0
C      1  0.4612870000000  0.5005200000000  0.5811200000000 1.0
C      1  0.5402800000000  0.5003540000000  0.5829970000000 1.0
C      1  0.5420270000000  0.5000010000000  0.5063770000000 1.0
C      1  0.4609610000000  0.5011020000000  0.5084410000000 1.0
C      1  0.5015760000000  0.5421420000000  0.5080990000000 1.0
C      1  0.5041030000000  0.4587610000000  0.5095170000000 1.0
C      1  0.4994910000000  0.5703530000000  0.5149560000000 1.0
C      1  0.5008750000000  0.4304070000000  0.5159710000000 1.0
C      1  0.5777850000000  0.5062200000000  0.4423580000000 1.0
C      1  0.4314580000000  0.4941400000000  0.4359700000000 1.0
C      1  0.4216620000000  0.5001280000000  0.4763300000000 1.0
C      1  0.5764040000000  0.5087160000000  0.4714360000000 1.0
C      1  0.4997460000000  0.4395020000000  0.4640740000000 1.0
C      1  0.4978060000000  0.5525780000000  0.4625370000000 1.0
C      1  0.5527990000000  0.5007760000000  0.5563770000000 1.0
C      1  0.4467810000000  0.5005290000000  0.5571250000000 1.0
C      1  0.5385860000000  0.4993420000000  0.4800760000000 1.0
C      1  0.4639280000000  0.5001220000000  0.4782210000000 1.0
C      1  0.4843960000000  0.4941950000000  0.5257300000000 1.0
C      1  0.5117360000000  0.4996280000000  0.4788320000000 1.0
C      1  0.4964060000000  0.4938330000000  0.4080670000000 1.0
C      1  0.4993760000000  0.5003910000000  0.6003550000000 1.0
C      1  0.4922750000000  0.4997700000000  0.4657550000000 1.0
C      1  0.5096510000000  0.4989270000000  0.5388410000000 1.0
C      1  0.5005810000000  0.5060420000000  0.4343300000000 1.0
END
