TITL C-2441164-471-118 0.00518097690342053 125000 -12126.6333599659 0 0 82 (C1) n - 1
REM
REM in /home/bkarasulu/work/CARBON/AIRSS/Generating-Clusters/ReaxFF-fromJPCA2015/Units_Real/with-SteepDescent/Higher-Symm
REM
REM
REM
REM
REM
REM ./C.cell (1df0a924f5614ab8850e4351716899ee)
REM
REM compiler GCC version 9.2.1 20190827 (Red Hat 9.2.1-1)
REM options -cpp -mtune=generic -march=x86-64 -g -O0 -fpre-include=/usr/include/finclude/math-vector-fortran.h
REM seed 617612557 -1251724762 -259891859 922633658 1787212812 1023830456 376299558 2081207189 1551946664 -214157127 316170144 -1510595545 668349141 -25465474 -993481052 1865727274 1038430059 1441108743 -1577179920 2119804355 -1744701491 -1166048949 -1996445689 16639111 -532054809 -1608058524 -109607742 -1278119907 1190345242 538941247 -2075690441 -1374524928 436105274
REM
CELL 1.54180   50.00000   50.00000   50.00000   90.00000   90.00000   90.00000
LATT -1
SFAC C  
C      1  0.5220300000000  0.4854670000000  0.4951420000000 1.0
C      1  0.4923910000000  0.4745210000000  0.5015370000000 1.0
C      1  0.4746740000000  0.4964360000000  0.4928590000000 1.0
C      1  0.4888960000000  0.5203500000000  0.4902500000000 1.0
C      1  0.5156940000000  0.5139920000000  0.4859330000000 1.0
C      1  0.5577940000000  0.4893180000000  0.4679000000000 1.0
C      1  0.5027210000000  0.4389000000000  0.4642030000000 1.0
C      1  0.4422910000000  0.4762420000000  0.4641690000000 1.0
C      1  0.4633360000000  0.5474370000000  0.4655990000000 1.0
C      1  0.5330300000000  0.5568550000000  0.4598140000000 1.0
C      1  0.4916630000000  0.4779500000000  0.5334340000000 1.0
C      1  0.4837490000000  0.5064560000000  0.5369470000000 1.0
C      1  0.5054900000000  0.5243490000000  0.5347730000000 1.0
C      1  0.5317090000000  0.5127820000000  0.5321240000000 1.0
C      1  0.5382080000000  0.4876680000000  0.5220890000000 1.0
C      1  0.4369340000000  0.5369280000000  0.4672210000000 1.0
C      1  0.5141820000000  0.5794770000000  0.4662570000000 1.0
C      1  0.5701760000000  0.5146470000000  0.4776310000000 1.0
C      1  0.5296080000000  0.4275590000000  0.4660460000000 1.0
C      1  0.4439260000000  0.4472360000000  0.4682530000000 1.0
C      1  0.5201740000000  0.5730160000000  0.5411430000000 1.0
C      1  0.5752090000000  0.4990410000000  0.5495860000000 1.0
C      1  0.5321360000000  0.4399310000000  0.5403200000000 1.0
C      1  0.4449140000000  0.4506150000000  0.5445900000000 1.0
C      1  0.4377900000000  0.5362730000000  0.5433290000000 1.0
C      1  0.5434400000000  0.4404010000000  0.4891080000000 1.0
C      1  0.4573200000000  0.4406270000000  0.4938230000000 1.0
C      1  0.4317660000000  0.5225750000000  0.4918750000000 1.0
C      1  0.5043100000000  0.5709650000000  0.4923460000000 1.0
C      1  0.5576140000000  0.5331880000000  0.4992860000000 1.0
C      1  0.4911730000000  0.4492860000000  0.5673890000000 1.0
C      1  0.4485000000000  0.4944580000000  0.5674270000000 1.0
C      1  0.4801070000000  0.5487690000000  0.5657070000000 1.0
C      1  0.5402130000000  0.5365760000000  0.5682220000000 1.0
C      1  0.5393430000000  0.4745520000000  0.5683850000000 1.0
C      1  0.4325100000000  0.4789850000000  0.5169410000000 1.0
C      1  0.4600040000000  0.5574990000000  0.5156940000000 1.0
C      1  0.5504830000000  0.5550220000000  0.5178640000000 1.0
C      1  0.5782570000000  0.4587690000000  0.5384660000000 1.0
C      1  0.5006810000000  0.4278570000000  0.5166470000000 1.0
C      1  0.4504830000000  0.5132060000000  0.4294980000000 1.0
C      1  0.4998920000000  0.5510650000000  0.4264600000000 1.0
C      1  0.5473900000000  0.5207960000000  0.4313460000000 1.0
C      1  0.5275320000000  0.4625410000000  0.4298750000000 1.0
C      1  0.4720390000000  0.4626430000000  0.4287960000000 1.0
C      1  0.4261860000000  0.5243380000000  0.4400570000000 1.0
C      1  0.5014280000000  0.5749370000000  0.4411900000000 1.0
C      1  0.5710240000000  0.5251460000000  0.4488810000000 1.0
C      1  0.5377110000000  0.4394080000000  0.4416270000000 1.0
C      1  0.4588030000000  0.4435430000000  0.4440790000000 1.0
C      1  0.4357910000000  0.5414920000000  0.5139570000000 1.0
C      1  0.5258710000000  0.5716150000000  0.5120790000000 1.0
C      1  0.5704270000000  0.4837300000000  0.5244320000000 1.0
C      1  0.5297340000000  0.4292040000000  0.5127140000000 1.0
C      1  0.4398370000000  0.4509600000000  0.5150210000000 1.0
C      1  0.4593900000000  0.5559790000000  0.5451760000000 1.0
C      1  0.5444070000000  0.5580080000000  0.5475310000000 1.0
C      1  0.5684420000000  0.4742610000000  0.5644640000000 1.0
C      1  0.5046760000000  0.4325680000000  0.5460610000000 1.0
C      1  0.4343720000000  0.4781290000000  0.5464530000000 1.0
C      1  0.4890560000000  0.5240770000000  0.5795030000000 1.0
C      1  0.5180210000000  0.5204970000000  0.5803010000000 1.0
C      1  0.5202680000000  0.4907340000000  0.5833350000000 1.0
C      1  0.4950270000000  0.4757670000000  0.5812190000000 1.0
C      1  0.4749140000000  0.4972440000000  0.5808610000000 1.0
C      1  0.5281140000000  0.5438470000000  0.4341810000000 1.0
C      1  0.5403020000000  0.4915110000000  0.4405850000000 1.0
C      1  0.4993530000000  0.4543020000000  0.4397690000000 1.0
C      1  0.4528030000000  0.4843500000000  0.4388170000000 1.0
C      1  0.4735370000000  0.5359260000000  0.4389120000000 1.0
C      1  0.5459050000000  0.4692380000000  0.4849370000000 1.0
C      1  0.4871000000000  0.4427030000000  0.4929650000000 1.0
C      1  0.4433930000000  0.4943620000000  0.4916450000000 1.0
C      1  0.4793440000000  0.5522750000000  0.4911740000000 1.0
C      1  0.5344220000000  0.5362560000000  0.4819320000000 1.0
C      1  0.5247490000000  0.4691930000000  0.5425180000000 1.0
C      1  0.4724460000000  0.4595280000000  0.5482340000000 1.0
C      1  0.4566840000000  0.5137150000000  0.5474380000000 1.0
C      1  0.5011600000000  0.5510370000000  0.5461030000000 1.0
C      1  0.5523580000000  0.5174730000000  0.5500100000000 1.0
C      1  0.5120370000000  0.4991590000000  0.4400780000000 1.0
C      1  0.4905100000000  0.5121950000000  0.4392570000000 1.0
END
