TITL C-2441161-5029-462 0.0514162772440239 125000 -17963.7073863128 0 0 127 (C1) n - 1
REM
REM in /home/bkarasulu/work/CARBON/AIRSS/Generating-Clusters/ReaxFF-fromJPCA2015/Units_Real/with-SteepDescent/Higher-Symm
REM
REM
REM
REM
REM
REM ./C.cell (1df0a924f5614ab8850e4351716899ee)
REM
REM compiler GCC version 9.2.1 20190827 (Red Hat 9.2.1-1)
REM options -cpp -mtune=generic -march=x86-64 -g -O0 -fpre-include=/usr/include/finclude/math-vector-fortran.h
REM seed 383537873 -1932416388 2044460521 1218529636 -277356112 -166414373 -844413111 1122100555 -1045442010 1454625040 -185640304 -2137490741 369368708 1179362547 -1442073087 -1054121429 747868634 13512450 1716157188 1786394885 1881849285 -1367160847 160961900 1424118850 1256527656 -1648079122 -924533968 473743954 -1688768930 1059608013 441188872 -638066564 1233163593
REM
CELL 1.54180   50.00000   50.00000   50.00000   90.00000   90.00000   90.00000
LATT -1
SFAC C  
C      1  0.5110090000000  0.5702630000000  0.5304380000000 1.0
C      1  0.4928050000000  0.4313120000000  0.4592760000000 1.0
C      1  0.5433200000000  0.5265930000000  0.5334670000000 1.0
C      1  0.4543740000000  0.4721500000000  0.4638790000000 1.0
C      1  0.5628600000000  0.4280140000000  0.5018410000000 1.0
C      1  0.4366530000000  0.5691070000000  0.5017040000000 1.0
C      1  0.5699410000000  0.4735870000000  0.5288570000000 1.0
C      1  0.4336100000000  0.5242920000000  0.4717010000000 1.0
C      1  0.4037600000000  0.4930630000000  0.4678850000000 1.0
C      1  0.5963710000000  0.5063570000000  0.5339740000000 1.0
C      1  0.5720970000000  0.4597440000000  0.5516260000000 1.0
C      1  0.4302160000000  0.5388020000000  0.4487350000000 1.0
C      1  0.5012140000000  0.4571860000000  0.5862760000000 1.0
C      1  0.4975910000000  0.5422370000000  0.4183730000000 1.0
C      1  0.4757730000000  0.5289180000000  0.4833590000000 1.0
C      1  0.5255320000000  0.4635560000000  0.5183500000000 1.0
C      1  0.4434180000000  0.4527350000000  0.5594750000000 1.0
C      1  0.5611220000000  0.5444450000000  0.4413890000000 1.0
C      1  0.5454370000000  0.5307390000000  0.4791780000000 1.0
C      1  0.4550120000000  0.4664290000000  0.5214450000000 1.0
C      1  0.4745540000000  0.4983960000000  0.4118900000000 1.0
C      1  0.5200240000000  0.5020690000000  0.5696860000000 1.0
C      1  0.4643320000000  0.4478170000000  0.4251760000000 1.0
C      1  0.5343340000000  0.5529650000000  0.5715650000000 1.0
C      1  0.5219630000000  0.5729440000000  0.4417920000000 1.0
C      1  0.4810750000000  0.4232030000000  0.5574470000000 1.0
C      1  0.4806010000000  0.4784170000000  0.5883010000000 1.0
C      1  0.4974750000000  0.5155480000000  0.4114400000000 1.0
C      1  0.5439780000000  0.4873390000000  0.5762660000000 1.0
C      1  0.4510060000000  0.5135970000000  0.4175800000000 1.0
C      1  0.5631690000000  0.4955710000000  0.4307740000000 1.0
C      1  0.4293150000000  0.4993500000000  0.5646410000000 1.0
C      1  0.5568790000000  0.4799310000000  0.4797980000000 1.0
C      1  0.4445590000000  0.5165440000000  0.5204150000000 1.0
C      1  0.5353170000000  0.4209340000000  0.4716660000000 1.0
C      1  0.4651410000000  0.5834050000000  0.5292850000000 1.0
C      1  0.5662090000000  0.4584470000000  0.4605820000000 1.0
C      1  0.4469250000000  0.5490150000000  0.5526510000000 1.0
C      1  0.5489010000000  0.4558360000000  0.5697940000000 1.0
C      1  0.4534740000000  0.5433510000000  0.4322800000000 1.0
C      1  0.5091430000000  0.4751520000000  0.4752620000000 1.0
C      1  0.4895230000000  0.5332940000000  0.5215240000000 1.0
C      1  0.4802680000000  0.4367170000000  0.5839210000000 1.0
C      1  0.5218400000000  0.5553900000000  0.4185380000000 1.0
C      1  0.4233020000000  0.4676840000000  0.4268090000000 1.0
C      1  0.5741260000000  0.5327610000000  0.5721460000000 1.0
C      1  0.5553490000000  0.4669810000000  0.4359350000000 1.0
C      1  0.4315220000000  0.5280940000000  0.5645440000000 1.0
C      1  0.5524890000000  0.5735330000000  0.5095030000000 1.0
C      1  0.4462980000000  0.4256530000000  0.4877980000000 1.0
C      1  0.4741770000000  0.4532140000000  0.4524390000000 1.0
C      1  0.5267500000000  0.5476300000000  0.5439010000000 1.0
C      1  0.4443700000000  0.5749740000000  0.4747110000000 1.0
C      1  0.5546860000000  0.4219880000000  0.5277480000000 1.0
C      1  0.4645300000000  0.4868960000000  0.4842770000000 1.0
C      1  0.5303450000000  0.5078800000000  0.5175370000000 1.0
C      1  0.4751120000000  0.5062090000000  0.5797700000000 1.0
C      1  0.5171640000000  0.4980680000000  0.4232970000000 1.0
C      1  0.5656570000000  0.5055750000000  0.5786910000000 1.0
C      1  0.4298750000000  0.4950160000000  0.4193840000000 1.0
C      1  0.4297370000000  0.4835960000000  0.4515430000000 1.0
C      1  0.5687050000000  0.5151760000000  0.5483590000000 1.0
C      1  0.4544580000000  0.4191240000000  0.5159040000000 1.0
C      1  0.5429490000000  0.5786110000000  0.4826200000000 1.0
C      1  0.4986610000000  0.5296670000000  0.4653700000000 1.0
C      1  0.5028410000000  0.4661430000000  0.5361130000000 1.0
C      1  0.4370680000000  0.5636020000000  0.4482820000000 1.0
C      1  0.5629690000000  0.4351460000000  0.5531810000000 1.0
C      1  0.5001420000000  0.4936600000000  0.5492510000000 1.0
C      1  0.5133070000000  0.4999640000000  0.4581220000000 1.0
C      1  0.4266060000000  0.4599360000000  0.5134880000000 1.0
C      1  0.5739250000000  0.5377120000000  0.4854010000000 1.0
C      1  0.5187210000000  0.5428180000000  0.4825890000000 1.0
C      1  0.4820690000000  0.4575520000000  0.5158950000000 1.0
C      1  0.5741760000000  0.5181830000000  0.4475590000000 1.0
C      1  0.4239290000000  0.4741100000000  0.5525810000000 1.0
C      1  0.3930910000000  0.4694580000000  0.4773130000000 1.0
C      1  0.6030020000000  0.5302240000000  0.5228420000000 1.0
C      1  0.4811740000000  0.4690370000000  0.4131900000000 1.0
C      1  0.5174010000000  0.5301300000000  0.5801740000000 1.0
C      1  0.5850230000000  0.5486800000000  0.5113390000000 1.0
C      1  0.4151450000000  0.4535510000000  0.4861940000000 1.0
C      1  0.4738020000000  0.5527950000000  0.5634030000000 1.0
C      1  0.5292990000000  0.4532690000000  0.4304130000000 1.0
C      1  0.4372900000000  0.4437150000000  0.4359830000000 1.0
C      1  0.5620110000000  0.5572550000000  0.5619160000000 1.0
C      1  0.4888680000000  0.5322040000000  0.5791030000000 1.0
C      1  0.5098330000000  0.4690790000000  0.4164600000000 1.0
C      1  0.5440390000000  0.5093030000000  0.4150720000000 1.0
C      1  0.4469880000000  0.5109490000000  0.5809110000000 1.0
C      1  0.5829090000000  0.4906220000000  0.4887570000000 1.0
C      1  0.4169370000000  0.5079530000000  0.5148740000000 1.0
C      1  0.5658530000000  0.5638800000000  0.5311960000000 1.0
C      1  0.4328080000000  0.4374320000000  0.4668090000000 1.0
C      1  0.4595430000000  0.4577740000000  0.5838420000000 1.0
C      1  0.5456800000000  0.5382200000000  0.4177590000000 1.0
C      1  0.4562510000000  0.4312920000000  0.5446370000000 1.0
C      1  0.5465650000000  0.5663200000000  0.4552290000000 1.0
C      1  0.4122590000000  0.4812330000000  0.5267550000000 1.0
C      1  0.5875930000000  0.5149120000000  0.4735270000000 1.0
C      1  0.4732310000000  0.5828330000000  0.4759650000000 1.0
C      1  0.5250350000000  0.4166620000000  0.5241450000000 1.0
C      1  0.4929530000000  0.4121830000000  0.4827050000000 1.0
C      1  0.5067670000000  0.5907660000000  0.5076710000000 1.0
C      1  0.4643590000000  0.5349860000000  0.5084670000000 1.0
C      1  0.5307670000000  0.4658590000000  0.4910420000000 1.0
C      1  0.5443430000000  0.4834070000000  0.5248750000000 1.0
C      1  0.4592000000000  0.5108930000000  0.4704490000000 1.0
C      1  0.4839410000000  0.5487770000000  0.4424330000000 1.0
C      1  0.5172590000000  0.4486580000000  0.5624150000000 1.0
C      1  0.5902820000000  0.4849080000000  0.5150530000000 1.0
C      1  0.4111390000000  0.5139780000000  0.4871320000000 1.0
C      1  0.5196070000000  0.4120710000000  0.4954430000000 1.0
C      1  0.4785390000000  0.5907570000000  0.5034920000000 1.0
C      1  0.4867240000000  0.4704420000000  0.4906620000000 1.0
C      1  0.5079200000000  0.5493250000000  0.5077060000000 1.0
C      1  0.4789630000000  0.4110660000000  0.5064530000000 1.0
C      1  0.5151310000000  0.5861240000000  0.4810100000000 1.0
C      1  0.4623950000000  0.4940660000000  0.5183550000000 1.0
C      1  0.5390930000000  0.5045860000000  0.4702320000000 1.0
C      1  0.5196470000000  0.4324240000000  0.4494480000000 1.0
C      1  0.4852940000000  0.5735240000000  0.5472190000000 1.0
C      1  0.5630910000000  0.4321800000000  0.4739920000000 1.0
C      1  0.4394260000000  0.5678740000000  0.5298680000000 1.0
C      1  0.5091520000000  0.4239820000000  0.5476210000000 1.0
C      1  0.4943810000000  0.5766310000000  0.4557950000000 1.0
C      1  0.5008890000000  0.5063870000000  0.5228350000000 1.0
END
