TITL C-2441168-9922-1052 -0.00246734671305516 125000 -2286.84430828964 0 0 16 (C2) n - 1
REM
REM in /home/bkarasulu/work/CARBON/AIRSS/Generating-Clusters/ReaxFF-fromJPCA2015/Units_Real/with-SteepDescent/Higher-Symm
REM
REM
REM
REM
REM
REM ./C.cell (1df0a924f5614ab8850e4351716899ee)
REM
REM compiler GCC version 9.2.1 20190827 (Red Hat 9.2.1-1)
REM options -cpp -mtune=generic -march=x86-64 -g -O0 -fpre-include=/usr/include/finclude/math-vector-fortran.h
REM seed -2079005586 1992101705 1575773380 -1882905185 -551239792 -1267769238 -187788263 -1859373257 673515429 412213767 -1611474356 -616381167 978522679 -2127198384 -1293752338 1106385034 -636201719 -749282485 -1453573549 -754910452 -2021365383 -1067896375 852883631 1902276335 -1015735837 999812908 1497926704 -1527637128 -216045962 146246551 1876428651 -239433378 1794770143
REM
CELL 1.54180   50.00000   50.00000   50.00000   90.00000   90.00000   90.00000
LATT -1
SFAC C  
C      1  0.5131640000000  0.5370300000000  0.5203850000000 1.0
C      1  0.5142170000000  0.5204390000000  0.4619950000000 1.0
C      1  0.5131640000000  0.4629700000000  0.4796150000000 1.0
C      1  0.5142170000000  0.4795610000000  0.5380050000000 1.0
C      1  0.4621480000000  0.4796310000000  0.4956390000000 1.0
C      1  0.4636050000000  0.4961430000000  0.5218010000000 1.0
C      1  0.4621480000000  0.5203690000000  0.5043610000000 1.0
C      1  0.4636050000000  0.5038570000000  0.4781990000000 1.0
C      1  0.5364370000000  0.5101310000000  0.4819920000000 1.0
C      1  0.5361670000000  0.4819770000000  0.4898570000000 1.0
C      1  0.5364370000000  0.4898690000000  0.5180080000000 1.0
C      1  0.5361670000000  0.5180230000000  0.5101430000000 1.0
C      1  0.4877280000000  0.5121940000000  0.4678240000000 1.0
C      1  0.4865340000000  0.4698250000000  0.4866630000000 1.0
C      1  0.4877280000000  0.4878060000000  0.5321760000000 1.0
C      1  0.4865340000000  0.5301750000000  0.5133370000000 1.0
END
