TITL C-2441166-8118-1176 0.00283488551311729 125000 -28535.5934515916 0 0 177 (C1) n - 1
REM
REM in /home/bkarasulu/work/CARBON/AIRSS/Generating-Clusters/ReaxFF-fromJPCA2015/Units_Real/with-SteepDescent/Higher-Symm
REM
REM
REM
REM
REM
REM ./C.cell (1df0a924f5614ab8850e4351716899ee)
REM
REM compiler GCC version 9.2.1 20190827 (Red Hat 9.2.1-1)
REM options -cpp -mtune=generic -march=x86-64 -g -O0 -fpre-include=/usr/include/finclude/math-vector-fortran.h
REM seed -1437639416 -547749004 1242018689 1757092820 635543302 -1761294189 844079432 -1063462053 77734092 -1274714753 1862836226 1602858673 -696929234 233903782 1772151505 216158822 -1835863935 1628022686 1063381624 -1498980524 -1289948174 277159681 109042667 798412692 -749016376 775504531 -1854138122 1193007324 1659849896 1742529860 388027343 1802007448 1758665426
REM
CELL 1.54180   50.00000   50.00000   50.00000   90.00000   90.00000   90.00000
LATT -1
SFAC C  
C      1  0.4897730000000  0.5642050000000  0.4373330000000 1.0
C      1  0.4336070000000  0.4871810000000  0.5635770000000 1.0
C      1  0.5805250000000  0.4207210000000  0.4859070000000 1.0
C      1  0.4853180000000  0.4198110000000  0.5795860000000 1.0
C      1  0.5137190000000  0.4311170000000  0.4311680000000 1.0
C      1  0.5118840000000  0.5670830000000  0.5684670000000 1.0
C      1  0.4362590000000  0.5117870000000  0.4375110000000 1.0
C      1  0.5606580000000  0.5171700000000  0.5629800000000 1.0
C      1  0.5684810000000  0.4864810000000  0.4303320000000 1.0
C      1  0.5775160000000  0.5787800000000  0.5136170000000 1.0
C      1  0.4265510000000  0.5744340000000  0.4874580000000 1.0
C      1  0.4230340000000  0.4265870000000  0.5150630000000 1.0
C      1  0.5147010000000  0.5753520000000  0.4251250000000 1.0
C      1  0.5684240000000  0.4886970000000  0.5694800000000 1.0
C      1  0.4313680000000  0.4376930000000  0.4889030000000 1.0
C      1  0.5113780000000  0.4296740000000  0.5683650000000 1.0
C      1  0.4847940000000  0.4311610000000  0.4314140000000 1.0
C      1  0.4856260000000  0.5768700000000  0.5782070000000 1.0
C      1  0.5690080000000  0.5156190000000  0.4296030000000 1.0
C      1  0.4236280000000  0.5130410000000  0.5753280000000 1.0
C      1  0.4252900000000  0.4862240000000  0.4263160000000 1.0
C      1  0.4386960000000  0.5629020000000  0.5120820000000 1.0
C      1  0.5674690000000  0.5689470000000  0.4871300000000 1.0
C      1  0.5738580000000  0.4270020000000  0.5142410000000 1.0
C      1  0.4422470000000  0.5941410000000  0.4742920000000 1.0
C      1  0.4722780000000  0.4393990000000  0.5953980000000 1.0
C      1  0.5911680000000  0.4734760000000  0.4431390000000 1.0
C      1  0.4432190000000  0.4122720000000  0.5280110000000 1.0
C      1  0.5606390000000  0.4053250000000  0.4733040000000 1.0
C      1  0.5592310000000  0.5954620000000  0.5271520000000 1.0
C      1  0.4751400000000  0.5541250000000  0.4131030000000 1.0
C      1  0.5256540000000  0.5580450000000  0.5927810000000 1.0
C      1  0.5265810000000  0.4426040000000  0.4077880000000 1.0
C      1  0.5862620000000  0.5279860000000  0.5543040000000 1.0
C      1  0.4119320000000  0.5258130000000  0.4457310000000 1.0
C      1  0.4086940000000  0.4728130000000  0.5562920000000 1.0
C      1  0.5576110000000  0.5924920000000  0.4729320000000 1.0
C      1  0.5259750000000  0.4431560000000  0.5904760000000 1.0
C      1  0.4058270000000  0.4732430000000  0.4421610000000 1.0
C      1  0.5597610000000  0.4049830000000  0.5282870000000 1.0
C      1  0.4463080000000  0.4157900000000  0.4763430000000 1.0
C      1  0.4469350000000  0.5860260000000  0.5262410000000 1.0
C      1  0.5277740000000  0.5591740000000  0.4058130000000 1.0
C      1  0.4718510000000  0.5590740000000  0.5953660000000 1.0
C      1  0.4724270000000  0.4417540000000  0.4084850000000 1.0
C      1  0.4045820000000  0.5261730000000  0.5594990000000 1.0
C      1  0.5918890000000  0.5269150000000  0.4419110000000 1.0
C      1  0.5889690000000  0.4753750000000  0.5554800000000 1.0
C      1  0.6012890000000  0.4869780000000  0.5326230000000 1.0
C      1  0.5355320000000  0.6055390000000  0.4856090000000 1.0
C      1  0.4845560000000  0.5352660000000  0.6051430000000 1.0
C      1  0.6034410000000  0.5145440000000  0.4652060000000 1.0
C      1  0.3936980000000  0.5135590000000  0.5361900000000 1.0
C      1  0.3943870000000  0.4854070000000  0.4656650000000 1.0
C      1  0.5362830000000  0.3945700000000  0.5157660000000 1.0
C      1  0.4693100000000  0.4067720000000  0.4888040000000 1.0
C      1  0.4666420000000  0.6022310000000  0.5152270000000 1.0
C      1  0.4851710000000  0.4642520000000  0.3958110000000 1.0
C      1  0.5137230000000  0.4650070000000  0.6040620000000 1.0
C      1  0.5158250000000  0.5351550000000  0.3949780000000 1.0
C      1  0.3936510000000  0.4847330000000  0.5350980000000 1.0
C      1  0.4657690000000  0.6051550000000  0.4868340000000 1.0
C      1  0.5132740000000  0.5356970000000  0.6057520000000 1.0
C      1  0.3961880000000  0.5140750000000  0.4665450000000 1.0
C      1  0.6006690000000  0.5156390000000  0.5326790000000 1.0
C      1  0.6033960000000  0.4857330000000  0.4658020000000 1.0
C      1  0.4719250000000  0.4141850000000  0.5180670000000 1.0
C      1  0.5369910000000  0.3957750000000  0.4870740000000 1.0
C      1  0.5355010000000  0.6053520000000  0.5144150000000 1.0
C      1  0.5140190000000  0.4653300000000  0.3956350000000 1.0
C      1  0.4850300000000  0.4635540000000  0.6048670000000 1.0
C      1  0.4874260000000  0.5331140000000  0.3976300000000 1.0
C      1  0.5099020000000  0.5407450000000  0.5458010000000 1.0
C      1  0.5357500000000  0.5287290000000  0.5415220000000 1.0
C      1  0.5391470000000  0.5374710000000  0.5165360000000 1.0
C      1  0.5067840000000  0.4565100000000  0.4534400000000 1.0
C      1  0.4799540000000  0.4454730000000  0.5272210000000 1.0
C      1  0.4954670000000  0.5425330000000  0.4627230000000 1.0
C      1  0.5436200000000  0.4929860000000  0.4524520000000 1.0
C      1  0.4539080000000  0.4910440000000  0.5366950000000 1.0
C      1  0.4585270000000  0.5081580000000  0.4627960000000 1.0
C      1  0.5266020000000  0.4744310000000  0.4685840000000 1.0
C      1  0.4617870000000  0.4684130000000  0.5193280000000 1.0
C      1  0.4732010000000  0.5294090000000  0.4766500000000 1.0
C      1  0.4867370000000  0.5346500000000  0.5284750000000 1.0
C      1  0.4613200000000  0.5177380000000  0.5293610000000 1.0
C      1  0.4652650000000  0.5385350000000  0.5073290000000 1.0
C      1  0.4822600000000  0.4620060000000  0.4563360000000 1.0
C      1  0.5040520000000  0.4481060000000  0.5415650000000 1.0
C      1  0.5242160000000  0.5373580000000  0.4686410000000 1.0
C      1  0.4621140000000  0.4789980000000  0.4695900000000 1.0
C      1  0.5264470000000  0.4612220000000  0.5238450000000 1.0
C      1  0.5404990000000  0.5182540000000  0.4536350000000 1.0
C      1  0.4506820000000  0.4649100000000  0.4926040000000 1.0
C      1  0.5486400000000  0.4495670000000  0.5151590000000 1.0
C      1  0.5416980000000  0.5469770000000  0.4907930000000 1.0
C      1  0.3973220000000  0.5329770000000  0.5150720000000 1.0
C      1  0.5152040000000  0.3944310000000  0.5362490000000 1.0
C      1  0.5360330000000  0.5146210000000  0.3942860000000 1.0
C      1  0.3926220000000  0.4649490000000  0.4861280000000 1.0
C      1  0.6055370000000  0.4652790000000  0.5141020000000 1.0
C      1  0.6042900000000  0.5356780000000  0.4851370000000 1.0
C      1  0.5153530000000  0.6053290000000  0.4649010000000 1.0
C      1  0.4860380000000  0.6051360000000  0.5362970000000 1.0
C      1  0.4869430000000  0.3990210000000  0.4679430000000 1.0
C      1  0.5333350000000  0.4862960000000  0.6035210000000 1.0
C      1  0.4646070000000  0.4844480000000  0.3955180000000 1.0
C      1  0.4652330000000  0.5141020000000  0.6029810000000 1.0
C      1  0.6047320000000  0.5372110000000  0.5138420000000 1.0
C      1  0.4866830000000  0.3972910000000  0.5371780000000 1.0
C      1  0.4667200000000  0.5129390000000  0.3973650000000 1.0
C      1  0.6051860000000  0.4645010000000  0.4854000000000 1.0
C      1  0.3923960000000  0.4639600000000  0.5150530000000 1.0
C      1  0.3951140000000  0.5349860000000  0.4866370000000 1.0
C      1  0.4867010000000  0.6039700000000  0.4665950000000 1.0
C      1  0.5148030000000  0.6040150000000  0.5346620000000 1.0
C      1  0.5159860000000  0.3972160000000  0.4673990000000 1.0
C      1  0.4662430000000  0.4853130000000  0.6013140000000 1.0
C      1  0.5347280000000  0.4857620000000  0.3947520000000 1.0
C      1  0.5333290000000  0.5148770000000  0.6041750000000 1.0
C      1  0.5262600000000  0.5901820000000  0.5568070000000 1.0
C      1  0.5547420000000  0.5274270000000  0.5896980000000 1.0
C      1  0.5950190000000  0.5611070000000  0.5268260000000 1.0
C      1  0.5274250000000  0.4089350000000  0.4441520000000 1.0
C      1  0.4724650000000  0.4033860000000  0.5609630000000 1.0
C      1  0.4751710000000  0.5883730000000  0.4456350000000 1.0
C      1  0.5575150000000  0.4732450000000  0.4068250000000 1.0
C      1  0.4451160000000  0.4732700000000  0.5866430000000 1.0
C      1  0.4458220000000  0.5257190000000  0.4126740000000 1.0
C      1  0.5956180000000  0.4404990000000  0.4725530000000 1.0
C      1  0.4034140000000  0.4408250000000  0.5279230000000 1.0
C      1  0.4066660000000  0.5585620000000  0.4745840000000 1.0
C      1  0.4730180000000  0.5946250000000  0.5600430000000 1.0
C      1  0.4411930000000  0.5263700000000  0.5930610000000 1.0
C      1  0.4141090000000  0.5534380000000  0.5261030000000 1.0
C      1  0.4736770000000  0.4084220000000  0.4439320000000 1.0
C      1  0.5275980000000  0.4069060000000  0.5585870000000 1.0
C      1  0.5276430000000  0.5945150000000  0.4412080000000 1.0
C      1  0.4408000000000  0.4727670000000  0.4068970000000 1.0
C      1  0.5558580000000  0.4749540000000  0.5905050000000 1.0
C      1  0.5588940000000  0.5274360000000  0.4061540000000 1.0
C      1  0.4067760000000  0.4433230000000  0.4738420000000 1.0
C      1  0.5958730000000  0.4418070000000  0.5275930000000 1.0
C      1  0.5910530000000  0.5579580000000  0.4729850000000 1.0
C      1  0.5553440000000  0.5550470000000  0.4095160000000 1.0
C      1  0.4120480000000  0.5526250000000  0.5542440000000 1.0
C      1  0.5548040000000  0.4107380000000  0.5549000000000 1.0
C      1  0.5534060000000  0.4473180000000  0.5872860000000 1.0
C      1  0.4447430000000  0.4453420000000  0.4113390000000 1.0
C      1  0.4448390000000  0.5540820000000  0.5904740000000 1.0
C      1  0.4099450000000  0.4460220000000  0.4462230000000 1.0
C      1  0.5889340000000  0.4473470000000  0.5542260000000 1.0
C      1  0.5885210000000  0.5542430000000  0.4455780000000 1.0
C      1  0.5548040000000  0.5896250000000  0.4452420000000 1.0
C      1  0.4466620000000  0.5867650000000  0.5536660000000 1.0
C      1  0.4459240000000  0.4130410000000  0.4481990000000 1.0
C      1  0.4479950000000  0.5527360000000  0.4148580000000 1.0
C      1  0.5880810000000  0.5556470000000  0.5533930000000 1.0
C      1  0.4453810000000  0.4096240000000  0.5560680000000 1.0
C      1  0.4460690000000  0.4456940000000  0.5877670000000 1.0
C      1  0.5538370000000  0.4461060000000  0.4111280000000 1.0
C      1  0.5539580000000  0.5559000000000  0.5894320000000 1.0
C      1  0.5890460000000  0.4460070000000  0.4458130000000 1.0
C      1  0.4098840000000  0.4446180000000  0.5550820000000 1.0
C      1  0.4124080000000  0.5533430000000  0.4478730000000 1.0
C      1  0.4475310000000  0.5882350000000  0.4477050000000 1.0
C      1  0.5538820000000  0.5894580000000  0.5539620000000 1.0
C      1  0.5548840000000  0.4113950000000  0.4464670000000 1.0
C      1  0.4305110000000  0.4301980000000  0.5696660000000 1.0
C      1  0.4325970000000  0.5680810000000  0.4335160000000 1.0
C      1  0.5685350000000  0.4323360000000  0.5679560000000 1.0
C      1  0.5689550000000  0.5689410000000  0.4307940000000 1.0
C      1  0.5683730000000  0.4319830000000  0.4314840000000 1.0
C      1  0.4314370000000  0.5678180000000  0.5691810000000 1.0
C      1  0.5687460000000  0.5701900000000  0.5685930000000 1.0
C      1  0.4304860000000  0.4319540000000  0.4322870000000 1.0
C      1  0.5240010000000  0.4774490000000  0.4972860000000 1.0
END
