TITL C-2441156-4686-773 0.139908149360452 125000 -21272.0256474786 0 0 167 (C1) n - 1
REM
REM in /home/bkarasulu/work/CARBON/AIRSS/Generating-Clusters/ReaxFF-fromJPCA2015/Units_Real/with-SteepDescent/Higher-Symm
REM
REM
REM
REM
REM
REM ./C.cell (1df0a924f5614ab8850e4351716899ee)
REM
REM compiler GCC version 9.2.1 20190827 (Red Hat 9.2.1-1)
REM options -cpp -mtune=generic -march=x86-64 -g -O0 -fpre-include=/usr/include/finclude/math-vector-fortran.h
REM seed 455623875 -1644624129 2068070061 1766868586 -1564331392 -1863266535 -1098159861 385528765 -1151123462 -1300789785 1640361281 1349600687 1733358088 -398362538 1986740114 -986449994 -398904329 -428724402 -1409212433 1947441366 1495412235 820210323 -883213840 -1215049165 -912151500 -2016245091 -616219522 -180227527 -2122170852 1820158506 -156192990 83161632 -1189056809
REM
CELL 1.54180   50.00000   50.00000   50.00000   90.00000   90.00000   90.00000
LATT -1
SFAC C  
C      1  0.4787760000000  0.5003140000000  0.4749300000000 1.0
C      1  0.4862710000000  0.5005340000000  0.5317080000000 1.0
C      1  0.5140550000000  0.4992010000000  0.5336520000000 1.0
C      1  0.5219340000000  0.5020970000000  0.4598550000000 1.0
C      1  0.4821470000000  0.4668360000000  0.5016840000000 1.0
C      1  0.4818920000000  0.5310190000000  0.5002740000000 1.0
C      1  0.5112730000000  0.5263340000000  0.4996180000000 1.0
C      1  0.5099360000000  0.4736340000000  0.4990970000000 1.0
C      1  0.4922100000000  0.4665290000000  0.5548970000000 1.0
C      1  0.4945990000000  0.5351180000000  0.4452010000000 1.0
C      1  0.5070980000000  0.4607180000000  0.4407180000000 1.0
C      1  0.5083880000000  0.5350280000000  0.5573730000000 1.0
C      1  0.4930540000000  0.5566150000000  0.4641620000000 1.0
C      1  0.4943600000000  0.4420970000000  0.5384450000000 1.0
C      1  0.5081370000000  0.4433390000000  0.4645690000000 1.0
C      1  0.5085630000000  0.5562980000000  0.5377470000000 1.0
C      1  0.4866820000000  0.4097830000000  0.4441930000000 1.0
C      1  0.4768450000000  0.5907760000000  0.5476960000000 1.0
C      1  0.5183150000000  0.4134620000000  0.5572900000000 1.0
C      1  0.5229060000000  0.5900640000000  0.4547210000000 1.0
C      1  0.4747380000000  0.4529140000000  0.4105180000000 1.0
C      1  0.4874080000000  0.5562920000000  0.5894370000000 1.0
C      1  0.5220270000000  0.5447800000000  0.4105960000000 1.0
C      1  0.5217060000000  0.4531850000000  0.5902520000000 1.0
C      1  0.5137270000000  0.5539730000000  0.5977540000000 1.0
C      1  0.5050370000000  0.4486090000000  0.4108540000000 1.0
C      1  0.4932030000000  0.5499230000000  0.4052710000000 1.0
C      1  0.4921710000000  0.4501940000000  0.5926020000000 1.0
C      1  0.5059780000000  0.5947270000000  0.5504960000000 1.0
C      1  0.5128140000000  0.4012330000000  0.4450250000000 1.0
C      1  0.4931460000000  0.4070960000000  0.5586700000000 1.0
C      1  0.4944950000000  0.5931340000000  0.4480210000000 1.0
C      1  0.4367790000000  0.5611360000000  0.5416050000000 1.0
C      1  0.4285790000000  0.4468690000000  0.4673360000000 1.0
C      1  0.5657570000000  0.5645230000000  0.4604240000000 1.0
C      1  0.5643340000000  0.4373990000000  0.5400640000000 1.0
C      1  0.4290560000000  0.5338050000000  0.5533720000000 1.0
C      1  0.4350170000000  0.4591480000000  0.4397280000000 1.0
C      1  0.5653900000000  0.4609080000000  0.5642230000000 1.0
C      1  0.5669380000000  0.5420170000000  0.4347240000000 1.0
C      1  0.5671460000000  0.5678620000000  0.4883410000000 1.0
C      1  0.5661590000000  0.4300040000000  0.5126810000000 1.0
C      1  0.4393060000000  0.5717700000000  0.5147310000000 1.0
C      1  0.4390390000000  0.4279830000000  0.4864060000000 1.0
C      1  0.5651200000000  0.4885000000000  0.5702160000000 1.0
C      1  0.5693820000000  0.5138350000000  0.4310120000000 1.0
C      1  0.4391130000000  0.5143220000000  0.5721570000000 1.0
C      1  0.4326650000000  0.4872780000000  0.4325340000000 1.0
C      1  0.5909590000000  0.5033020000000  0.5252070000000 1.0
C      1  0.5869230000000  0.4967120000000  0.4729710000000 1.0
C      1  0.4127830000000  0.5044500000000  0.4751630000000 1.0
C      1  0.4135220000000  0.4948970000000  0.5263670000000 1.0
C      1  0.5896450000000  0.5240200000000  0.5047200000000 1.0
C      1  0.5876800000000  0.4759870000000  0.4951020000000 1.0
C      1  0.4130080000000  0.4738530000000  0.5059510000000 1.0
C      1  0.4145260000000  0.5252320000000  0.4964680000000 1.0
C      1  0.4875910000000  0.4832770000000  0.4357310000000 1.0
C      1  0.4900960000000  0.5163040000000  0.5691130000000 1.0
C      1  0.5048780000000  0.4868170000000  0.5712120000000 1.0
C      1  0.5079520000000  0.5113440000000  0.4348450000000 1.0
C      1  0.4909500000000  0.4319660000000  0.4844640000000 1.0
C      1  0.4909820000000  0.5661770000000  0.5154560000000 1.0
C      1  0.5107080000000  0.5660450000000  0.4859350000000 1.0
C      1  0.5123030000000  0.4332130000000  0.5148550000000 1.0
C      1  0.5456430000000  0.5571270000000  0.4218590000000 1.0
C      1  0.5463280000000  0.4425190000000  0.5776580000000 1.0
C      1  0.4632820000000  0.5550400000000  0.5831430000000 1.0
C      1  0.4554070000000  0.4411700000000  0.4281900000000 1.0
C      1  0.5454160000000  0.4217470000000  0.5569290000000 1.0
C      1  0.5462870000000  0.5772360000000  0.4428910000000 1.0
C      1  0.4571770000000  0.5731140000000  0.5598830000000 1.0
C      1  0.4625990000000  0.4173150000000  0.4450660000000 1.0
C      1  0.4659300000000  0.4165970000000  0.5590350000000 1.0
C      1  0.4680650000000  0.5823540000000  0.4394230000000 1.0
C      1  0.5358150000000  0.4179760000000  0.4357570000000 1.0
C      1  0.5317350000000  0.5829800000000  0.5616940000000 1.0
C      1  0.4692970000000  0.5619530000000  0.4189400000000 1.0
C      1  0.4688510000000  0.4387290000000  0.5781080000000 1.0
C      1  0.5327040000000  0.4388410000000  0.4166520000000 1.0
C      1  0.5365410000000  0.5625850000000  0.5817960000000 1.0
C      1  0.5229700000000  0.4732610000000  0.3957050000000 1.0
C      1  0.5283690000000  0.5281660000000  0.6033660000000 1.0
C      1  0.4748850000000  0.4731230000000  0.6008570000000 1.0
C      1  0.4763780000000  0.5271970000000  0.3985880000000 1.0
C      1  0.5280470000000  0.3972480000000  0.4705990000000 1.0
C      1  0.5241040000000  0.6038890000000  0.5273530000000 1.0
C      1  0.4801020000000  0.5965360000000  0.4739670000000 1.0
C      1  0.4806400000000  0.4035870000000  0.5209590000000 1.0
C      1  0.4491580000000  0.5193860000000  0.4363710000000 1.0
C      1  0.4453590000000  0.4837360000000  0.5633270000000 1.0
C      1  0.5529190000000  0.5191000000000  0.5640040000000 1.0
C      1  0.5517790000000  0.4793080000000  0.4353950000000 1.0
C      1  0.4450300000000  0.4348320000000  0.5165150000000 1.0
C      1  0.4479510000000  0.5652780000000  0.4824540000000 1.0
C      1  0.5510650000000  0.5623290000000  0.5201830000000 1.0
C      1  0.5508540000000  0.4382230000000  0.4764210000000 1.0
C      1  0.5773670000000  0.5326770000000  0.5527860000000 1.0
C      1  0.5759300000000  0.4668820000000  0.4429100000000 1.0
C      1  0.4237670000000  0.5323260000000  0.4462830000000 1.0
C      1  0.4221990000000  0.4657760000000  0.5564510000000 1.0
C      1  0.5761680000000  0.5527960000000  0.5324120000000 1.0
C      1  0.5768570000000  0.4477690000000  0.4657320000000 1.0
C      1  0.4216320000000  0.4445670000000  0.5339890000000 1.0
C      1  0.4226530000000  0.5534440000000  0.4669030000000 1.0
C      1  0.5464210000000  0.4155080000000  0.4616330000000 1.0
C      1  0.5445670000000  0.5859170000000  0.5362430000000 1.0
C      1  0.4565730000000  0.4123820000000  0.5314080000000 1.0
C      1  0.4571240000000  0.5874350000000  0.4668000000000 1.0
C      1  0.5473370000000  0.4635830000000  0.4131360000000 1.0
C      1  0.5480850000000  0.5367300000000  0.5848830000000 1.0
C      1  0.4560430000000  0.5362580000000  0.4146400000000 1.0
C      1  0.4536810000000  0.4631260000000  0.5833820000000 1.0
C      1  0.4123750000000  0.5049060000000  0.4454180000000 1.0
C      1  0.4005980000000  0.4865890000000  0.5519770000000 1.0
C      1  0.5896000000000  0.5070050000000  0.5533920000000 1.0
C      1  0.5875860000000  0.4942330000000  0.4438220000000 1.0
C      1  0.4036500000000  0.4478400000000  0.5127990000000 1.0
C      1  0.4118160000000  0.5535090000000  0.4930620000000 1.0
C      1  0.5876520000000  0.5536260000000  0.5057940000000 1.0
C      1  0.5866210000000  0.4469170000000  0.4926240000000 1.0
C      1  0.5305100000000  0.5216040000000  0.5428040000000 1.0
C      1  0.5307980000000  0.4761600000000  0.4535010000000 1.0
C      1  0.4705310000000  0.5225350000000  0.4571440000000 1.0
C      1  0.4692240000000  0.4789310000000  0.5411120000000 1.0
C      1  0.5301370000000  0.5423610000000  0.5236880000000 1.0
C      1  0.5300580000000  0.4586260000000  0.4756230000000 1.0
C      1  0.4699950000000  0.4555120000000  0.5232680000000 1.0
C      1  0.4703230000000  0.5441050000000  0.4780540000000 1.0
C      1  0.5258680000000  0.4998330000000  0.6108570000000 1.0
C      1  0.5275170000000  0.5018850000000  0.3919880000000 1.0
C      1  0.4787930000000  0.4993450000000  0.3926120000000 1.0
C      1  0.4725750000000  0.5010980000000  0.6097290000000 1.0
C      1  0.5211050000000  0.6089170000000  0.5002240000000 1.0
C      1  0.5239210000000  0.3951330000000  0.4993000000000 1.0
C      1  0.4700060000000  0.3927290000000  0.4982510000000 1.0
C      1  0.4742110000000  0.6076210000000  0.4968870000000 1.0
C      1  0.4388710000000  0.4924770000000  0.4774570000000 1.0
C      1  0.4345430000000  0.5140300000000  0.5323450000000 1.0
C      1  0.5593070000000  0.4876440000000  0.5292040000000 1.0
C      1  0.5660800000000  0.5168690000000  0.4705830000000 1.0
C      1  0.4329020000000  0.4682540000000  0.4859730000000 1.0
C      1  0.4409130000000  0.5232430000000  0.5080740000000 1.0
C      1  0.5605140000000  0.5235570000000  0.4965370000000 1.0
C      1  0.5614630000000  0.4743590000000  0.5064540000000 1.0
C      1  0.4669270000000  0.4808660000000  0.4125120000000 1.0
C      1  0.4614160000000  0.5221890000000  0.5885500000000 1.0
C      1  0.5301110000000  0.4815120000000  0.5865260000000 1.0
C      1  0.5317270000000  0.5177220000000  0.4159300000000 1.0
C      1  0.4629420000000  0.4137060000000  0.4783070000000 1.0
C      1  0.4652430000000  0.5885200000000  0.5189290000000 1.0
C      1  0.5312450000000  0.5885720000000  0.4825410000000 1.0
C      1  0.5382510000000  0.4167820000000  0.5131060000000 1.0
C      1  0.5407380000000  0.5241770000000  0.4620630000000 1.0
C      1  0.5315170000000  0.4774620000000  0.5406660000000 1.0
C      1  0.4717630000000  0.5222450000000  0.5431120000000 1.0
C      1  0.4724970000000  0.4763080000000  0.4595990000000 1.0
C      1  0.5273180000000  0.4588430000000  0.5184400000000 1.0
C      1  0.5288960000000  0.5421540000000  0.4812530000000 1.0
C      1  0.4710950000000  0.5437570000000  0.5231130000000 1.0
C      1  0.4722040000000  0.4557130000000  0.4790400000000 1.0
C      1  0.4977100000000  0.6182720000000  0.5011710000000 1.0
C      1  0.4968410000000  0.3858370000000  0.5057340000000 1.0
C      1  0.4990600000000  0.5026540000000  0.6171940000000 1.0
C      1  0.5043350000000  0.4918050000000  0.3839440000000 1.0
C      1  0.5487030000000  0.4992400000000  0.5052460000000 1.0
C      1  0.4571660000000  0.5027460000000  0.4965350000000 1.0
C      1  0.5071950000000  0.5003390000000  0.4849790000000 1.0
END
