TITL C-2441169-1362-1324 0.0141813969314762 125000 -21609.1311055425 0 0 145 (C1) n - 1
REM
REM in /home/bkarasulu/work/CARBON/AIRSS/Generating-Clusters/ReaxFF-fromJPCA2015/Units_Real/with-SteepDescent/Higher-Symm
REM
REM
REM
REM
REM
REM ./C.cell (1df0a924f5614ab8850e4351716899ee)
REM
REM compiler GCC version 9.2.1 20190827 (Red Hat 9.2.1-1)
REM options -cpp -mtune=generic -march=x86-64 -g -O0 -fpre-include=/usr/include/finclude/math-vector-fortran.h
REM seed 325732757 772840184 -729128531 -1570014086 300714562 -1785445069 -1645390679 -1315043158 -472669767 753914903 -1828355215 -912316183 508799263 354498824 -1084578347 291666584 1273543319 1769585356 -1727816071 1335125970 1436053108 -1953277997 52980365 1217227536 1852372073 -1028464341 1676688894 -818921923 1743677186 -244052954 313910128 -764069484 261026864
REM
CELL 1.54180   50.00000   50.00000   50.00000   90.00000   90.00000   90.00000
LATT -1
SFAC C  
C      1  0.5592590000000  0.5325260000000  0.5502200000000 1.0
C      1  0.5740280000000  0.4811680000000  0.5522310000000 1.0
C      1  0.5448760000000  0.4401640000000  0.5538470000000 1.0
C      1  0.4960450000000  0.4278250000000  0.5575530000000 1.0
C      1  0.4523210000000  0.4470100000000  0.5581450000000 1.0
C      1  0.4309170000000  0.4896930000000  0.5536260000000 1.0
C      1  0.4388650000000  0.5388720000000  0.5568410000000 1.0
C      1  0.4754490000000  0.5719230000000  0.5540270000000 1.0
C      1  0.5253720000000  0.5716880000000  0.5547700000000 1.0
C      1  0.4969290000000  0.4624600000000  0.4298010000000 1.0
C      1  0.4795190000000  0.4798190000000  0.4468960000000 1.0
C      1  0.4693790000000  0.5027400000000  0.4322980000000 1.0
C      1  0.4778120000000  0.5298220000000  0.4321070000000 1.0
C      1  0.4984020000000  0.5396950000000  0.4496420000000 1.0
C      1  0.5238920000000  0.5344840000000  0.4399250000000 1.0
C      1  0.5377950000000  0.5132960000000  0.4506340000000 1.0
C      1  0.5364520000000  0.4867670000000  0.4381770000000 1.0
C      1  0.5177460000000  0.4679550000000  0.4501170000000 1.0
C      1  0.5119540000000  0.4808940000000  0.5259970000000 1.0
C      1  0.4903450000000  0.4600810000000  0.5283410000000 1.0
C      1  0.4656210000000  0.4726610000000  0.5164850000000 1.0
C      1  0.4705400000000  0.5007230000000  0.5271740000000 1.0
C      1  0.4660150000000  0.5294490000000  0.5216970000000 1.0
C      1  0.4903770000000  0.5450340000000  0.5247230000000 1.0
C      1  0.5126360000000  0.5259160000000  0.5190000000000 1.0
C      1  0.5442770000000  0.5200480000000  0.5256020000000 1.0
C      1  0.5407750000000  0.4859710000000  0.5290650000000 1.0
C      1  0.5369540000000  0.4836020000000  0.4869380000000 1.0
C      1  0.5196200000000  0.4622540000000  0.4786880000000 1.0
C      1  0.4913470000000  0.4579160000000  0.4844910000000 1.0
C      1  0.4700100000000  0.4723830000000  0.4726780000000 1.0
C      1  0.4559710000000  0.4972290000000  0.4840000000000 1.0
C      1  0.4618020000000  0.5251720000000  0.4812850000000 1.0
C      1  0.4898780000000  0.5384760000000  0.4776120000000 1.0
C      1  0.5165610000000  0.5319800000000  0.4911100000000 1.0
C      1  0.5378040000000  0.5117800000000  0.4794910000000 1.0
C      1  0.4470650000000  0.5647980000000  0.5461790000000 1.0
C      1  0.5001930000000  0.5855580000000  0.5443760000000 1.0
C      1  0.5510230000000  0.5636180000000  0.5448570000000 1.0
C      1  0.5813400000000  0.5078550000000  0.5430590000000 1.0
C      1  0.5697750000000  0.4520400000000  0.5419560000000 1.0
C      1  0.5234550000000  0.4214410000000  0.5468520000000 1.0
C      1  0.4680440000000  0.4239640000000  0.5488320000000 1.0
C      1  0.4288440000000  0.4605830000000  0.5482530000000 1.0
C      1  0.4208980000000  0.5169850000000  0.5475350000000 1.0
C      1  0.5154500000000  0.5490110000000  0.5721330000000 1.0
C      1  0.5393760000000  0.5295400000000  0.5717270000000 1.0
C      1  0.5458850000000  0.4819580000000  0.5574370000000 1.0
C      1  0.5298120000000  0.4603300000000  0.5702920000000 1.0
C      1  0.4971620000000  0.4561540000000  0.5625620000000 1.0
C      1  0.4699220000000  0.4684400000000  0.5715420000000 1.0
C      1  0.4590500000000  0.4961600000000  0.5575620000000 1.0
C      1  0.4622180000000  0.5255410000000  0.5694730000000 1.0
C      1  0.4862780000000  0.5458760000000  0.5594920000000 1.0
C      1  0.4201640000000  0.5295000000000  0.4448890000000 1.0
C      1  0.4587610000000  0.5851330000000  0.4533970000000 1.0
C      1  0.5255850000000  0.5914120000000  0.4511780000000 1.0
C      1  0.5826920000000  0.5566050000000  0.4519390000000 1.0
C      1  0.5980810000000  0.4960080000000  0.4414420000000 1.0
C      1  0.5701780000000  0.4351970000000  0.4546270000000 1.0
C      1  0.5096830000000  0.4124180000000  0.4516390000000 1.0
C      1  0.4431510000000  0.4164510000000  0.4511150000000 1.0
C      1  0.4093730000000  0.4756970000000  0.4527370000000 1.0
C      1  0.5157850000000  0.6048870000000  0.4994070000000 1.0
C      1  0.5775850000000  0.5695790000000  0.5008340000000 1.0
C      1  0.5985250000000  0.4966140000000  0.4954780000000 1.0
C      1  0.5725040000000  0.4226420000000  0.4991790000000 1.0
C      1  0.5153000000000  0.3987380000000  0.4972160000000 1.0
C      1  0.4501160000000  0.4095520000000  0.5015750000000 1.0
C      1  0.4053240000000  0.4636210000000  0.5039050000000 1.0
C      1  0.4006230000000  0.5465590000000  0.4856570000000 1.0
C      1  0.4440930000000  0.5829150000000  0.4982270000000 1.0
C      1  0.4184040000000  0.5529770000000  0.4635510000000 1.0
C      1  0.4787210000000  0.5975270000000  0.4701830000000 1.0
C      1  0.5426190000000  0.5736290000000  0.4669900000000 1.0
C      1  0.5940190000000  0.5375100000000  0.4698690000000 1.0
C      1  0.5929240000000  0.4712300000000  0.4502210000000 1.0
C      1  0.5572280000000  0.4182380000000  0.4741740000000 1.0
C      1  0.4877680000000  0.4053510000000  0.4666250000000 1.0
C      1  0.4267920000000  0.4348070000000  0.4643500000000 1.0
C      1  0.4040190000000  0.5061900000000  0.4555870000000 1.0
C      1  0.4185620000000  0.5449900000000  0.5109620000000 1.0
C      1  0.4752680000000  0.5866650000000  0.4990110000000 1.0
C      1  0.5319960000000  0.5824040000000  0.5091770000000 1.0
C      1  0.5834450000000  0.5399130000000  0.4993340000000 1.0
C      1  0.5841230000000  0.4689830000000  0.4972920000000 1.0
C      1  0.5478550000000  0.4253540000000  0.5153960000000 1.0
C      1  0.4908320000000  0.4124770000000  0.5073310000000 1.0
C      1  0.4357610000000  0.4350630000000  0.5054720000000 1.0
C      1  0.4084440000000  0.4940230000000  0.5072280000000 1.0
C      1  0.5382270000000  0.5195060000000  0.5997430000000 1.0
C      1  0.5370960000000  0.4921280000000  0.6055110000000 1.0
C      1  0.5341500000000  0.4650230000000  0.6021800000000 1.0
C      1  0.5104140000000  0.4649050000000  0.6173730000000 1.0
C      1  0.4876690000000  0.4719220000000  0.6120340000000 1.0
C      1  0.4665240000000  0.4826610000000  0.5992940000000 1.0
C      1  0.4669180000000  0.5124140000000  0.5978950000000 1.0
C      1  0.4902940000000  0.5246460000000  0.6017640000000 1.0
C      1  0.5133510000000  0.5369880000000  0.6031540000000 1.0
C      1  0.5578550000000  0.5241700000000  0.5005160000000 1.0
C      1  0.5554000000000  0.4742650000000  0.5059530000000 1.0
C      1  0.5302080000000  0.4401060000000  0.5012550000000 1.0
C      1  0.4897830000000  0.4407130000000  0.5064190000000 1.0
C      1  0.4457330000000  0.4608000000000  0.5009260000000 1.0
C      1  0.4318940000000  0.5007100000000  0.4961370000000 1.0
C      1  0.4482430000000  0.5386390000000  0.5023650000000 1.0
C      1  0.4893490000000  0.5602160000000  0.4994290000000 1.0
C      1  0.5286700000000  0.5603970000000  0.4893480000000 1.0
C      1  0.5677770000000  0.5244230000000  0.4197950000000 1.0
C      1  0.5565370000000  0.4749650000000  0.4212080000000 1.0
C      1  0.5336340000000  0.4393610000000  0.4249150000000 1.0
C      1  0.4702530000000  0.4508000000000  0.4169940000000 1.0
C      1  0.4458520000000  0.4703000000000  0.4132510000000 1.0
C      1  0.4486350000000  0.5004290000000  0.4125650000000 1.0
C      1  0.4579250000000  0.5461690000000  0.4194500000000 1.0
C      1  0.4928860000000  0.5770590000000  0.4231320000000 1.0
C      1  0.5370300000000  0.5522620000000  0.4228130000000 1.0
C      1  0.6003510000000  0.5091810000000  0.4687360000000 1.0
C      1  0.5881680000000  0.4531230000000  0.4686900000000 1.0
C      1  0.5294140000000  0.4069970000000  0.4725230000000 1.0
C      1  0.4608960000000  0.4047870000000  0.4740790000000 1.0
C      1  0.4118720000000  0.4551400000000  0.4756040000000 1.0
C      1  0.3935930000000  0.5214700000000  0.4754410000000 1.0
C      1  0.4376290000000  0.5749320000000  0.4708320000000 1.0
C      1  0.5068580000000  0.6034160000000  0.4703780000000 1.0
C      1  0.5722760000000  0.5747610000000  0.4723580000000 1.0
C      1  0.4562010000000  0.4335490000000  0.4322840000000 1.0
C      1  0.4272510000000  0.4712020000000  0.4333110000000 1.0
C      1  0.4364680000000  0.5265030000000  0.4209650000000 1.0
C      1  0.4652320000000  0.5745910000000  0.4255600000000 1.0
C      1  0.5204940000000  0.5778940000000  0.4246900000000 1.0
C      1  0.5664170000000  0.5506700000000  0.4262130000000 1.0
C      1  0.5762610000000  0.4980140000000  0.4194990000000 1.0
C      1  0.5597550000000  0.4460600000000  0.4273270000000 1.0
C      1  0.5073770000000  0.4330300000000  0.4276450000000 1.0
C      1  0.5827690000000  0.4448190000000  0.5163330000000 1.0
C      1  0.5284080000000  0.4048740000000  0.5230030000000 1.0
C      1  0.4674820000000  0.4067560000000  0.5245000000000 1.0
C      1  0.4158930000000  0.4465290000000  0.5250490000000 1.0
C      1  0.4061930000000  0.5195100000000  0.5231440000000 1.0
C      1  0.4324390000000  0.5715050000000  0.5216990000000 1.0
C      1  0.4961840000000  0.6009540000000  0.5201770000000 1.0
C      1  0.5593380000000  0.5787230000000  0.5214650000000 1.0
C      1  0.5947050000000  0.5134830000000  0.5184090000000 1.0
C      1  0.4991200000000  0.5027860000000  0.5255070000000 1.0
END
