TITL C-2441161-5029-1130 0.0111251883289715 125000 -10706.8250781251 0 0 74 (C1) n - 1
REM
REM in /home/bkarasulu/work/CARBON/AIRSS/Generating-Clusters/ReaxFF-fromJPCA2015/Units_Real/with-SteepDescent/Higher-Symm
REM
REM
REM
REM
REM
REM ./C.cell (1df0a924f5614ab8850e4351716899ee)
REM
REM compiler GCC version 9.2.1 20190827 (Red Hat 9.2.1-1)
REM options -cpp -mtune=generic -march=x86-64 -g -O0 -fpre-include=/usr/include/finclude/math-vector-fortran.h
REM seed -1935189139 354691607 1947836285 -796847130 496852317 -835712887 988156498 -24272008 19650297 -1471675814 1762303883 -2010414750 212555793 -1173234459 483440274 1494115419 -396270941 812142650 -45177260 -1947064921 1447822837 -1429653985 650889462 1518137748 1595824631 -1344065718 1840410458 899815806 -2044513738 618186297 836050815 1361913136 -1234145321
REM
CELL 1.54180   50.00000   50.00000   50.00000   90.00000   90.00000   90.00000
LATT -1
SFAC C  
C      1  0.4632160000000  0.4398430000000  0.4721720000000 1.0
C      1  0.4511650000000  0.4406870000000  0.5219080000000 1.0
C      1  0.5085230000000  0.4396750000000  0.5456740000000 1.0
C      1  0.5523340000000  0.4392250000000  0.5022490000000 1.0
C      1  0.5181480000000  0.4405550000000  0.4600790000000 1.0
C      1  0.4470400000000  0.5637090000000  0.5191650000000 1.0
C      1  0.5042480000000  0.5572150000000  0.5459140000000 1.0
C      1  0.5539630000000  0.5610750000000  0.5166170000000 1.0
C      1  0.5318300000000  0.5471740000000  0.4578670000000 1.0
C      1  0.4594520000000  0.5617740000000  0.4531440000000 1.0
C      1  0.4868750000000  0.4952300000000  0.5789450000000 1.0
C      1  0.5721030000000  0.4958960000000  0.5347950000000 1.0
C      1  0.5561040000000  0.4998830000000  0.4413020000000 1.0
C      1  0.4651770000000  0.4922670000000  0.4257150000000 1.0
C      1  0.4181430000000  0.4911890000000  0.5120120000000 1.0
C      1  0.4517770000000  0.5208980000000  0.5063550000000 1.0
C      1  0.4897480000000  0.4998130000000  0.5352520000000 1.0
C      1  0.5327570000000  0.5006740000000  0.5120150000000 1.0
C      1  0.5342500000000  0.4984960000000  0.4833940000000 1.0
C      1  0.4796960000000  0.5214760000000  0.4564780000000 1.0
C      1  0.5020800000000  0.5274120000000  0.4209960000000 1.0
C      1  0.4249510000000  0.5221530000000  0.4708930000000 1.0
C      1  0.4579610000000  0.5284340000000  0.5560310000000 1.0
C      1  0.5406350000000  0.5240080000000  0.5587310000000 1.0
C      1  0.5703130000000  0.5281120000000  0.4802070000000 1.0
C      1  0.4378850000000  0.4784570000000  0.4920300000000 1.0
C      1  0.4644830000000  0.4814450000000  0.5655960000000 1.0
C      1  0.5522600000000  0.4796110000000  0.5506670000000 1.0
C      1  0.5723730000000  0.4872660000000  0.4613770000000 1.0
C      1  0.4907870000000  0.4822250000000  0.4357280000000 1.0
C      1  0.4224910000000  0.5175770000000  0.5000920000000 1.0
C      1  0.4850620000000  0.5176180000000  0.5599510000000 1.0
C      1  0.5531050000000  0.5175200000000  0.5333980000000 1.0
C      1  0.5460170000000  0.5188860000000  0.4640010000000 1.0
C      1  0.4738870000000  0.5203420000000  0.4273820000000 1.0
C      1  0.5277960000000  0.5521080000000  0.5606460000000 1.0
C      1  0.5583890000000  0.5526730000000  0.4908550000000 1.0
C      1  0.5090370000000  0.5476150000000  0.4411020000000 1.0
C      1  0.4416250000000  0.5480140000000  0.4702070000000 1.0
C      1  0.4630920000000  0.5533020000000  0.5397180000000 1.0
C      1  0.4451540000000  0.4473780000000  0.4944030000000 1.0
C      1  0.4821830000000  0.4464880000000  0.5286590000000 1.0
C      1  0.5270020000000  0.4466690000000  0.5203030000000 1.0
C      1  0.5437420000000  0.4457940000000  0.4750470000000 1.0
C      1  0.4936570000000  0.4387790000000  0.4779170000000 1.0
C      1  0.4930860000000  0.4968700000000  0.4621400000000 1.0
C      1  0.4627240000000  0.4954870000000  0.5000800000000 1.0
C      1  0.4779450000000  0.4753070000000  0.5400040000000 1.0
C      1  0.5346050000000  0.4744150000000  0.5282200000000 1.0
C      1  0.5481790000000  0.4756780000000  0.4737700000000 1.0
C      1  0.4309260000000  0.4946170000000  0.4654190000000 1.0
C      1  0.4451090000000  0.5023430000000  0.5571130000000 1.0
C      1  0.5372290000000  0.4969620000000  0.5696060000000 1.0
C      1  0.5829120000000  0.5026720000000  0.4842870000000 1.0
C      1  0.5096270000000  0.4991220000000  0.4200620000000 1.0
C      1  0.4420070000000  0.4811050000000  0.4412460000000 1.0
C      1  0.4257050000000  0.4861840000000  0.5400310000000 1.0
C      1  0.5133020000000  0.4820880000000  0.5799030000000 1.0
C      1  0.5828860000000  0.4849830000000  0.5088820000000 1.0
C      1  0.5343910000000  0.4842730000000  0.4285820000000 1.0
C      1  0.5443000000000  0.5631610000000  0.5406620000000 1.0
C      1  0.5275010000000  0.5591390000000  0.4839670000000 1.0
C      1  0.4878710000000  0.5493050000000  0.4636870000000 1.0
C      1  0.4583310000000  0.5489500000000  0.4971230000000 1.0
C      1  0.4916930000000  0.5583860000000  0.5222370000000 1.0
C      1  0.5245770000000  0.4595260000000  0.4399610000000 1.0
C      1  0.4515470000000  0.4580310000000  0.4543610000000 1.0
C      1  0.4343360000000  0.4597650000000  0.5335440000000 1.0
C      1  0.5115860000000  0.4576560000000  0.5653840000000 1.0
C      1  0.5710930000000  0.4594580000000  0.5050960000000 1.0
C      1  0.5006160000000  0.5562120000000  0.4936460000000 1.0
C      1  0.5043910000000  0.5060410000000  0.5108250000000 1.0
C      1  0.4897670000000  0.4909840000000  0.4906860000000 1.0
C      1  0.4999520000000  0.4411690000000  0.5046740000000 1.0
END
