TITL C-2441162-9305-1265 0.0417719544430774 125000 -15410.8618714069 0 0 110 (C1) n - 1
REM
REM in /home/bkarasulu/work/CARBON/AIRSS/Generating-Clusters/ReaxFF-fromJPCA2015/Units_Real/with-SteepDescent/Higher-Symm
REM
REM
REM
REM
REM
REM ./C.cell (1df0a924f5614ab8850e4351716899ee)
REM
REM compiler GCC version 9.2.1 20190827 (Red Hat 9.2.1-1)
REM options -cpp -mtune=generic -march=x86-64 -g -O0 -fpre-include=/usr/include/finclude/math-vector-fortran.h
REM seed 2032812629 11765335 -1605365869 690273487 -510550091 18010116 739696762 -1807566032 1597242508 -1723189186 1992491226 -302116377 -896863265 1857134699 1347557530 -704501152 1447094542 545801602 -228859151 1097892801 -1820998850 1425705292 2114745208 54934680 -1879794221 -1479350301 1127746434 -321786379 -1393394753 993182047 -1914003817 -1824685577 -1921482740
REM
CELL 1.54180   50.00000   50.00000   50.00000   90.00000   90.00000   90.00000
LATT -1
SFAC C  
C      1  0.4490630000000  0.4874620000000  0.5634900000000 1.0
C      1  0.4522030000000  0.4877290000000  0.4373920000000 1.0
C      1  0.4136060000000  0.4884830000000  0.5145930000000 1.0
C      1  0.4138190000000  0.4885570000000  0.4852900000000 1.0
C      1  0.5552470000000  0.4378070000000  0.5483400000000 1.0
C      1  0.5557910000000  0.4352530000000  0.4521720000000 1.0
C      1  0.4399390000000  0.4432470000000  0.5341620000000 1.0
C      1  0.4397600000000  0.4442310000000  0.4649750000000 1.0
C      1  0.5399250000000  0.5410090000000  0.4857270000000 1.0
C      1  0.5397770000000  0.5417990000000  0.5130520000000 1.0
C      1  0.5515760000000  0.4279850000000  0.4802800000000 1.0
C      1  0.5500800000000  0.4273840000000  0.5217330000000 1.0
C      1  0.5209300000000  0.4953740000000  0.4304770000000 1.0
C      1  0.5319920000000  0.5030050000000  0.5764620000000 1.0
C      1  0.5322120000000  0.5419810000000  0.4330120000000 1.0
C      1  0.5367330000000  0.5321460000000  0.5733740000000 1.0
C      1  0.4947790000000  0.4321020000000  0.5118510000000 1.0
C      1  0.4823600000000  0.4387350000000  0.4880360000000 1.0
C      1  0.5231370000000  0.4406350000000  0.5157290000000 1.0
C      1  0.5276310000000  0.4426010000000  0.4877000000000 1.0
C      1  0.5267920000000  0.5077250000000  0.4560800000000 1.0
C      1  0.5192590000000  0.4927130000000  0.5523340000000 1.0
C      1  0.4719350000000  0.4689440000000  0.5660310000000 1.0
C      1  0.4713860000000  0.4674670000000  0.4294760000000 1.0
C      1  0.5793080000000  0.4890550000000  0.4660100000000 1.0
C      1  0.5812340000000  0.4872170000000  0.5332980000000 1.0
C      1  0.4935400000000  0.5260500000000  0.5156930000000 1.0
C      1  0.4940750000000  0.5310510000000  0.4870400000000 1.0
C      1  0.5584950000000  0.5630940000000  0.4783060000000 1.0
C      1  0.5559070000000  0.5641770000000  0.5247960000000 1.0
C      1  0.4642470000000  0.4439090000000  0.5535830000000 1.0
C      1  0.4642770000000  0.4439820000000  0.4449900000000 1.0
C      1  0.5260610000000  0.4122120000000  0.5276130000000 1.0
C      1  0.5249600000000  0.4173400000000  0.4743830000000 1.0
C      1  0.4601780000000  0.4917200000000  0.4652080000000 1.0
C      1  0.4535670000000  0.4909500000000  0.5346570000000 1.0
C      1  0.5326390000000  0.4307870000000  0.4344940000000 1.0
C      1  0.5324610000000  0.4338120000000  0.5663220000000 1.0
C      1  0.5706430000000  0.4986560000000  0.5583410000000 1.0
C      1  0.5664400000000  0.5007840000000  0.4415660000000 1.0
C      1  0.5976960000000  0.5026480000000  0.5145880000000 1.0
C      1  0.5976250000000  0.5026130000000  0.4842070000000 1.0
C      1  0.4743050000000  0.4157580000000  0.5244290000000 1.0
C      1  0.4707040000000  0.4148430000000  0.4747460000000 1.0
C      1  0.4346640000000  0.5316470000000  0.5554200000000 1.0
C      1  0.4361780000000  0.5313930000000  0.4445930000000 1.0
C      1  0.4845580000000  0.5774430000000  0.5077110000000 1.0
C      1  0.4891450000000  0.5774150000000  0.4779960000000 1.0
C      1  0.4905270000000  0.4955160000000  0.5143690000000 1.0
C      1  0.4841640000000  0.4821740000000  0.4773700000000 1.0
C      1  0.5140500000000  0.4832040000000  0.5082930000000 1.0
C      1  0.5127980000000  0.4735790000000  0.4813210000000 1.0
C      1  0.4676040000000  0.5351510000000  0.4772750000000 1.0
C      1  0.4677840000000  0.5356600000000  0.5238810000000 1.0
C      1  0.4301810000000  0.5620790000000  0.5271700000000 1.0
C      1  0.4280350000000  0.5621020000000  0.4723430000000 1.0
C      1  0.5604330000000  0.4818740000000  0.4865410000000 1.0
C      1  0.5592130000000  0.4817050000000  0.5157720000000 1.0
C      1  0.4989500000000  0.5363330000000  0.5803530000000 1.0
C      1  0.5039100000000  0.5359810000000  0.4234560000000 1.0
C      1  0.4507720000000  0.5154210000000  0.5724760000000 1.0
C      1  0.4534610000000  0.5154440000000  0.4279370000000 1.0
C      1  0.4740760000000  0.5678890000000  0.4537300000000 1.0
C      1  0.4749390000000  0.5658350000000  0.5476090000000 1.0
C      1  0.4452090000000  0.5583850000000  0.4483780000000 1.0
C      1  0.4463480000000  0.5585180000000  0.5512830000000 1.0
C      1  0.4526590000000  0.5576420000000  0.4871550000000 1.0
C      1  0.4565900000000  0.5604460000000  0.5125140000000 1.0
C      1  0.4238850000000  0.4650820000000  0.5250510000000 1.0
C      1  0.4259340000000  0.4667050000000  0.4742800000000 1.0
C      1  0.5526660000000  0.4823800000000  0.5747770000000 1.0
C      1  0.5472710000000  0.4832730000000  0.4279340000000 1.0
C      1  0.5181100000000  0.5370430000000  0.5282760000000 1.0
C      1  0.5175820000000  0.5301940000000  0.4714560000000 1.0
C      1  0.5123310000000  0.4177160000000  0.5527090000000 1.0
C      1  0.5113570000000  0.4170990000000  0.4490150000000 1.0
C      1  0.5333800000000  0.4863740000000  0.5271390000000 1.0
C      1  0.5355980000000  0.4882960000000  0.4740110000000 1.0
C      1  0.4690550000000  0.4634470000000  0.4932730000000 1.0
C      1  0.4712520000000  0.4754800000000  0.5196310000000 1.0
C      1  0.4477380000000  0.4235670000000  0.5142550000000 1.0
C      1  0.4445040000000  0.4232430000000  0.4849730000000 1.0
C      1  0.4488380000000  0.5139880000000  0.5180880000000 1.0
C      1  0.4487400000000  0.5124690000000  0.4829000000000 1.0
C      1  0.5239350000000  0.5512350000000  0.5528130000000 1.0
C      1  0.5225020000000  0.5684500000000  0.4421630000000 1.0
C      1  0.5431930000000  0.4589840000000  0.5614590000000 1.0
C      1  0.5410400000000  0.4580030000000  0.4413770000000 1.0
C      1  0.5730930000000  0.5436850000000  0.4623110000000 1.0
C      1  0.5725220000000  0.5434470000000  0.5365560000000 1.0
C      1  0.4203890000000  0.5175940000000  0.4711800000000 1.0
C      1  0.4204110000000  0.5178780000000  0.5291750000000 1.0
C      1  0.4909010000000  0.4907470000000  0.5596700000000 1.0
C      1  0.4927430000000  0.4882990000000  0.4271010000000 1.0
C      1  0.5335930000000  0.5821700000000  0.5175080000000 1.0
C      1  0.5387700000000  0.5823970000000  0.4879330000000 1.0
C      1  0.5167120000000  0.5798860000000  0.4694290000000 1.0
C      1  0.5060350000000  0.5770790000000  0.5256210000000 1.0
C      1  0.4976740000000  0.5611910000000  0.5652030000000 1.0
C      1  0.4950590000000  0.5623040000000  0.4333480000000 1.0
C      1  0.4112690000000  0.5415270000000  0.4856870000000 1.0
C      1  0.4123910000000  0.5423560000000  0.5147580000000 1.0
C      1  0.4812100000000  0.5152090000000  0.5740470000000 1.0
C      1  0.4833410000000  0.5150600000000  0.4259090000000 1.0
C      1  0.5616790000000  0.5263160000000  0.5580070000000 1.0
C      1  0.5580650000000  0.5289110000000  0.4413960000000 1.0
C      1  0.5883200000000  0.5303410000000  0.4843340000000 1.0
C      1  0.5876370000000  0.5301040000000  0.5144650000000 1.0
C      1  0.4817820000000  0.4211200000000  0.4482380000000 1.0
C      1  0.4829530000000  0.4214790000000  0.5515620000000 1.0
END
