TITL C-2441166-8118-449 0.176889433552474 125000 -20589.5252098466 0 0 167 (C1) n - 1
REM
REM in /home/bkarasulu/work/CARBON/AIRSS/Generating-Clusters/ReaxFF-fromJPCA2015/Units_Real/with-SteepDescent/Higher-Symm
REM
REM
REM
REM
REM
REM ./C.cell (1df0a924f5614ab8850e4351716899ee)
REM
REM compiler GCC version 9.2.1 20190827 (Red Hat 9.2.1-1)
REM options -cpp -mtune=generic -march=x86-64 -g -O0 -fpre-include=/usr/include/finclude/math-vector-fortran.h
REM seed -2085183865 -1089999694 -1592902855 482810867 492546505 1788727319 -1441844932 725417249 -1141145080 -842295229 -309039025 -1890753644 1568311069 1302430362 900896693 -1331575026 568299807 -1645217289 1850327342 1120449550 -847278817 328297060 -656928459 -1599228985 -97948840 -547089729 113984026 -51365978 -1681653100 928517375 1783925487 -1330121444 1701025284
REM
CELL 1.54180   50.00000   50.00000   50.00000   90.00000   90.00000   90.00000
LATT -1
SFAC C  
C      1  0.4884530000000  0.5690010000000  0.4561350000000 1.0
C      1  0.5115940000000  0.5857000000000  0.4579810000000 1.0
C      1  0.5333800000000  0.5709890000000  0.4692670000000 1.0
C      1  0.5404740000000  0.5833070000000  0.4927390000000 1.0
C      1  0.5510480000000  0.5755310000000  0.5173260000000 1.0
C      1  0.5221220000000  0.5686180000000  0.5449940000000 1.0
C      1  0.5022510000000  0.5850910000000  0.5417130000000 1.0
C      1  0.4788880000000  0.5738660000000  0.5357210000000 1.0
C      1  0.4580030000000  0.5869110000000  0.5246290000000 1.0
C      1  0.4577550000000  0.5626460000000  0.4935260000000 1.0
C      1  0.4685890000000  0.5784070000000  0.4732630000000 1.0
C      1  0.5443150000000  0.5184420000000  0.4002420000000 1.0
C      1  0.5883390000000  0.5225490000000  0.4410320000000 1.0
C      1  0.6089150000000  0.5174060000000  0.4974840000000 1.0
C      1  0.5918070000000  0.5214050000000  0.5561190000000 1.0
C      1  0.5487600000000  0.5200430000000  0.5977570000000 1.0
C      1  0.4872370000000  0.5194920000000  0.6074930000000 1.0
C      1  0.4301950000000  0.5181450000000  0.5853740000000 1.0
C      1  0.3968390000000  0.5186960000000  0.5335700000000 1.0
C      1  0.3931850000000  0.5217340000000  0.4726850000000 1.0
C      1  0.4279670000000  0.5182980000000  0.4215420000000 1.0
C      1  0.4825060000000  0.5194170000000  0.3939830000000 1.0
C      1  0.4603120000000  0.5238880000000  0.4729140000000 1.0
C      1  0.4840600000000  0.5262120000000  0.4614610000000 1.0
C      1  0.5066690000000  0.5285300000000  0.4508200000000 1.0
C      1  0.5257050000000  0.5301410000000  0.4698410000000 1.0
C      1  0.5478750000000  0.5304600000000  0.4870080000000 1.0
C      1  0.5410900000000  0.5286970000000  0.5139870000000 1.0
C      1  0.5331990000000  0.5270280000000  0.5391250000000 1.0
C      1  0.5048600000000  0.5337030000000  0.5337050000000 1.0
C      1  0.4794270000000  0.5283000000000  0.5444770000000 1.0
C      1  0.4576700000000  0.5253710000000  0.5262430000000 1.0
C      1  0.4564580000000  0.5357290000000  0.4991640000000 1.0
C      1  0.6032560000000  0.4946090000000  0.5477860000000 1.0
C      1  0.5649070000000  0.4966070000000  0.5902010000000 1.0
C      1  0.5024200000000  0.4953950000000  0.6133790000000 1.0
C      1  0.4421400000000  0.4946330000000  0.5976290000000 1.0
C      1  0.3991860000000  0.4942350000000  0.5511420000000 1.0
C      1  0.3844400000000  0.4946790000000  0.4875960000000 1.0
C      1  0.4130060000000  0.4960340000000  0.4306970000000 1.0
C      1  0.4661210000000  0.4957400000000  0.3930780000000 1.0
C      1  0.5292380000000  0.4948840000000  0.3906490000000 1.0
C      1  0.5868870000000  0.4938910000000  0.4267260000000 1.0
C      1  0.6081120000000  0.4948900000000  0.4785110000000 1.0
C      1  0.4685380000000  0.5774410000000  0.5619960000000 1.0
C      1  0.4420770000000  0.5822600000000  0.5483660000000 1.0
C      1  0.4375950000000  0.5766840000000  0.5080000000000 1.0
C      1  0.4406420000000  0.5804250000000  0.4597760000000 1.0
C      1  0.4564530000000  0.5811830000000  0.4365040000000 1.0
C      1  0.5006950000000  0.5774630000000  0.4321330000000 1.0
C      1  0.5398270000000  0.5790530000000  0.4439260000000 1.0
C      1  0.5694940000000  0.5819050000000  0.4815660000000 1.0
C      1  0.5763590000000  0.5789020000000  0.5103470000000 1.0
C      1  0.5474130000000  0.5764120000000  0.5445350000000 1.0
C      1  0.5155450000000  0.5801670000000  0.5687350000000 1.0
C      1  0.4617330000000  0.4769560000000  0.4775830000000 1.0
C      1  0.4774020000000  0.4848100000000  0.4562670000000 1.0
C      1  0.5033690000000  0.4822700000000  0.4503570000000 1.0
C      1  0.5296340000000  0.4755420000000  0.4593190000000 1.0
C      1  0.5421700000000  0.4837900000000  0.4837730000000 1.0
C      1  0.5491180000000  0.4749460000000  0.5106650000000 1.0
C      1  0.5336750000000  0.4811870000000  0.5348260000000 1.0
C      1  0.5095520000000  0.4785690000000  0.5501870000000 1.0
C      1  0.4830900000000  0.4830530000000  0.5467350000000 1.0
C      1  0.4606990000000  0.4759640000000  0.5317450000000 1.0
C      1  0.4568090000000  0.4827830000000  0.5050300000000 1.0
C      1  0.5621960000000  0.5568230000000  0.5614420000000 1.0
C      1  0.5189590000000  0.5562290000000  0.5855650000000 1.0
C      1  0.4687590000000  0.5556510000000  0.5818030000000 1.0
C      1  0.4293670000000  0.5556660000000  0.5537650000000 1.0
C      1  0.4149890000000  0.5574850000000  0.5072940000000 1.0
C      1  0.4229320000000  0.5568120000000  0.4578580000000 1.0
C      1  0.4560960000000  0.5562050000000  0.4224700000000 1.0
C      1  0.5059640000000  0.5558520000000  0.4131570000000 1.0
C      1  0.5507900000000  0.5566630000000  0.4297150000000 1.0
C      1  0.5819300000000  0.5572250000000  0.4712450000000 1.0
C      1  0.5892260000000  0.5551580000000  0.5183160000000 1.0
C      1  0.4174960000000  0.4582380000000  0.4581280000000 1.0
C      1  0.4521800000000  0.4574880000000  0.4168350000000 1.0
C      1  0.5046270000000  0.4576030000000  0.4046740000000 1.0
C      1  0.5559940000000  0.4569520000000  0.4221430000000 1.0
C      1  0.5871590000000  0.4569880000000  0.4641820000000 1.0
C      1  0.5933710000000  0.4570500000000  0.5176220000000 1.0
C      1  0.5683360000000  0.4565320000000  0.5650170000000 1.0
C      1  0.5227530000000  0.4587500000000  0.5919570000000 1.0
C      1  0.4690400000000  0.4573540000000  0.5904610000000 1.0
C      1  0.4255520000000  0.4561020000000  0.5600220000000 1.0
C      1  0.4050620000000  0.4568740000000  0.5116300000000 1.0
C      1  0.4465900000000  0.5016420000000  0.5413800000000 1.0
C      1  0.4306930000000  0.4936300000000  0.4965430000000 1.0
C      1  0.4432900000000  0.4994180000000  0.4710640000000 1.0
C      1  0.4636670000000  0.4950700000000  0.4363650000000 1.0
C      1  0.5112730000000  0.5035570000000  0.4326980000000 1.0
C      1  0.5396830000000  0.4957890000000  0.4394450000000 1.0
C      1  0.5617930000000  0.5043390000000  0.4839470000000 1.0
C      1  0.5708250000000  0.4967610000000  0.5098020000000 1.0
C      1  0.5432190000000  0.5016730000000  0.5527420000000 1.0
C      1  0.5201620000000  0.4980600000000  0.5687750000000 1.0
C      1  0.4729680000000  0.5052390000000  0.5623280000000 1.0
C      1  0.4839980000000  0.4355430000000  0.4504790000000 1.0
C      1  0.5146730000000  0.4390420000000  0.4498840000000 1.0
C      1  0.5405820000000  0.4357870000000  0.4651480000000 1.0
C      1  0.5524360000000  0.4439930000000  0.4919280000000 1.0
C      1  0.5494790000000  0.4331020000000  0.5197570000000 1.0
C      1  0.5300460000000  0.4346720000000  0.5443790000000 1.0
C      1  0.4997040000000  0.4366160000000  0.5526370000000 1.0
C      1  0.4718560000000  0.4437530000000  0.5441870000000 1.0
C      1  0.4533800000000  0.4337960000000  0.5224730000000 1.0
C      1  0.4489470000000  0.4444330000000  0.4943280000000 1.0
C      1  0.4587690000000  0.4340430000000  0.4680190000000 1.0
C      1  0.4434370000000  0.4689310000000  0.5839190000000 1.0
C      1  0.4085960000000  0.4689460000000  0.5394080000000 1.0
C      1  0.4089720000000  0.4747040000000  0.4871630000000 1.0
C      1  0.4273250000000  0.4699080000000  0.4340980000000 1.0
C      1  0.4747200000000  0.4697390000000  0.4025670000000 1.0
C      1  0.5315270000000  0.4687880000000  0.4033600000000 1.0
C      1  0.5762160000000  0.4693090000000  0.4390660000000 1.0
C      1  0.5980700000000  0.4694820000000  0.4874790000000 1.0
C      1  0.5875410000000  0.4688010000000  0.5433100000000 1.0
C      1  0.5499150000000  0.4731050000000  0.5808650000000 1.0
C      1  0.4967120000000  0.4700000000000  0.6000140000000 1.0
C      1  0.4326680000000  0.5429070000000  0.4338400000000 1.0
C      1  0.4799410000000  0.5446250000000  0.4080510000000 1.0
C      1  0.5330570000000  0.5436390000000  0.4110740000000 1.0
C      1  0.5737680000000  0.5459610000000  0.4459270000000 1.0
C      1  0.5957130000000  0.5432270000000  0.4931620000000 1.0
C      1  0.5823470000000  0.5450920000000  0.5448290000000 1.0
C      1  0.5459200000000  0.5451090000000  0.5826690000000 1.0
C      1  0.4933150000000  0.5444630000000  0.5934340000000 1.0
C      1  0.4425400000000  0.5432730000000  0.5768650000000 1.0
C      1  0.4130090000000  0.5445260000000  0.5328060000000 1.0
C      1  0.4093700000000  0.5459000000000  0.4809380000000 1.0
C      1  0.5170610000000  0.4046370000000  0.4543450000000 1.0
C      1  0.5407560000000  0.4033450000000  0.4708070000000 1.0
C      1  0.5425360000000  0.3992900000000  0.4970420000000 1.0
C      1  0.5439950000000  0.4020920000000  0.5232890000000 1.0
C      1  0.5242530000000  0.4053970000000  0.5440570000000 1.0
C      1  0.4953730000000  0.4049070000000  0.5485930000000 1.0
C      1  0.4740300000000  0.3996920000000  0.5334810000000 1.0
C      1  0.4516200000000  0.4007130000000  0.5173200000000 1.0
C      1  0.4572490000000  0.3995220000000  0.4907730000000 1.0
C      1  0.4635220000000  0.4032070000000  0.4657190000000 1.0
C      1  0.4894470000000  0.4061750000000  0.4522390000000 1.0
C      1  0.5536150000000  0.4316670000000  0.5654210000000 1.0
C      1  0.5100430000000  0.4341880000000  0.5833720000000 1.0
C      1  0.4642440000000  0.4337180000000  0.5728950000000 1.0
C      1  0.4289920000000  0.4324500000000  0.5438450000000 1.0
C      1  0.4200290000000  0.4352350000000  0.4981310000000 1.0
C      1  0.4295960000000  0.4326880000000  0.4524930000000 1.0
C      1  0.4672200000000  0.4337090000000  0.4223540000000 1.0
C      1  0.5143110000000  0.4336060000000  0.4183150000000 1.0
C      1  0.5576780000000  0.4323880000000  0.4369380000000 1.0
C      1  0.5785910000000  0.4325360000000  0.4800350000000 1.0
C      1  0.5810860000000  0.4317090000000  0.5257580000000 1.0
C      1  0.5048100000000  0.5043800000000  0.4032600000000 1.0
C      1  0.5583420000000  0.5026040000000  0.4202820000000 1.0
C      1  0.6029980000000  0.5027640000000  0.4511050000000 1.0
C      1  0.5962090000000  0.5033090000000  0.5193320000000 1.0
C      1  0.5875600000000  0.5030770000000  0.5741010000000 1.0
C      1  0.5241010000000  0.5044420000000  0.5963400000000 1.0
C      1  0.4686630000000  0.5045030000000  0.5921440000000 1.0
C      1  0.4249040000000  0.5034840000000  0.5612610000000 1.0
C      1  0.3885610000000  0.5041590000000  0.5126010000000 1.0
C      1  0.3980310000000  0.5056520000000  0.4518260000000 1.0
C      1  0.4512840000000  0.5047320000000  0.4160240000000 1.0
C      1  0.5000480000000  0.4995020000000  0.4972840000000 1.0
C      1  0.4970850000000  0.5277660000000  0.5042680000000 1.0
END
