TITL C-2441154-10-549 0.0026701166423443 125000 -1885.19876498115 0 0 16 (C1) n - 1
REM
REM in /home/bkarasulu/work/CARBON/AIRSS/Generating-Clusters/ReaxFF-fromJPCA2015/Units_Real/with-SteepDescent/Higher-Symm
REM
REM
REM
REM
REM
REM ./C.cell (1df0a924f5614ab8850e4351716899ee)
REM
REM compiler GCC version 9.2.1 20190827 (Red Hat 9.2.1-1)
REM options -cpp -mtune=generic -march=x86-64 -g -O0 -fpre-include=/usr/include/finclude/math-vector-fortran.h
REM seed -1647330263 -181832017 -431161125 -669391001 1109301065 715990329 105461953 1559755069 1541190184 -1281346815 -1158071495 -1318317552 -1470107434 1625085077 -77874815 -899345260 -1422501904 -1022139315 736124481 1945939510 26038581 1345212887 -695081553 161482921 937702968 -1219565752 -1124506022 478158955 1204493658 -1415530166 405504220 341408351 -221716813
REM
CELL 1.54180   50.00000   50.00000   50.00000   90.00000   90.00000   90.00000
LATT -1
SFAC C  
C      1  0.4954850000000  0.5208640000000  0.5417590000000 1.0
C      1  0.4936780000000  0.4667340000000  0.5355530000000 1.0
C      1  0.4939250000000  0.4559140000000  0.4812270000000 1.0
C      1  0.4945850000000  0.5046020000000  0.4560330000000 1.0
C      1  0.4937030000000  0.5449990000000  0.4923820000000 1.0
C      1  0.4880950000000  0.4933620000000  0.5447840000000 1.0
C      1  0.4881440000000  0.4552200000000  0.5100540000000 1.0
C      1  0.4884110000000  0.4776310000000  0.4626850000000 1.0
C      1  0.4885490000000  0.5296950000000  0.4679400000000 1.0
C      1  0.4881590000000  0.5392750000000  0.5198270000000 1.0
C      1  0.5127540000000  0.5253780000000  0.5219160000000 1.0
C      1  0.5122920000000  0.4856190000000  0.5307640000000 1.0
C      1  0.5138300000000  0.4636540000000  0.5005890000000 1.0
C      1  0.5123240000000  0.4913400000000  0.4708860000000 1.0
C      1  0.5134310000000  0.5294120000000  0.4825440000000 1.0
C      1  0.5140530000000  0.5025630000000  0.4987110000000 1.0
END
