TITL C-2441168-9922-330 0.0464114576690525 125000 -13978.9879462961 0 0 102 (C1) n - 1
REM
REM in /home/bkarasulu/work/CARBON/AIRSS/Generating-Clusters/ReaxFF-fromJPCA2015/Units_Real/with-SteepDescent/Higher-Symm
REM
REM
REM
REM
REM
REM ./C.cell (1df0a924f5614ab8850e4351716899ee)
REM
REM compiler GCC version 9.2.1 20190827 (Red Hat 9.2.1-1)
REM options -cpp -mtune=generic -march=x86-64 -g -O0 -fpre-include=/usr/include/finclude/math-vector-fortran.h
REM seed -937908707 2114888380 -1454745851 1753242523 1416999257 1660379006 1299385971 994221633 -1983092974 -2079384648 252337114 -1092258035 -176103352 1826282360 914161910 -666044656 -1743798623 -1357332733 -962676992 1273695901 1491043402 1960179291 -580204282 2005996452 1093394657 -442233865 -1690780914 -1114807506 1744722631 148437481 -146660167 -1669025797 -1682260099
REM
CELL 1.54180   50.00000   50.00000   50.00000   90.00000   90.00000   90.00000
LATT -1
SFAC C  
C      1  0.4845690000000  0.5346390000000  0.5388950000000 1.0
C      1  0.5108100000000  0.5385430000000  0.5422770000000 1.0
C      1  0.5237180000000  0.5808040000000  0.5160560000000 1.0
C      1  0.4762620000000  0.5809450000000  0.5153510000000 1.0
C      1  0.4884610000000  0.4660200000000  0.4239410000000 1.0
C      1  0.5172580000000  0.4686430000000  0.4252300000000 1.0
C      1  0.5151160000000  0.5864220000000  0.4885120000000 1.0
C      1  0.4853000000000  0.5863690000000  0.4879780000000 1.0
C      1  0.5312510000000  0.4160350000000  0.4766960000000 1.0
C      1  0.4685190000000  0.4166490000000  0.4766020000000 1.0
C      1  0.5196120000000  0.4627830000000  0.5508860000000 1.0
C      1  0.4800300000000  0.4586290000000  0.5511210000000 1.0
C      1  0.4852790000000  0.5313820000000  0.4624350000000 1.0
C      1  0.5134720000000  0.5307650000000  0.4599610000000 1.0
C      1  0.4727640000000  0.4904280000000  0.4231980000000 1.0
C      1  0.5302420000000  0.4962210000000  0.4231450000000 1.0
C      1  0.5486390000000  0.5520260000000  0.5474190000000 1.0
C      1  0.4475190000000  0.5550190000000  0.5455050000000 1.0
C      1  0.5145100000000  0.4361510000000  0.5136730000000 1.0
C      1  0.4854270000000  0.4368770000000  0.5124550000000 1.0
C      1  0.4357640000000  0.5104720000000  0.4456240000000 1.0
C      1  0.5521900000000  0.5048220000000  0.4413560000000 1.0
C      1  0.5243980000000  0.4470040000000  0.4437480000000 1.0
C      1  0.4765330000000  0.4462500000000  0.4435360000000 1.0
C      1  0.4499860000000  0.4388220000000  0.4807230000000 1.0
C      1  0.5513810000000  0.4362240000000  0.4825210000000 1.0
C      1  0.5367800000000  0.4844360000000  0.5051880000000 1.0
C      1  0.4631170000000  0.4836950000000  0.5065860000000 1.0
C      1  0.4600540000000  0.4884740000000  0.5747020000000 1.0
C      1  0.5429980000000  0.4843180000000  0.5750740000000 1.0
C      1  0.5492500000000  0.5706230000000  0.5242910000000 1.0
C      1  0.4492270000000  0.5735860000000  0.5221650000000 1.0
C      1  0.5919290000000  0.4930020000000  0.5195380000000 1.0
C      1  0.4099650000000  0.4920830000000  0.5203490000000 1.0
C      1  0.4401190000000  0.4507100000000  0.5314000000000 1.0
C      1  0.5619460000000  0.4500220000000  0.5309920000000 1.0
C      1  0.4846490000000  0.4101560000000  0.5008350000000 1.0
C      1  0.5149260000000  0.4098820000000  0.5008460000000 1.0
C      1  0.5153940000000  0.4199850000000  0.4518700000000 1.0
C      1  0.4854670000000  0.4195240000000  0.4523090000000 1.0
C      1  0.5797600000000  0.4728130000000  0.5365010000000 1.0
C      1  0.4242650000000  0.4741010000000  0.5379410000000 1.0
C      1  0.4125050000000  0.4900320000000  0.4911490000000 1.0
C      1  0.5865110000000  0.4902820000000  0.4905170000000 1.0
C      1  0.4843730000000  0.5172030000000  0.4189560000000 1.0
C      1  0.5135710000000  0.5196680000000  0.4175870000000 1.0
C      1  0.4862690000000  0.4786630000000  0.5689180000000 1.0
C      1  0.5133650000000  0.4903620000000  0.5741660000000 1.0
C      1  0.5768030000000  0.5503080000000  0.4802840000000 1.0
C      1  0.4202670000000  0.5530910000000  0.4835330000000 1.0
C      1  0.5370410000000  0.5732290000000  0.4745380000000 1.0
C      1  0.4632280000000  0.5737590000000  0.4732580000000 1.0
C      1  0.4506850000000  0.4867470000000  0.4435120000000 1.0
C      1  0.5582590000000  0.4804230000000  0.4500120000000 1.0
C      1  0.5134690000000  0.4353020000000  0.5572640000000 1.0
C      1  0.4851650000000  0.4315680000000  0.5553200000000 1.0
C      1  0.4853690000000  0.5049690000000  0.5181720000000 1.0
C      1  0.5144010000000  0.5033360000000  0.5153030000000 1.0
C      1  0.4139740000000  0.5375740000000  0.5043020000000 1.0
C      1  0.5846340000000  0.5369030000000  0.5025480000000 1.0
C      1  0.5653580000000  0.4529060000000  0.4617100000000 1.0
C      1  0.4408990000000  0.4575170000000  0.4596020000000 1.0
C      1  0.4375350000000  0.5381770000000  0.4599740000000 1.0
C      1  0.5584610000000  0.5342780000000  0.4581020000000 1.0
C      1  0.4581990000000  0.4428630000000  0.5519120000000 1.0
C      1  0.5424960000000  0.4452130000000  0.5518650000000 1.0
C      1  0.5422490000000  0.4504900000000  0.5083000000000 1.0
C      1  0.4582590000000  0.4526720000000  0.5085730000000 1.0
C      1  0.4367780000000  0.5289220000000  0.5448760000000 1.0
C      1  0.5631890000000  0.5282220000000  0.5442290000000 1.0
C      1  0.5580160000000  0.5684120000000  0.4946480000000 1.0
C      1  0.4415600000000  0.5708730000000  0.4936100000000 1.0
C      1  0.5248180000000  0.5259700000000  0.5021920000000 1.0
C      1  0.4759370000000  0.5271510000000  0.4996550000000 1.0
C      1  0.4581140000000  0.5578680000000  0.4490710000000 1.0
C      1  0.5416960000000  0.5572390000000  0.4491590000000 1.0
C      1  0.4410930000000  0.4999180000000  0.4929270000000 1.0
C      1  0.5583650000000  0.4997430000000  0.4925190000000 1.0
C      1  0.5694910000000  0.4841880000000  0.5617790000000 1.0
C      1  0.4350010000000  0.4879470000000  0.5616080000000 1.0
C      1  0.4509120000000  0.5246260000000  0.4859570000000 1.0
C      1  0.5469020000000  0.5229000000000  0.4840640000000 1.0
C      1  0.4776930000000  0.4804230000000  0.4817780000000 1.0
C      1  0.5230240000000  0.4816100000000  0.4796530000000 1.0
C      1  0.5244870000000  0.5432290000000  0.5655290000000 1.0
C      1  0.4715550000000  0.5489120000000  0.5617900000000 1.0
C      1  0.5110990000000  0.5201560000000  0.5803950000000 1.0
C      1  0.4850150000000  0.5295350000000  0.5774160000000 1.0
C      1  0.5122250000000  0.5018990000000  0.4636900000000 1.0
C      1  0.4830930000000  0.5014500000000  0.4632550000000 1.0
C      1  0.5817540000000  0.4644420000000  0.4801590000000 1.0
C      1  0.4211670000000  0.4677840000000  0.4763880000000 1.0
C      1  0.5143030000000  0.5502000000000  0.5164700000000 1.0
C      1  0.4846990000000  0.5508670000000  0.5153890000000 1.0
C      1  0.4141940000000  0.5207750000000  0.5266640000000 1.0
C      1  0.5866730000000  0.5214690000000  0.5253110000000 1.0
C      1  0.5207700000000  0.5430060000000  0.4343860000000 1.0
C      1  0.4769750000000  0.5409070000000  0.4354410000000 1.0
C      1  0.4861710000000  0.4560640000000  0.4701930000000 1.0
C      1  0.5148250000000  0.4564910000000  0.4702460000000 1.0
C      1  0.5561610000000  0.5093440000000  0.5653010000000 1.0
C      1  0.4500440000000  0.5135670000000  0.5654460000000 1.0
END
