TITL C-2441159-1093-668 0.0252329806054655 125000 -13261.2313505054 0 0 93 (C1) n - 1
REM
REM in /home/bkarasulu/work/CARBON/AIRSS/Generating-Clusters/ReaxFF-fromJPCA2015/Units_Real/with-SteepDescent/Higher-Symm
REM
REM
REM
REM
REM
REM ./C.cell (1df0a924f5614ab8850e4351716899ee)
REM
REM compiler GCC version 9.2.1 20190827 (Red Hat 9.2.1-1)
REM options -cpp -mtune=generic -march=x86-64 -g -O0 -fpre-include=/usr/include/finclude/math-vector-fortran.h
REM seed -1046698731 2098153224 456449014 -755055643 1924966875 -1329479057 -1517441242 1749823462 2004907033 -76632506 -1843603135 1459174620 -1461551841 -2033250106 1547765404 -1176495142 -226312935 1055779410 -30726446 459696800 -410911743 -824598405 -1576896936 1697671947 -38571176 -2045967974 61250143 1400499673 -1635461721 1703094651 434099553 -1910758430 -718891942
REM
CELL 1.54180   50.00000   50.00000   50.00000   90.00000   90.00000   90.00000
LATT -1
SFAC C  
C      1  0.4892940000000  0.4212760000000  0.5234540000000 1.0
C      1  0.4911820000000  0.5728510000000  0.4772670000000 1.0
C      1  0.5162800000000  0.4289600000000  0.5268680000000 1.0
C      1  0.5181450000000  0.5724880000000  0.4698070000000 1.0
C      1  0.4843360000000  0.5723600000000  0.5227180000000 1.0
C      1  0.4868010000000  0.4233220000000  0.4753190000000 1.0
C      1  0.5106000000000  0.5733530000000  0.5310010000000 1.0
C      1  0.5127930000000  0.4256650000000  0.4663530000000 1.0
C      1  0.4828360000000  0.5174810000000  0.5234670000000 1.0
C      1  0.4732620000000  0.4640250000000  0.4766240000000 1.0
C      1  0.5292100000000  0.5379190000000  0.5180890000000 1.0
C      1  0.5209410000000  0.4727560000000  0.4957500000000 1.0
C      1  0.4747010000000  0.4627400000000  0.5205640000000 1.0
C      1  0.4721320000000  0.5332200000000  0.4762300000000 1.0
C      1  0.5218630000000  0.4794790000000  0.5240480000000 1.0
C      1  0.5193660000000  0.5252240000000  0.4939330000000 1.0
C      1  0.4318630000000  0.5561420000000  0.5160280000000 1.0
C      1  0.4248380000000  0.4489230000000  0.4896800000000 1.0
C      1  0.5748410000000  0.5407090000000  0.5172840000000 1.0
C      1  0.5762240000000  0.4595620000000  0.4873880000000 1.0
C      1  0.4303160000000  0.4413890000000  0.5164500000000 1.0
C      1  0.4271240000000  0.5448150000000  0.4896980000000 1.0
C      1  0.5658300000000  0.4470560000000  0.5133990000000 1.0
C      1  0.5662010000000  0.5540450000000  0.4892290000000 1.0
C      1  0.5144520000000  0.5275900000000  0.5884940000000 1.0
C      1  0.5129130000000  0.4737150000000  0.4114990000000 1.0
C      1  0.4850190000000  0.5271830000000  0.5882650000000 1.0
C      1  0.4836080000000  0.4729330000000  0.4101140000000 1.0
C      1  0.5145890000000  0.4727520000000  0.5887570000000 1.0
C      1  0.5150010000000  0.5264880000000  0.4126250000000 1.0
C      1  0.4849740000000  0.4729760000000  0.5889990000000 1.0
C      1  0.4855660000000  0.5266250000000  0.4100510000000 1.0
C      1  0.5581070000000  0.5242730000000  0.4439670000000 1.0
C      1  0.5592280000000  0.4738530000000  0.5609100000000 1.0
C      1  0.4412060000000  0.5273270000000  0.4413540000000 1.0
C      1  0.4395900000000  0.4713400000000  0.5606250000000 1.0
C      1  0.5538960000000  0.4695750000000  0.4446210000000 1.0
C      1  0.5582970000000  0.5271290000000  0.5636260000000 1.0
C      1  0.4404950000000  0.4708970000000  0.4422100000000 1.0
C      1  0.4393950000000  0.5278740000000  0.5618290000000 1.0
C      1  0.5136180000000  0.5441800000000  0.5441960000000 1.0
C      1  0.5091420000000  0.4478640000000  0.4480400000000 1.0
C      1  0.4844890000000  0.5363270000000  0.5446120000000 1.0
C      1  0.4852220000000  0.4635360000000  0.4519320000000 1.0
C      1  0.5158370000000  0.4573050000000  0.5440380000000 1.0
C      1  0.5138710000000  0.5486460000000  0.4523320000000 1.0
C      1  0.4853090000000  0.4620210000000  0.5469930000000 1.0
C      1  0.4854060000000  0.5393080000000  0.4515110000000 1.0
C      1  0.4594190000000  0.5692270000000  0.5112050000000 1.0
C      1  0.4627680000000  0.4353350000000  0.4823160000000 1.0
C      1  0.5344690000000  0.5663100000000  0.5140830000000 1.0
C      1  0.5349320000000  0.4410580000000  0.4827740000000 1.0
C      1  0.4628100000000  0.4349800000000  0.5142950000000 1.0
C      1  0.4650540000000  0.5631610000000  0.4818200000000 1.0
C      1  0.5403480000000  0.4314150000000  0.5097420000000 1.0
C      1  0.5434700000000  0.5724340000000  0.4871250000000 1.0
C      1  0.4314030000000  0.5416420000000  0.5398800000000 1.0
C      1  0.4307500000000  0.4586240000000  0.4655950000000 1.0
C      1  0.5648800000000  0.5447280000000  0.5427350000000 1.0
C      1  0.5589280000000  0.4506930000000  0.4667190000000 1.0
C      1  0.4318900000000  0.4571620000000  0.5387760000000 1.0
C      1  0.4328580000000  0.5442210000000  0.4628170000000 1.0
C      1  0.5660210000000  0.4607630000000  0.5375680000000 1.0
C      1  0.5620160000000  0.5419940000000  0.4647490000000 1.0
C      1  0.5331010000000  0.5387710000000  0.4323810000000 1.0
C      1  0.5326770000000  0.4611090000000  0.5695830000000 1.0
C      1  0.4668970000000  0.5385710000000  0.4291110000000 1.0
C      1  0.4672930000000  0.4608100000000  0.5691740000000 1.0
C      1  0.5293140000000  0.4588370000000  0.4305250000000 1.0
C      1  0.5321500000000  0.5401180000000  0.5694200000000 1.0
C      1  0.4663090000000  0.4620430000000  0.4307280000000 1.0
C      1  0.4674220000000  0.5386780000000  0.5678260000000 1.0
C      1  0.4777790000000  0.4999540000000  0.5796360000000 1.0
C      1  0.5214580000000  0.4995680000000  0.4225420000000 1.0
C      1  0.4762080000000  0.4999750000000  0.4177020000000 1.0
C      1  0.5231270000000  0.5002490000000  0.5802880000000 1.0
C      1  0.5797130000000  0.5107500000000  0.5250850000000 1.0
C      1  0.4248250000000  0.4995790000000  0.5244600000000 1.0
C      1  0.5789300000000  0.4877960000000  0.4766020000000 1.0
C      1  0.4206180000000  0.5078790000000  0.4737720000000 1.0
C      1  0.5632240000000  0.4957980000000  0.4515070000000 1.0
C      1  0.5648890000000  0.5014710000000  0.5508070000000 1.0
C      1  0.4350950000000  0.4993420000000  0.4504950000000 1.0
C      1  0.4323380000000  0.4994960000000  0.5512650000000 1.0
C      1  0.5028340000000  0.4989800000000  0.5328900000000 1.0
C      1  0.4924540000000  0.4983550000000  0.4677290000000 1.0
C      1  0.4905860000000  0.4696570000000  0.4979100000000 1.0
C      1  0.4901010000000  0.5273930000000  0.4977190000000 1.0
C      1  0.5006800000000  0.4997230000000  0.5608000000000 1.0
C      1  0.4961720000000  0.5010810000000  0.4396920000000 1.0
C      1  0.4209610000000  0.5023760000000  0.4997810000000 1.0
C      1  0.5792980000000  0.5001310000000  0.5003910000000 1.0
C      1  0.5181120000000  0.4992180000000  0.4808470000000 1.0
END
