TITL C-2441167-4473-44 0.0439321753232673 125000 -11804.1799206273 0 0 94 (C1) n - 1
REM
REM in /home/bkarasulu/work/CARBON/AIRSS/Generating-Clusters/ReaxFF-fromJPCA2015/Units_Real/with-SteepDescent/Higher-Symm
REM
REM
REM
REM
REM
REM ./C.cell (1df0a924f5614ab8850e4351716899ee)
REM
REM compiler GCC version 9.2.1 20190827 (Red Hat 9.2.1-1)
REM options -cpp -mtune=generic -march=x86-64 -g -O0 -fpre-include=/usr/include/finclude/math-vector-fortran.h
REM seed 1086548340 -716558502 319095042 936252391 -1511568647 -18913602 51549954 501999336 -1781449082 1369881912 -1784264231 -1030169207 146677390 683590766 564537895 1997515822 451064574 -1889898717 -1297685992 -695341935 526403085 -1722532856 854982026 -654745710 1030540885 -2067589067 1772471032 2086860278 -1900996520 755977786 570573871 -1746772135 1629707090
REM
CELL 1.54180   50.00000   50.00000   50.00000   90.00000   90.00000   90.00000
LATT -1
SFAC C  
C      1  0.4199090000000  0.5145040000000  0.4942970000000 1.0
C      1  0.4692300000000  0.5159830000000  0.5752660000000 1.0
C      1  0.5642820000000  0.5144880000000  0.5527190000000 1.0
C      1  0.5667390000000  0.5137410000000  0.4580760000000 1.0
C      1  0.4764930000000  0.5141840000000  0.4219030000000 1.0
C      1  0.4202550000000  0.4863620000000  0.5040690000000 1.0
C      1  0.4697580000000  0.4853710000000  0.4247620000000 1.0
C      1  0.5609390000000  0.4856270000000  0.4508060000000 1.0
C      1  0.5698710000000  0.4864600000000  0.5465020000000 1.0
C      1  0.4777210000000  0.4876810000000  0.5800350000000 1.0
C      1  0.4635880000000  0.5634730000000  0.5318820000000 1.0
C      1  0.5191340000000  0.5617590000000  0.5432750000000 1.0
C      1  0.5511360000000  0.5666470000000  0.4947070000000 1.0
C      1  0.5196060000000  0.5615830000000  0.4525570000000 1.0
C      1  0.4569940000000  0.5614890000000  0.4726960000000 1.0
C      1  0.4557480000000  0.4416130000000  0.4698320000000 1.0
C      1  0.5209420000000  0.4343350000000  0.4557730000000 1.0
C      1  0.5522520000000  0.4368400000000  0.4962740000000 1.0
C      1  0.5192850000000  0.4364650000000  0.5500720000000 1.0
C      1  0.4585660000000  0.4351440000000  0.5239980000000 1.0
C      1  0.4318060000000  0.5392270000000  0.5348780000000 1.0
C      1  0.5119780000000  0.5383720000000  0.5745260000000 1.0
C      1  0.5735800000000  0.5373260000000  0.5123690000000 1.0
C      1  0.5322270000000  0.5413850000000  0.4309670000000 1.0
C      1  0.4427220000000  0.5391580000000  0.4483760000000 1.0
C      1  0.4313030000000  0.4601820000000  0.4618280000000 1.0
C      1  0.5133510000000  0.4625820000000  0.4249670000000 1.0
C      1  0.5772550000000  0.4609430000000  0.4898700000000 1.0
C      1  0.5341290000000  0.4618410000000  0.5710780000000 1.0
C      1  0.4454540000000  0.4619370000000  0.5537410000000 1.0
C      1  0.5689210000000  0.5084140000000  0.5067920000000 1.0
C      1  0.5298130000000  0.5138770000000  0.4292170000000 1.0
C      1  0.4410900000000  0.5116810000000  0.4508940000000 1.0
C      1  0.4333840000000  0.5100380000000  0.5356580000000 1.0
C      1  0.5120590000000  0.5089000000000  0.5734020000000 1.0
C      1  0.5782370000000  0.4889580000000  0.4895470000000 1.0
C      1  0.5319670000000  0.4901640000000  0.5685600000000 1.0
C      1  0.4448490000000  0.4909470000000  0.5524710000000 1.0
C      1  0.4337930000000  0.4876210000000  0.4592390000000 1.0
C      1  0.5171340000000  0.4908970000000  0.4300850000000 1.0
C      1  0.4842690000000  0.4601560000000  0.4212690000000 1.0
C      1  0.4226250000000  0.4610300000000  0.4896220000000 1.0
C      1  0.4657850000000  0.4617820000000  0.5743830000000 1.0
C      1  0.5585750000000  0.4610050000000  0.5556460000000 1.0
C      1  0.5710570000000  0.4602990000000  0.4615690000000 1.0
C      1  0.4838370000000  0.5404030000000  0.5797110000000 1.0
C      1  0.4197130000000  0.5401500000000  0.5084850000000 1.0
C      1  0.4646150000000  0.5397000000000  0.4302400000000 1.0
C      1  0.5565890000000  0.5397420000000  0.4467920000000 1.0
C      1  0.5699710000000  0.5402740000000  0.5407330000000 1.0
C      1  0.4726870000000  0.5111720000000  0.5461230000000 1.0
C      1  0.5375650000000  0.5085680000000  0.5408350000000 1.0
C      1  0.5431110000000  0.5126340000000  0.4759550000000 1.0
C      1  0.4924340000000  0.5114430000000  0.4476860000000 1.0
C      1  0.4487280000000  0.5118380000000  0.4915610000000 1.0
C      1  0.4752290000000  0.4888450000000  0.4532610000000 1.0
C      1  0.5369500000000  0.4873140000000  0.4668860000000 1.0
C      1  0.5504150000000  0.4904020000000  0.5233690000000 1.0
C      1  0.4940130000000  0.4928820000000  0.5540070000000 1.0
C      1  0.4491310000000  0.4908530000000  0.5109400000000 1.0
C      1  0.4935430000000  0.5554730000000  0.5541260000000 1.0
C      1  0.5508180000000  0.5552320000000  0.5225080000000 1.0
C      1  0.5441420000000  0.5577280000000  0.4669140000000 1.0
C      1  0.4796380000000  0.5547850000000  0.4538010000000 1.0
C      1  0.4447960000000  0.5561750000000  0.5116830000000 1.0
C      1  0.4973870000000  0.4449350000000  0.4429510000000 1.0
C      1  0.5476110000000  0.4412490000000  0.4690430000000 1.0
C      1  0.5386010000000  0.4496270000000  0.5334370000000 1.0
C      1  0.4730090000000  0.4502460000000  0.5459290000000 1.0
C      1  0.4471110000000  0.4448080000000  0.4978840000000 1.0
C      1  0.5281140000000  0.5850830000000  0.4937650000000 1.0
C      1  0.5062140000000  0.5774790000000  0.4742170000000 1.0
C      1  0.4737680000000  0.5796590000000  0.4869550000000 1.0
C      1  0.4776570000000  0.5830430000000  0.5168860000000 1.0
C      1  0.5086460000000  0.5809870000000  0.5244710000000 1.0
C      1  0.5298730000000  0.4214520000000  0.5043900000000 1.0
C      1  0.5102190000000  0.4204120000000  0.5284670000000 1.0
C      1  0.4818460000000  0.4193450000000  0.5165300000000 1.0
C      1  0.4736710000000  0.4210300000000  0.4747760000000 1.0
C      1  0.5139770000000  0.4192950000000  0.4800050000000 1.0
C      1  0.4960510000000  0.4717420000000  0.5314620000000 1.0
C      1  0.5241960000000  0.4696770000000  0.5160800000000 1.0
C      1  0.5191110000000  0.4707200000000  0.4842380000000 1.0
C      1  0.4902800000000  0.4743460000000  0.4733130000000 1.0
C      1  0.4759360000000  0.4769460000000  0.5111280000000 1.0
C      1  0.4882690000000  0.5315830000000  0.4699560000000 1.0
C      1  0.5283790000000  0.5265440000000  0.4950820000000 1.0
C      1  0.5222960000000  0.5245290000000  0.5231830000000 1.0
C      1  0.4828650000000  0.5259580000000  0.5211980000000 1.0
C      1  0.4715190000000  0.5277920000000  0.4939380000000 1.0
C      1  0.5087730000000  0.5658880000000  0.4992660000000 1.0
C      1  0.4917990000000  0.4329210000000  0.4924460000000 1.0
C      1  0.4918640000000  0.4896950000000  0.4946840000000 1.0
C      1  0.5051230000000  0.5134800000000  0.5070680000000 1.0
END
