TITL C-2441158-471-1016 0.0814494191078005 125000 -16646.5296320894 0 0 128 (C1) n - 1
REM
REM in /home/bkarasulu/work/CARBON/AIRSS/Generating-Clusters/ReaxFF-fromJPCA2015/Units_Real/with-SteepDescent/Higher-Symm
REM
REM
REM
REM
REM
REM ./C.cell (1df0a924f5614ab8850e4351716899ee)
REM
REM compiler GCC version 9.2.1 20190827 (Red Hat 9.2.1-1)
REM options -cpp -mtune=generic -march=x86-64 -g -O0 -fpre-include=/usr/include/finclude/math-vector-fortran.h
REM seed 842050035 797642448 -1533658414 -1560953238 1127978443 -678557896 -1220555919 -1180899464 28959414 1494191793 -322866969 954029782 -28809047 -974764205 -1055453538 -778153691 -1850152615 -536926859 -268327302 -862387796 811030941 -1059569562 616013617 -688451111 1968159578 -1088622287 -900386384 -1307902308 -329754052 -2071649125 928696176 433265905 -1759803384
REM
CELL 1.54180   50.00000   50.00000   50.00000   90.00000   90.00000   90.00000
LATT -1
SFAC C  
C      1  0.4795270000000  0.5000130000000  0.4570120000000 1.0
C      1  0.5203530000000  0.4998420000000  0.4568060000000 1.0
C      1  0.4792220000000  0.5000320000000  0.5435650000000 1.0
C      1  0.5210510000000  0.4993380000000  0.5436060000000 1.0
C      1  0.4996670000000  0.4790860000000  0.4565050000000 1.0
C      1  0.5001940000000  0.5208620000000  0.4568380000000 1.0
C      1  0.5000520000000  0.4796530000000  0.5434790000000 1.0
C      1  0.5002400000000  0.5202580000000  0.5436440000000 1.0
C      1  0.5101670000000  0.4691590000000  0.5113970000000 1.0
C      1  0.4945890000000  0.5301290000000  0.5135430000000 1.0
C      1  0.5106870000000  0.5309840000000  0.4890840000000 1.0
C      1  0.4899310000000  0.4699490000000  0.4890750000000 1.0
C      1  0.4705660000000  0.5126910000000  0.5104030000000 1.0
C      1  0.5290330000000  0.4915750000000  0.5117660000000 1.0
C      1  0.5292590000000  0.5083840000000  0.4880150000000 1.0
C      1  0.4711060000000  0.4922280000000  0.4885160000000 1.0
C      1  0.4356510000000  0.5143350000000  0.4714880000000 1.0
C      1  0.5637210000000  0.4852160000000  0.4722250000000 1.0
C      1  0.4363810000000  0.4853410000000  0.5279290000000 1.0
C      1  0.5633350000000  0.5148470000000  0.5270820000000 1.0
C      1  0.5145800000000  0.4356130000000  0.4715550000000 1.0
C      1  0.4846610000000  0.5641250000000  0.4728700000000 1.0
C      1  0.4855170000000  0.4356250000000  0.5285310000000 1.0
C      1  0.5104740000000  0.5636170000000  0.5288600000000 1.0
C      1  0.5930640000000  0.5247290000000  0.5278330000000 1.0
C      1  0.4073070000000  0.4745090000000  0.5272710000000 1.0
C      1  0.5925610000000  0.4746810000000  0.4728610000000 1.0
C      1  0.4075960000000  0.5250100000000  0.4727130000000 1.0
C      1  0.5243660000000  0.5892390000000  0.5259480000000 1.0
C      1  0.4742700000000  0.4075160000000  0.5268460000000 1.0
C      1  0.4741090000000  0.5924220000000  0.4728460000000 1.0
C      1  0.5256870000000  0.4073600000000  0.4729390000000 1.0
C      1  0.4992030000000  0.5346480000000  0.5711910000000 1.0
C      1  0.5004680000000  0.4653330000000  0.5700650000000 1.0
C      1  0.4995990000000  0.4651060000000  0.4297020000000 1.0
C      1  0.5002960000000  0.5346970000000  0.4300440000000 1.0
C      1  0.5352120000000  0.4992740000000  0.5702340000000 1.0
C      1  0.4658200000000  0.5006970000000  0.5701580000000 1.0
C      1  0.4648730000000  0.4995670000000  0.4299780000000 1.0
C      1  0.5350590000000  0.5005130000000  0.4299030000000 1.0
C      1  0.4539900000000  0.5260490000000  0.5755270000000 1.0
C      1  0.5463480000000  0.4736320000000  0.5760730000000 1.0
C      1  0.4540550000000  0.4737510000000  0.4236040000000 1.0
C      1  0.5463570000000  0.5262930000000  0.4243240000000 1.0
C      1  0.5262580000000  0.4543040000000  0.5766220000000 1.0
C      1  0.4730720000000  0.5458010000000  0.5763390000000 1.0
C      1  0.4737850000000  0.4540200000000  0.4235220000000 1.0
C      1  0.5263240000000  0.5460760000000  0.4238450000000 1.0
C      1  0.5565120000000  0.4651630000000  0.4522590000000 1.0
C      1  0.4435770000000  0.5347380000000  0.4525040000000 1.0
C      1  0.5559860000000  0.5345530000000  0.5472430000000 1.0
C      1  0.4434210000000  0.4650510000000  0.5479090000000 1.0
C      1  0.4650140000000  0.5564160000000  0.4525960000000 1.0
C      1  0.5348890000000  0.4433620000000  0.4523040000000 1.0
C      1  0.5332420000000  0.5554530000000  0.5460080000000 1.0
C      1  0.4652230000000  0.4433830000000  0.5477470000000 1.0
C      1  0.5808910000000  0.5503100000000  0.5356850000000 1.0
C      1  0.4194710000000  0.4491190000000  0.5348150000000 1.0
C      1  0.5804970000000  0.4491370000000  0.4648700000000 1.0
C      1  0.4195650000000  0.5509520000000  0.4659370000000 1.0
C      1  0.5503210000000  0.5785030000000  0.5347060000000 1.0
C      1  0.4487650000000  0.4197860000000  0.5343120000000 1.0
C      1  0.4485820000000  0.5807300000000  0.4643760000000 1.0
C      1  0.5513030000000  0.4196640000000  0.4656510000000 1.0
C      1  0.5745980000000  0.5507070000000  0.4634750000000 1.0
C      1  0.4272290000000  0.4485270000000  0.4640680000000 1.0
C      1  0.5724620000000  0.4487060000000  0.5359140000000 1.0
C      1  0.4271870000000  0.5506570000000  0.5359750000000 1.0
C      1  0.5486200000000  0.5675870000000  0.4679140000000 1.0
C      1  0.4492910000000  0.4285860000000  0.4643800000000 1.0
C      1  0.4490930000000  0.5714350000000  0.5343330000000 1.0
C      1  0.5509330000000  0.4280900000000  0.5359510000000 1.0
C      1  0.4247210000000  0.5544530000000  0.4945590000000 1.0
C      1  0.5750430000000  0.4444140000000  0.4932600000000 1.0
C      1  0.4256280000000  0.4454160000000  0.5063370000000 1.0
C      1  0.5765190000000  0.5558230000000  0.5074260000000 1.0
C      1  0.5547590000000  0.4255370000000  0.4940180000000 1.0
C      1  0.4425190000000  0.5758290000000  0.4924360000000 1.0
C      1  0.4454050000000  0.4263100000000  0.5060560000000 1.0
C      1  0.5568640000000  0.5750140000000  0.5068780000000 1.0
C      1  0.5251510000000  0.5455430000000  0.5735400000000 1.0
C      1  0.4744050000000  0.4541740000000  0.5738240000000 1.0
C      1  0.5256890000000  0.4540260000000  0.4258790000000 1.0
C      1  0.4743560000000  0.5458660000000  0.4260520000000 1.0
C      1  0.5457730000000  0.5255300000000  0.5736440000000 1.0
C      1  0.4544300000000  0.4747130000000  0.5741170000000 1.0
C      1  0.4540090000000  0.5256130000000  0.4261150000000 1.0
C      1  0.5458540000000  0.4744470000000  0.4260200000000 1.0
C      1  0.4374080000000  0.4689520000000  0.4463740000000 1.0
C      1  0.5627470000000  0.5306560000000  0.4466920000000 1.0
C      1  0.4367280000000  0.5303250000000  0.5542140000000 1.0
C      1  0.5617020000000  0.4694040000000  0.5527200000000 1.0
C      1  0.4696750000000  0.4377430000000  0.4465430000000 1.0
C      1  0.5297110000000  0.5621680000000  0.4466810000000 1.0
C      1  0.5303430000000  0.4380390000000  0.5532960000000 1.0
C      1  0.4685500000000  0.5625150000000  0.5538120000000 1.0
C      1  0.4648730000000  0.5571470000000  0.4985330000000 1.0
C      1  0.5326560000000  0.4466370000000  0.4984260000000 1.0
C      1  0.4673030000000  0.4473230000000  0.5019230000000 1.0
C      1  0.5383390000000  0.5541660000000  0.4941610000000 1.0
C      1  0.5547570000000  0.4660540000000  0.4975420000000 1.0
C      1  0.4478460000000  0.5330770000000  0.4988060000000 1.0
C      1  0.4458310000000  0.4675880000000  0.5024840000000 1.0
C      1  0.5575070000000  0.5329950000000  0.5016220000000 1.0
C      1  0.4895200000000  0.4240480000000  0.4609280000000 1.0
C      1  0.5097630000000  0.5767620000000  0.4602540000000 1.0
C      1  0.4884730000000  0.5778820000000  0.5417690000000 1.0
C      1  0.5106280000000  0.4240410000000  0.5391360000000 1.0
C      1  0.4241350000000  0.4889570000000  0.4609540000000 1.0
C      1  0.5761200000000  0.5100620000000  0.4607610000000 1.0
C      1  0.5758400000000  0.4893920000000  0.5387030000000 1.0
C      1  0.4239430000000  0.5102340000000  0.5393220000000 1.0
C      1  0.5992930000000  0.4851010000000  0.4996600000000 1.0
C      1  0.4006760000000  0.5145670000000  0.4992890000000 1.0
C      1  0.5996040000000  0.5146990000000  0.5008890000000 1.0
C      1  0.4006910000000  0.4849600000000  0.5006520000000 1.0
C      1  0.4842710000000  0.5997100000000  0.4997150000000 1.0
C      1  0.5149300000000  0.4007920000000  0.4995500000000 1.0
C      1  0.5144720000000  0.5999780000000  0.4998610000000 1.0
C      1  0.4852520000000  0.4007760000000  0.5003960000000 1.0
C      1  0.4702590000000  0.5908240000000  0.5236050000000 1.0
C      1  0.5297370000000  0.4102580000000  0.5236310000000 1.0
C      1  0.4702660000000  0.4102560000000  0.4764350000000 1.0
C      1  0.5278920000000  0.5919880000000  0.4759040000000 1.0
C      1  0.5897890000000  0.4701020000000  0.5235150000000 1.0
C      1  0.4103340000000  0.5291380000000  0.5234430000000 1.0
C      1  0.4099750000000  0.4701010000000  0.4764770000000 1.0
C      1  0.5907170000000  0.5291280000000  0.4760480000000 1.0
END
