TITL C-2441162-9305-580 0.117220021086055 125000 -19127.7140468478 0 0 149 (C1) n - 1
REM
REM in /home/bkarasulu/work/CARBON/AIRSS/Generating-Clusters/ReaxFF-fromJPCA2015/Units_Real/with-SteepDescent/Higher-Symm
REM
REM
REM
REM
REM
REM ./C.cell (1df0a924f5614ab8850e4351716899ee)
REM
REM compiler GCC version 9.2.1 20190827 (Red Hat 9.2.1-1)
REM options -cpp -mtune=generic -march=x86-64 -g -O0 -fpre-include=/usr/include/finclude/math-vector-fortran.h
REM seed -517672645 774866596 -954327576 232648366 1755179050 -1745665254 -1625023875 -1240736292 1385844993 1009808366 1509083309 -1148274666 958451197 -1409873590 1862678374 304131254 -93097621 881838422 951142859 -805944839 -2034632060 -366684498 505574114 1297956383 737960767 -138972081 -1404490058 1154993303 1453123836 1331374393 1048812171 -1194215382 -903771627
REM
CELL 1.54180   50.00000   50.00000   50.00000   90.00000   90.00000   90.00000
LATT -1
SFAC C  
C      1  0.4140990000000  0.4910300000000  0.4709600000000 1.0
C      1  0.5001890000000  0.4908340000000  0.4043830000000 1.0
C      1  0.5959550000000  0.4904230000000  0.4701370000000 1.0
C      1  0.5530150000000  0.4911500000000  0.5727210000000 1.0
C      1  0.4466550000000  0.4892560000000  0.5727780000000 1.0
C      1  0.5584200000000  0.4226200000000  0.5277210000000 1.0
C      1  0.4914500000000  0.4244270000000  0.5658100000000 1.0
C      1  0.4356000000000  0.4229750000000  0.5116750000000 1.0
C      1  0.4680790000000  0.4230620000000  0.4407960000000 1.0
C      1  0.5449190000000  0.4242200000000  0.4511460000000 1.0
C      1  0.5124790000000  0.5047270000000  0.6026230000000 1.0
C      1  0.4059450000000  0.5054250000000  0.5414590000000 1.0
C      1  0.4314190000000  0.5062810000000  0.4227050000000 1.0
C      1  0.5516290000000  0.5063520000000  0.4095390000000 1.0
C      1  0.6009270000000  0.5054360000000  0.5199480000000 1.0
C      1  0.5203020000000  0.4211340000000  0.5599790000000 1.0
C      1  0.4477660000000  0.4233750000000  0.5371320000000 1.0
C      1  0.4490370000000  0.4228210000000  0.4631230000000 1.0
C      1  0.5189650000000  0.4239580000000  0.4386680000000 1.0
C      1  0.5627400000000  0.4230600000000  0.4989890000000 1.0
C      1  0.6045770000000  0.4853290000000  0.4985910000000 1.0
C      1  0.5322250000000  0.4848280000000  0.5945400000000 1.0
C      1  0.4178670000000  0.4872640000000  0.5599700000000 1.0
C      1  0.4174650000000  0.4873390000000  0.4396170000000 1.0
C      1  0.5312440000000  0.4873770000000  0.4006660000000 1.0
C      1  0.4800110000000  0.5870350000000  0.5289530000000 1.0
C      1  0.4657470000000  0.5898000000000  0.4891610000000 1.0
C      1  0.4968250000000  0.5887960000000  0.4634090000000 1.0
C      1  0.5411540000000  0.5883350000000  0.4773040000000 1.0
C      1  0.5201530000000  0.5878720000000  0.5251430000000 1.0
C      1  0.5865970000000  0.4672210000000  0.5128520000000 1.0
C      1  0.5127540000000  0.4673900000000  0.5814470000000 1.0
C      1  0.4168940000000  0.4648220000000  0.5432340000000 1.0
C      1  0.4388570000000  0.4680070000000  0.4386450000000 1.0
C      1  0.5378310000000  0.4684140000000  0.4213730000000 1.0
C      1  0.5329240000000  0.5652620000000  0.4679600000000 1.0
C      1  0.5383690000000  0.5669350000000  0.5186120000000 1.0
C      1  0.4917600000000  0.5673440000000  0.5459230000000 1.0
C      1  0.4503260000000  0.5714550000000  0.5052850000000 1.0
C      1  0.4793290000000  0.5678750000000  0.4545190000000 1.0
C      1  0.5197550000000  0.4147260000000  0.4892000000000 1.0
C      1  0.5156220000000  0.4106270000000  0.5158980000000 1.0
C      1  0.4918400000000  0.4246570000000  0.5233020000000 1.0
C      1  0.4764260000000  0.4292820000000  0.4987350000000 1.0
C      1  0.4951680000000  0.4238790000000  0.4766640000000 1.0
C      1  0.4449070000000  0.5233510000000  0.4966290000000 1.0
C      1  0.4894820000000  0.5200640000000  0.4457130000000 1.0
C      1  0.5525570000000  0.5170250000000  0.4697040000000 1.0
C      1  0.5422630000000  0.5213870000000  0.5370480000000 1.0
C      1  0.4798920000000  0.5244660000000  0.5502950000000 1.0
C      1  0.5625600000000  0.4485060000000  0.5463590000000 1.0
C      1  0.4769240000000  0.4468680000000  0.5805790000000 1.0
C      1  0.4230260000000  0.4499080000000  0.4978760000000 1.0
C      1  0.4757400000000  0.4485540000000  0.4206630000000 1.0
C      1  0.5636940000000  0.4490420000000  0.4548340000000 1.0
C      1  0.5352630000000  0.4082630000000  0.5367730000000 1.0
C      1  0.4745810000000  0.4160420000000  0.5443110000000 1.0
C      1  0.4517870000000  0.4123260000000  0.4911130000000 1.0
C      1  0.4934160000000  0.4127850000000  0.4481260000000 1.0
C      1  0.5451140000000  0.4118800000000  0.4771410000000 1.0
C      1  0.4427620000000  0.4505100000000  0.5470090000000 1.0
C      1  0.4424140000000  0.4488030000000  0.4746780000000 1.0
C      1  0.5034740000000  0.4501810000000  0.4389660000000 1.0
C      1  0.5625080000000  0.4480470000000  0.4845150000000 1.0
C      1  0.5325820000000  0.4458950000000  0.5513330000000 1.0
C      1  0.4044280000000  0.5157810000000  0.4887930000000 1.0
C      1  0.4801740000000  0.5167080000000  0.4039980000000 1.0
C      1  0.5816950000000  0.5154190000000  0.4535830000000 1.0
C      1  0.5724680000000  0.5186400000000  0.5634980000000 1.0
C      1  0.4614630000000  0.5143770000000  0.5894100000000 1.0
C      1  0.4436430000000  0.5604060000000  0.5555630000000 1.0
C      1  0.4302670000000  0.5605560000000  0.4637210000000 1.0
C      1  0.5123870000000  0.5614840000000  0.4227280000000 1.0
C      1  0.5783700000000  0.5609050000000  0.4869530000000 1.0
C      1  0.5352410000000  0.5627140000000  0.5686630000000 1.0
C      1  0.4571280000000  0.5002660000000  0.4095090000000 1.0
C      1  0.5717530000000  0.4991870000000  0.4303970000000 1.0
C      1  0.5872540000000  0.5002990000000  0.5464580000000 1.0
C      1  0.4831900000000  0.4982360000000  0.5997420000000 1.0
C      1  0.4024370000000  0.4990090000000  0.5126230000000 1.0
C      1  0.5830230000000  0.5234400000000  0.5053910000000 1.0
C      1  0.5197520000000  0.5242120000000  0.5824450000000 1.0
C      1  0.4271400000000  0.5248000000000  0.5444990000000 1.0
C      1  0.4369110000000  0.5228050000000  0.4455530000000 1.0
C      1  0.5306360000000  0.5237030000000  0.4214790000000 1.0
C      1  0.5487680000000  0.4910820000000  0.4834200000000 1.0
C      1  0.5388050000000  0.4953310000000  0.5468180000000 1.0
C      1  0.4662460000000  0.4997390000000  0.5515640000000 1.0
C      1  0.4422950000000  0.4972860000000  0.4855090000000 1.0
C      1  0.4976580000000  0.4924490000000  0.4332540000000 1.0
C      1  0.5305510000000  0.5157050000000  0.4506460000000 1.0
C      1  0.5542420000000  0.5176580000000  0.5126970000000 1.0
C      1  0.5050720000000  0.5166180000000  0.5587710000000 1.0
C      1  0.4459530000000  0.5188450000000  0.5232140000000 1.0
C      1  0.4631840000000  0.5164620000000  0.4562010000000 1.0
C      1  0.5641630000000  0.4710710000000  0.4337660000000 1.0
C      1  0.5830360000000  0.4711810000000  0.5410810000000 1.0
C      1  0.4880160000000  0.4687900000000  0.5957960000000 1.0
C      1  0.4108980000000  0.4710510000000  0.5163840000000 1.0
C      1  0.4555800000000  0.4711070000000  0.4157120000000 1.0
C      1  0.5363480000000  0.5409560000000  0.4831060000000 1.0
C      1  0.5245020000000  0.5425190000000  0.5281880000000 1.0
C      1  0.4949920000000  0.5422380000000  0.5294300000000 1.0
C      1  0.4614150000000  0.5468430000000  0.4944170000000 1.0
C      1  0.4935120000000  0.5442160000000  0.4639230000000 1.0
C      1  0.5889820000000  0.5514690000000  0.5129650000000 1.0
C      1  0.5155150000000  0.5530880000000  0.5877740000000 1.0
C      1  0.4192990000000  0.5531290000000  0.5408720000000 1.0
C      1  0.4359430000000  0.5512200000000  0.4366980000000 1.0
C      1  0.5397770000000  0.5521160000000  0.4198980000000 1.0
C      1  0.5110810000000  0.4522110000000  0.5330370000000 1.0
C      1  0.4736700000000  0.4607720000000  0.5042960000000 1.0
C      1  0.4918200000000  0.4523140000000  0.4651480000000 1.0
C      1  0.5154300000000  0.4627920000000  0.4776060000000 1.0
C      1  0.5204750000000  0.4654700000000  0.5053300000000 1.0
C      1  0.4535040000000  0.5775270000000  0.4652410000000 1.0
C      1  0.5167770000000  0.5810490000000  0.4444180000000 1.0
C      1  0.5579610000000  0.5789890000000  0.4982070000000 1.0
C      1  0.5175340000000  0.5792630000000  0.5530370000000 1.0
C      1  0.4531530000000  0.5770670000000  0.5341000000000 1.0
C      1  0.5618720000000  0.4616930000000  0.5753870000000 1.0
C      1  0.4539180000000  0.4603070000000  0.5722290000000 1.0
C      1  0.4032300000000  0.4626340000000  0.4770120000000 1.0
C      1  0.4910150000000  0.4599520000000  0.3978900000000 1.0
C      1  0.5943170000000  0.4636050000000  0.4640110000000 1.0
C      1  0.5594000000000  0.4709580000000  0.5007300000000 1.0
C      1  0.5011310000000  0.4705110000000  0.5539980000000 1.0
C      1  0.4547350000000  0.4685320000000  0.5218540000000 1.0
C      1  0.4607240000000  0.4679290000000  0.4618800000000 1.0
C      1  0.5177710000000  0.4739820000000  0.4438770000000 1.0
C      1  0.4601760000000  0.5430880000000  0.5800500000000 1.0
C      1  0.4128740000000  0.5444850000000  0.4852520000000 1.0
C      1  0.4862120000000  0.5444400000000  0.4126490000000 1.0
C      1  0.5788430000000  0.5469840000000  0.4597530000000 1.0
C      1  0.5621390000000  0.5467000000000  0.5614980000000 1.0
C      1  0.5608040000000  0.5511360000000  0.4399380000000 1.0
C      1  0.5761030000000  0.5513820000000  0.5384840000000 1.0
C      1  0.4865130000000  0.5497450000000  0.5853020000000 1.0
C      1  0.4143130000000  0.5500240000000  0.5121740000000 1.0
C      1  0.4613240000000  0.5489520000000  0.4227950000000 1.0
C      1  0.5107550000000  0.5076170000000  0.4674500000000 1.0
C      1  0.5325920000000  0.5041770000000  0.5009230000000 1.0
C      1  0.5108570000000  0.4949150000000  0.5416170000000 1.0
C      1  0.4613210000000  0.4964190000000  0.5254810000000 1.0
C      1  0.4687840000000  0.4953480000000  0.4751370000000 1.0
C      1  0.4905380000000  0.5501220000000  0.4925190000000 1.0
C      1  0.4927630000000  0.5826800000000  0.5009340000000 1.0
C      1  0.5034170000000  0.5058390000000  0.4946670000000 1.0
C      1  0.4952020000000  0.4809820000000  0.5077770000000 1.0
END
