TITL C-2441162-9305-788 0.0951218906264901 125000 -13363.1612715726 0 0 113 (C1) n - 1
REM
REM in /home/bkarasulu/work/CARBON/AIRSS/Generating-Clusters/ReaxFF-fromJPCA2015/Units_Real/with-SteepDescent/Higher-Symm
REM
REM
REM
REM
REM
REM ./C.cell (1df0a924f5614ab8850e4351716899ee)
REM
REM compiler GCC version 9.2.1 20190827 (Red Hat 9.2.1-1)
REM options -cpp -mtune=generic -march=x86-64 -g -O0 -fpre-include=/usr/include/finclude/math-vector-fortran.h
REM seed -1208964957 1509978502 1650996919 -982353947 1446655650 288812186 1176428942 1313716087 1749591628 -294305052 -1306264415 1978890213 1733174168 -146201502 308030650 -1868939578 -1402884512 -268417730 1250558259 -1740262180 869453243 341137478 -1637228146 -1975119057 347636439 2025993602 -589558102 -495477895 374948987 -2096321916 -1098032785 282993236 1361953190
REM
CELL 1.54180   50.00000   50.00000   50.00000   90.00000   90.00000   90.00000
LATT -1
SFAC C  
C      1  0.5262380000000  0.5060440000000  0.5427310000000 1.0
C      1  0.5239350000000  0.5310800000000  0.4733980000000 1.0
C      1  0.5234630000000  0.4609970000000  0.4854700000000 1.0
C      1  0.4770060000000  0.5051150000000  0.5421010000000 1.0
C      1  0.4747750000000  0.5336790000000  0.4734520000000 1.0
C      1  0.4755130000000  0.4609030000000  0.4823210000000 1.0
C      1  0.4864610000000  0.5573130000000  0.5610030000000 1.0
C      1  0.4826130000000  0.5284920000000  0.4191840000000 1.0
C      1  0.4856920000000  0.4169750000000  0.5186920000000 1.0
C      1  0.5164570000000  0.5587520000000  0.5622400000000 1.0
C      1  0.5126280000000  0.5281580000000  0.4191150000000 1.0
C      1  0.5151860000000  0.4189520000000  0.5176710000000 1.0
C      1  0.4241570000000  0.5116170000000  0.4474270000000 1.0
C      1  0.4248600000000  0.4482170000000  0.5157010000000 1.0
C      1  0.4253040000000  0.5400850000000  0.5368960000000 1.0
C      1  0.5777980000000  0.5147060000000  0.4478270000000 1.0
C      1  0.5758630000000  0.4502510000000  0.5154100000000 1.0
C      1  0.5762680000000  0.5395000000000  0.5367660000000 1.0
C      1  0.4905990000000  0.4963240000000  0.4540990000000 1.0
C      1  0.4905540000000  0.4624680000000  0.5282060000000 1.0
C      1  0.4861640000000  0.5454640000000  0.5111700000000 1.0
C      1  0.5167350000000  0.4860740000000  0.4556340000000 1.0
C      1  0.5149260000000  0.4668390000000  0.5342670000000 1.0
C      1  0.5117270000000  0.5433490000000  0.5171740000000 1.0
C      1  0.5634660000000  0.5650400000000  0.4802850000000 1.0
C      1  0.5602900000000  0.4439170000000  0.4523750000000 1.0
C      1  0.5639650000000  0.4841660000000  0.5662880000000 1.0
C      1  0.4378130000000  0.5661030000000  0.4798400000000 1.0
C      1  0.4375560000000  0.4492500000000  0.4525030000000 1.0
C      1  0.4380370000000  0.4837540000000  0.5658510000000 1.0
C      1  0.4791700000000  0.4530310000000  0.5575270000000 1.0
C      1  0.4779550000000  0.5715080000000  0.5046750000000 1.0
C      1  0.4798430000000  0.4714420000000  0.4309880000000 1.0
C      1  0.5232690000000  0.4588050000000  0.5591390000000 1.0
C      1  0.5221350000000  0.5712250000000  0.5064180000000 1.0
C      1  0.5260010000000  0.4780890000000  0.4299460000000 1.0
C      1  0.4193580000000  0.5439540000000  0.4876120000000 1.0
C      1  0.4190400000000  0.4668040000000  0.4688320000000 1.0
C      1  0.4199020000000  0.4887600000000  0.5433540000000 1.0
C      1  0.5826120000000  0.5452280000000  0.4888890000000 1.0
C      1  0.5815860000000  0.4709090000000  0.4673310000000 1.0
C      1  0.5817430000000  0.4888540000000  0.5436800000000 1.0
C      1  0.5384100000000  0.5216690000000  0.4491260000000 1.0
C      1  0.5402130000000  0.4446660000000  0.4998890000000 1.0
C      1  0.5409800000000  0.5293120000000  0.5491780000000 1.0
C      1  0.4593920000000  0.5272810000000  0.4506760000000 1.0
C      1  0.4604930000000  0.4433680000000  0.5002140000000 1.0
C      1  0.4611590000000  0.5286060000000  0.5483790000000 1.0
C      1  0.5327890000000  0.4855730000000  0.5221460000000 1.0
C      1  0.5312000000000  0.5262280000000  0.5018820000000 1.0
C      1  0.5369460000000  0.4850150000000  0.4748350000000 1.0
C      1  0.4705680000000  0.4839710000000  0.5228910000000 1.0
C      1  0.4669430000000  0.5264790000000  0.5013460000000 1.0
C      1  0.4706710000000  0.4885620000000  0.4753950000000 1.0
C      1  0.4401330000000  0.4284990000000  0.4879790000000 1.0
C      1  0.4405610000000  0.5246540000000  0.5672360000000 1.0
C      1  0.4396900000000  0.5458330000000  0.4442500000000 1.0
C      1  0.5587620000000  0.4269720000000  0.4888920000000 1.0
C      1  0.5616650000000  0.5250310000000  0.5676160000000 1.0
C      1  0.5601440000000  0.5400330000000  0.4440740000000 1.0
C      1  0.4875700000000  0.5928190000000  0.4950320000000 1.0
C      1  0.4892540000000  0.4482890000000  0.4216310000000 1.0
C      1  0.4882220000000  0.4582990000000  0.5826880000000 1.0
C      1  0.5133290000000  0.5926230000000  0.4949660000000 1.0
C      1  0.5141990000000  0.4513240000000  0.4225590000000 1.0
C      1  0.5142500000000  0.4585070000000  0.5831780000000 1.0
C      1  0.4617530000000  0.4312090000000  0.5278770000000 1.0
C      1  0.4625140000000  0.5579780000000  0.5453010000000 1.0
C      1  0.4608740000000  0.5100780000000  0.4251190000000 1.0
C      1  0.5408880000000  0.4301150000000  0.5258210000000 1.0
C      1  0.5402620000000  0.5587450000000  0.5454790000000 1.0
C      1  0.5322060000000  0.5084050000000  0.4242090000000 1.0
C      1  0.4470640000000  0.5536300000000  0.5215710000000 1.0
C      1  0.4468180000000  0.4915370000000  0.4431930000000 1.0
C      1  0.4465490000000  0.4551280000000  0.5347940000000 1.0
C      1  0.5540400000000  0.5522550000000  0.5208400000000 1.0
C      1  0.5596770000000  0.4841950000000  0.4541410000000 1.0
C      1  0.5540790000000  0.4549250000000  0.5346980000000 1.0
C      1  0.4864560000000  0.5585240000000  0.4637860000000 1.0
C      1  0.4853360000000  0.4393700000000  0.4655500000000 1.0
C      1  0.4861180000000  0.5019930000000  0.5692610000000 1.0
C      1  0.5156950000000  0.5569980000000  0.4631740000000 1.0
C      1  0.5137000000000  0.4393290000000  0.4688750000000 1.0
C      1  0.5153260000000  0.5021000000000  0.5691270000000 1.0
C      1  0.5501870000000  0.5761240000000  0.5034560000000 1.0
C      1  0.5510320000000  0.4643870000000  0.4343560000000 1.0
C      1  0.5501390000000  0.4585840000000  0.5638690000000 1.0
C      1  0.4512630000000  0.5766760000000  0.5036150000000 1.0
C      1  0.4514370000000  0.4643890000000  0.4313510000000 1.0
C      1  0.4515890000000  0.4580520000000  0.5637140000000 1.0
C      1  0.5460760000000  0.5619710000000  0.4570010000000 1.0
C      1  0.5417310000000  0.4268430000000  0.4653410000000 1.0
C      1  0.5452610000000  0.5038770000000  0.5780490000000 1.0
C      1  0.4566520000000  0.5653230000000  0.4568230000000 1.0
C      1  0.4561270000000  0.4292420000000  0.4642050000000 1.0
C      1  0.4562690000000  0.5033500000000  0.5779430000000 1.0
C      1  0.4242100000000  0.5175800000000  0.4766430000000 1.0
C      1  0.4259440000000  0.4708970000000  0.4964050000000 1.0
C      1  0.4240050000000  0.5118730000000  0.5275730000000 1.0
C      1  0.5776150000000  0.5198620000000  0.4767870000000 1.0
C      1  0.5792330000000  0.4721780000000  0.4958490000000 1.0
C      1  0.5777260000000  0.5116200000000  0.5273710000000 1.0
C      1  0.4087860000000  0.4941550000000  0.4663700000000 1.0
C      1  0.4104370000000  0.4732850000000  0.5210910000000 1.0
C      1  0.4100830000000  0.5327550000000  0.5128600000000 1.0
C      1  0.5941600000000  0.4979850000000  0.4672790000000 1.0
C      1  0.5924930000000  0.4733050000000  0.5217680000000 1.0
C      1  0.5919360000000  0.5326450000000  0.5131490000000 1.0
C      1  0.4987270000000  0.4410350000000  0.5100650000000 1.0
C      1  0.4968400000000  0.5225420000000  0.4422270000000 1.0
C      1  0.5029890000000  0.5393610000000  0.5458050000000 1.0
C      1  0.5172000000000  0.5004160000000  0.5015650000000 1.0
C      1  0.4817040000000  0.4998560000000  0.5003890000000 1.0
END
