TITL C-2441160-1326-173 0.0148981458992188 125000 -10582.5964689629 0 0 74 (D2) n - 1
REM
REM in /home/bkarasulu/work/CARBON/AIRSS/Generating-Clusters/ReaxFF-fromJPCA2015/Units_Real/with-SteepDescent/Higher-Symm
REM
REM
REM
REM
REM
REM ./C.cell (1df0a924f5614ab8850e4351716899ee)
REM
REM compiler GCC version 9.2.1 20190827 (Red Hat 9.2.1-1)
REM options -cpp -mtune=generic -march=x86-64 -g -O0 -fpre-include=/usr/include/finclude/math-vector-fortran.h
REM seed 469584027 493302474 1747490422 88638631 -588664897 1422837696 -1418602855 -230590856 -1082278986 -40313211 1964166575 -1256802318 -1878405200 -696059881 -1250645391 -658704644 1558880017 -173244404 -1737252935 444549312 125224378 -51404512 2034234888 2008207448 1092694423 1313652345 -1184822470 1395237789 1300307694 336365889 635867204 -1342464546 -458586346
REM
CELL 1.54180   50.00000   50.00000   50.00000   90.00000   90.00000   90.00000
LATT -1
SFAC C  
C      1  0.4263000000000  0.5247610000000  0.5081220000000 1.0
C      1  0.5737180000000  0.4752020000000  0.5080920000000 1.0
C      1  0.4263430000000  0.4752610000000  0.4902430000000 1.0
C      1  0.5736520000000  0.5247500000000  0.4902770000000 1.0
C      1  0.5601120000000  0.5064920000000  0.4728780000000 1.0
C      1  0.4398680000000  0.4934950000000  0.4728500000000 1.0
C      1  0.5601520000000  0.4934230000000  0.5255050000000 1.0
C      1  0.4398440000000  0.5065670000000  0.5255270000000 1.0
C      1  0.5352580000000  0.4927320000000  0.5723900000000 1.0
C      1  0.4647840000000  0.5072810000000  0.5723950000000 1.0
C      1  0.5351260000000  0.5073290000000  0.4261230000000 1.0
C      1  0.4648770000000  0.4926460000000  0.4261520000000 1.0
C      1  0.4864290000000  0.5048130000000  0.4633420000000 1.0
C      1  0.5134490000000  0.4953340000000  0.4633070000000 1.0
C      1  0.4863730000000  0.4954440000000  0.5353150000000 1.0
C      1  0.5135930000000  0.5045740000000  0.5353120000000 1.0
C      1  0.4401450000000  0.4507710000000  0.4935940000000 1.0
C      1  0.5597920000000  0.5492720000000  0.4936170000000 1.0
C      1  0.4401640000000  0.5492190000000  0.5048180000000 1.0
C      1  0.5598220000000  0.4507070000000  0.5047770000000 1.0
C      1  0.5250790000000  0.4831150000000  0.4389700000000 1.0
C      1  0.4748500000000  0.5169140000000  0.4389530000000 1.0
C      1  0.5250080000000  0.5168680000000  0.5595920000000 1.0
C      1  0.4749810000000  0.4831180000000  0.5595920000000 1.0
C      1  0.4717890000000  0.5451840000000  0.4757660000000 1.0
C      1  0.5282050000000  0.4549590000000  0.4757570000000 1.0
C      1  0.4717900000000  0.4546340000000  0.5228800000000 1.0
C      1  0.5281630000000  0.5452500000000  0.5228840000000 1.0
C      1  0.4843900000000  0.4661740000000  0.4963850000000 1.0
C      1  0.5155560000000  0.5338170000000  0.4963900000000 1.0
C      1  0.4841870000000  0.5337740000000  0.5025000000000 1.0
C      1  0.5157990000000  0.4662600000000  0.5025050000000 1.0
C      1  0.4283440000000  0.4852580000000  0.5135960000000 1.0
C      1  0.5716790000000  0.5147050000000  0.5136030000000 1.0
C      1  0.4283340000000  0.5147660000000  0.4847500000000 1.0
C      1  0.5717000000000  0.4852440000000  0.4847460000000 1.0
C      1  0.5078210000000  0.4596490000000  0.4336730000000 1.0
C      1  0.4922060000000  0.5403170000000  0.4336830000000 1.0
C      1  0.5077130000000  0.5402750000000  0.5649640000000 1.0
C      1  0.4923070000000  0.4597310000000  0.5649270000000 1.0
C      1  0.5385650000000  0.4588860000000  0.5494640000000 1.0
C      1  0.4614620000000  0.5411470000000  0.5495000000000 1.0
C      1  0.5385490000000  0.5411800000000  0.4490190000000 1.0
C      1  0.4614820000000  0.4588080000000  0.4490760000000 1.0
C      1  0.5093240000000  0.4274840000000  0.5253480000000 1.0
C      1  0.4907160000000  0.5724930000000  0.5253430000000 1.0
C      1  0.5094040000000  0.5724670000000  0.4733040000000 1.0
C      1  0.4906750000000  0.4275180000000  0.4733190000000 1.0
C      1  0.4468370000000  0.5558430000000  0.4784210000000 1.0
C      1  0.5531200000000  0.4442030000000  0.4783960000000 1.0
C      1  0.4467170000000  0.4441330000000  0.5200270000000 1.0
C      1  0.5532230000000  0.5558080000000  0.5200460000000 1.0
C      1  0.5106170000000  0.5587620000000  0.5427770000000 1.0
C      1  0.4894090000000  0.4412080000000  0.5427700000000 1.0
C      1  0.5106780000000  0.4413130000000  0.4560300000000 1.0
C      1  0.4893870000000  0.5586710000000  0.4560020000000 1.0
C      1  0.4457090000000  0.5178710000000  0.5526020000000 1.0
C      1  0.5543270000000  0.4821420000000  0.5525940000000 1.0
C      1  0.4457590000000  0.4820830000000  0.4459030000000 1.0
C      1  0.5542240000000  0.5178830000000  0.4458960000000 1.0
C      1  0.4797290000000  0.5333710000000  0.5702170000000 1.0
C      1  0.5202890000000  0.4666540000000  0.5701670000000 1.0
C      1  0.4798460000000  0.4665640000000  0.4284130000000 1.0
C      1  0.5201740000000  0.5334220000000  0.4283680000000 1.0
C      1  0.5282070000000  0.4920480000000  0.5120120000000 1.0
C      1  0.4717620000000  0.5079550000000  0.5120050000000 1.0
C      1  0.5281780000000  0.5078730000000  0.4867340000000 1.0
C      1  0.4718010000000  0.4921420000000  0.4867120000000 1.0
C      1  0.4678840000000  0.5518300000000  0.5235140000000 1.0
C      1  0.5321240000000  0.4481860000000  0.5234710000000 1.0
C      1  0.4678230000000  0.4480500000000  0.4750280000000 1.0
C      1  0.5322250000000  0.5519420000000  0.4749790000000 1.0
C      1  0.5000690000000  0.5768520000000  0.4993400000000 1.0
C      1  0.5000030000000  0.4231250000000  0.4993360000000 1.0
END
