TITL C-2441169-1362-1380 0.114351328949332 125000 -18384.3520340076 0 0 146 (C1) n - 1
REM
REM in /home/bkarasulu/work/CARBON/AIRSS/Generating-Clusters/ReaxFF-fromJPCA2015/Units_Real/with-SteepDescent/Higher-Symm
REM
REM
REM
REM
REM
REM ./C.cell (1df0a924f5614ab8850e4351716899ee)
REM
REM compiler GCC version 9.2.1 20190827 (Red Hat 9.2.1-1)
REM options -cpp -mtune=generic -march=x86-64 -g -O0 -fpre-include=/usr/include/finclude/math-vector-fortran.h
REM seed -947637093 -47420703 -594587492 227040682 -2017570807 1144068176 1228021820 -1377779960 1623907563 -350500063 1957704105 1186213788 -1528975622 1070761927 1770160047 2141839523 -2142005463 1651396751 1366176450 1002840219 -725597243 -568813138 -1947480673 -730099111 724371049 271211499 22570552 -113221149 1100923492 353483077 -1570425352 956388560 -473400910
REM
CELL 1.54180   50.00000   50.00000   50.00000   90.00000   90.00000   90.00000
LATT -1
SFAC C  
C      1  0.4653410000000  0.5970480000000  0.4726740000000 1.0
C      1  0.4656540000000  0.5555950000000  0.5796450000000 1.0
C      1  0.4662250000000  0.4392390000000  0.5781150000000 1.0
C      1  0.4656100000000  0.4056530000000  0.4629780000000 1.0
C      1  0.4645590000000  0.5046730000000  0.3988630000000 1.0
C      1  0.5387210000000  0.4076740000000  0.4792860000000 1.0
C      1  0.5376160000000  0.4444240000000  0.5807500000000 1.0
C      1  0.5347530000000  0.5601800000000  0.5800740000000 1.0
C      1  0.5346680000000  0.5885030000000  0.4634640000000 1.0
C      1  0.5338270000000  0.4957460000000  0.4042390000000 1.0
C      1  0.4538780000000  0.4220900000000  0.4414170000000 1.0
C      1  0.4531390000000  0.5285560000000  0.4118280000000 1.0
C      1  0.4545450000000  0.5937590000000  0.4998280000000 1.0
C      1  0.4518400000000  0.5302570000000  0.5884170000000 1.0
C      1  0.4556730000000  0.4258170000000  0.5536870000000 1.0
C      1  0.5516760000000  0.5720170000000  0.4462940000000 1.0
C      1  0.5514500000000  0.4738030000000  0.4125460000000 1.0
C      1  0.5492660000000  0.4014590000000  0.5057590000000 1.0
C      1  0.5456910000000  0.4716860000000  0.5895190000000 1.0
C      1  0.5443380000000  0.5743240000000  0.5566970000000 1.0
C      1  0.4908200000000  0.5162360000000  0.3949810000000 1.0
C      1  0.4927160000000  0.6053370000000  0.4743800000000 1.0
C      1  0.4911600000000  0.5526890000000  0.5937080000000 1.0
C      1  0.4925250000000  0.4272960000000  0.5805820000000 1.0
C      1  0.4921090000000  0.3990020000000  0.4533060000000 1.0
C      1  0.5086660000000  0.4801410000000  0.3943040000000 1.0
C      1  0.5100370000000  0.3974530000000  0.4767960000000 1.0
C      1  0.5112420000000  0.4447370000000  0.5939150000000 1.0
C      1  0.5088230000000  0.5729360000000  0.5807230000000 1.0
C      1  0.5084750000000  0.5950540000000  0.4506470000000 1.0
C      1  0.4247970000000  0.5568990000000  0.5225100000000 1.0
C      1  0.4270430000000  0.4904820000000  0.5662430000000 1.0
C      1  0.4257400000000  0.4383780000000  0.5116310000000 1.0
C      1  0.4296880000000  0.4711930000000  0.4439300000000 1.0
C      1  0.4239530000000  0.5451720000000  0.4517190000000 1.0
C      1  0.5770970000000  0.4424560000000  0.5227070000000 1.0
C      1  0.5731400000000  0.5063390000000  0.5662550000000 1.0
C      1  0.5720500000000  0.5651390000000  0.5123610000000 1.0
C      1  0.5726910000000  0.5278400000000  0.4395150000000 1.0
C      1  0.5724670000000  0.4545720000000  0.4537020000000 1.0
C      1  0.4774140000000  0.5375270000000  0.4302080000000 1.0
C      1  0.4804160000000  0.5870780000000  0.5159550000000 1.0
C      1  0.4764350000000  0.5114030000000  0.5906990000000 1.0
C      1  0.4828060000000  0.4163840000000  0.5387770000000 1.0
C      1  0.4769360000000  0.4398580000000  0.4371770000000 1.0
C      1  0.5241240000000  0.4581240000000  0.4252710000000 1.0
C      1  0.5237770000000  0.4143540000000  0.5179620000000 1.0
C      1  0.5186070000000  0.4886790000000  0.5894250000000 1.0
C      1  0.5217490000000  0.5808750000000  0.5385340000000 1.0
C      1  0.5257860000000  0.5564710000000  0.4400550000000 1.0
C      1  0.4691120000000  0.5180910000000  0.4507080000000 1.0
C      1  0.4883410000000  0.5630250000000  0.5004950000000 1.0
C      1  0.4803810000000  0.5159100000000  0.5621350000000 1.0
C      1  0.4711360000000  0.4618510000000  0.5412790000000 1.0
C      1  0.4621950000000  0.4528020000000  0.4674350000000 1.0
C      1  0.5152200000000  0.4838190000000  0.4372910000000 1.0
C      1  0.5249440000000  0.4313670000000  0.4921560000000 1.0
C      1  0.5172290000000  0.4818990000000  0.5613280000000 1.0
C      1  0.5484430000000  0.5360100000000  0.5305400000000 1.0
C      1  0.5205800000000  0.5618760000000  0.4682030000000 1.0
C      1  0.5467790000000  0.5186550000000  0.5540110000000 1.0
C      1  0.5494020000000  0.4482730000000  0.5319060000000 1.0
C      1  0.5447390000000  0.4529840000000  0.4655560000000 1.0
C      1  0.5452110000000  0.5196640000000  0.4455340000000 1.0
C      1  0.5455850000000  0.5650630000000  0.5001510000000 1.0
C      1  0.4551970000000  0.4774120000000  0.5611930000000 1.0
C      1  0.4535300000000  0.5521420000000  0.5313530000000 1.0
C      1  0.4500070000000  0.5516040000000  0.4657990000000 1.0
C      1  0.4549740000000  0.4870460000000  0.4399570000000 1.0
C      1  0.4535570000000  0.4395320000000  0.4972270000000 1.0
C      1  0.5099320000000  0.5088670000000  0.5293170000000 1.0
C      1  0.5126990000000  0.4610550000000  0.5220510000000 1.0
C      1  0.5087390000000  0.4721810000000  0.4810720000000 1.0
C      1  0.5103770000000  0.5126380000000  0.4640470000000 1.0
C      1  0.5067300000000  0.5415610000000  0.5040290000000 1.0
C      1  0.4887490000000  0.4948430000000  0.5227570000000 1.0
C      1  0.4961850000000  0.5334650000000  0.5278370000000 1.0
C      1  0.4930440000000  0.5222250000000  0.4848470000000 1.0
C      1  0.4987620000000  0.4860270000000  0.4591470000000 1.0
C      1  0.4954010000000  0.4582420000000  0.5016780000000 1.0
C      1  0.5906630000000  0.4685030000000  0.5140090000000 1.0
C      1  0.5924620000000  0.4641610000000  0.4738330000000 1.0
C      1  0.5884950000000  0.5166930000000  0.4618530000000 1.0
C      1  0.5872670000000  0.5415630000000  0.5039270000000 1.0
C      1  0.5927030000000  0.5098980000000  0.5448320000000 1.0
C      1  0.4106500000000  0.5309290000000  0.5136610000000 1.0
C      1  0.4080880000000  0.5310610000000  0.4731620000000 1.0
C      1  0.4118770000000  0.4808690000000  0.4656150000000 1.0
C      1  0.4128980000000  0.4641140000000  0.5023390000000 1.0
C      1  0.4089880000000  0.4895490000000  0.5431740000000 1.0
C      1  0.5836120000000  0.5397170000000  0.4767300000000 1.0
C      1  0.5835370000000  0.5179180000000  0.5194230000000 1.0
C      1  0.5833610000000  0.4919120000000  0.5267920000000 1.0
C      1  0.5762450000000  0.4730090000000  0.4919570000000 1.0
C      1  0.5836060000000  0.4915510000000  0.4729730000000 1.0
C      1  0.4262870000000  0.4759420000000  0.4848870000000 1.0
C      1  0.4252850000000  0.4823640000000  0.5219310000000 1.0
C      1  0.4195130000000  0.5083220000000  0.5273630000000 1.0
C      1  0.4253150000000  0.5260320000000  0.4920170000000 1.0
C      1  0.4251060000000  0.5069690000000  0.4724930000000 1.0
C      1  0.4954910000000  0.4057880000000  0.5167460000000 1.0
C      1  0.4964080000000  0.4583180000000  0.4089600000000 1.0
C      1  0.5002410000000  0.5708280000000  0.4353930000000 1.0
C      1  0.4963030000000  0.5795330000000  0.5535400000000 1.0
C      1  0.4970710000000  0.4703280000000  0.5964860000000 1.0
C      1  0.5026690000000  0.6007900000000  0.5018610000000 1.0
C      1  0.5029000000000  0.5355250000000  0.4139220000000 1.0
C      1  0.5014470000000  0.4250450000000  0.4418010000000 1.0
C      1  0.5063300000000  0.4197550000000  0.5552800000000 1.0
C      1  0.5016150000000  0.5247500000000  0.5974700000000 1.0
C      1  0.5735870000000  0.5538310000000  0.4533660000000 1.0
C      1  0.5636120000000  0.5588350000000  0.5397500000000 1.0
C      1  0.5667810000000  0.4820960000000  0.5766680000000 1.0
C      1  0.5676990000000  0.4223720000000  0.5055020000000 1.0
C      1  0.5708180000000  0.4688250000000  0.4300930000000 1.0
C      1  0.4377220000000  0.4447940000000  0.4523750000000 1.0
C      1  0.4348860000000  0.4326180000000  0.5365900000000 1.0
C      1  0.4328420000000  0.5152390000000  0.5762470000000 1.0
C      1  0.4333710000000  0.5769720000000  0.5062970000000 1.0
C      1  0.4313940000000  0.5323400000000  0.4281440000000 1.0
C      1  0.4694010000000  0.4677930000000  0.5852270000000 1.0
C      1  0.4726080000000  0.4155630000000  0.4907150000000 1.0
C      1  0.4712320000000  0.4802310000000  0.4145620000000 1.0
C      1  0.4710930000000  0.5717910000000  0.4566410000000 1.0
C      1  0.4693530000000  0.5671810000000  0.5528250000000 1.0
C      1  0.5242190000000  0.5318310000000  0.5761490000000 1.0
C      1  0.5270730000000  0.5863090000000  0.5103140000000 1.0
C      1  0.5292830000000  0.5204670000000  0.4205440000000 1.0
C      1  0.5279550000000  0.4380380000000  0.4465750000000 1.0
C      1  0.5342600000000  0.4343730000000  0.5536760000000 1.0
C      1  0.5372550000000  0.5111930000000  0.4746640000000 1.0
C      1  0.5377540000000  0.5362220000000  0.5019900000000 1.0
C      1  0.5328020000000  0.4960730000000  0.5405790000000 1.0
C      1  0.5390450000000  0.4722750000000  0.5157710000000 1.0
C      1  0.5374210000000  0.4785080000000  0.4833940000000 1.0
C      1  0.4702420000000  0.4794110000000  0.4629200000000 1.0
C      1  0.4688540000000  0.4587860000000  0.5128070000000 1.0
C      1  0.4661650000000  0.5067040000000  0.5373460000000 1.0
C      1  0.4654770000000  0.5290960000000  0.5184900000000 1.0
C      1  0.4628120000000  0.5280870000000  0.4776120000000 1.0
C      1  0.4964800000000  0.4955900000000  0.4180890000000 1.0
C      1  0.5004790000000  0.5346180000000  0.5570400000000 1.0
C      1  0.5002330000000  0.4636580000000  0.5474140000000 1.0
C      1  0.4995450000000  0.4242190000000  0.4824950000000 1.0
C      1  0.4939160000000  0.5630840000000  0.4740650000000 1.0
C      1  0.4901260000000  0.4965330000000  0.4965840000000 1.0
END
