TITL C-2441164-471-1079 -0.00133752073286756 125000 -4650.15731346397 0 0 31 (C1) n - 1
REM
REM in /home/bkarasulu/work/CARBON/AIRSS/Generating-Clusters/ReaxFF-fromJPCA2015/Units_Real/with-SteepDescent/Higher-Symm
REM
REM
REM
REM
REM
REM ./C.cell (1df0a924f5614ab8850e4351716899ee)
REM
REM compiler GCC version 9.2.1 20190827 (Red Hat 9.2.1-1)
REM options -cpp -mtune=generic -march=x86-64 -g -O0 -fpre-include=/usr/include/finclude/math-vector-fortran.h
REM seed 490317206 -299822187 928378671 336240508 1834426831 -671575238 -510172540 297808593 1484354666 1781410601 494772620 1500289049 338952981 1450729575 1106368612 -1511502732 -2136962293 -1950277803 131470768 745014931 -828865506 1836155656 1338410794 -1380541763 -494948113 1175256888 1078559026 1312034703 -926023646 -2116816883 -1232207728 1285682292 647163749
REM
CELL 1.54180   50.00000   50.00000   50.00000   90.00000   90.00000   90.00000
LATT -1
SFAC C  
C      1  0.4701160000000  0.5473530000000  0.4680750000000 1.0
C      1  0.5441280000000  0.5484070000000  0.4877120000000 1.0
C      1  0.4904500000000  0.5482630000000  0.5412170000000 1.0
C      1  0.4704330000000  0.5482410000000  0.5296480000000 1.0
C      1  0.5439730000000  0.5475880000000  0.5108150000000 1.0
C      1  0.4899970000000  0.5483790000000  0.4563390000000 1.0
C      1  0.5315090000000  0.4604800000000  0.4736340000000 1.0
C      1  0.4975700000000  0.4615080000000  0.5359330000000 1.0
C      1  0.4793220000000  0.4610410000000  0.4923370000000 1.0
C      1  0.5187650000000  0.4610980000000  0.5156350000000 1.0
C      1  0.5073820000000  0.4612970000000  0.4587020000000 1.0
C      1  0.4717990000000  0.4615600000000  0.5207460000000 1.0
C      1  0.4725430000000  0.4837980000000  0.4756620000000 1.0
C      1  0.5435990000000  0.4851120000000  0.4838950000000 1.0
C      1  0.4900500000000  0.4871970000000  0.5487440000000 1.0
C      1  0.4642640000000  0.4871350000000  0.5338140000000 1.0
C      1  0.5362820000000  0.4840360000000  0.5124350000000 1.0
C      1  0.4928290000000  0.4855360000000  0.4537430000000 1.0
C      1  0.5353010000000  0.5050450000000  0.5334700000000 1.0
C      1  0.4512850000000  0.5066590000000  0.5158740000000 1.0
C      1  0.5130910000000  0.5070050000000  0.4495300000000 1.0
C      1  0.5381150000000  0.5067800000000  0.4645220000000 1.0
C      1  0.4547480000000  0.5048200000000  0.4870340000000 1.0
C      1  0.5120590000000  0.5067600000000  0.5509150000000 1.0
C      1  0.5139230000000  0.5367090000000  0.4471390000000 1.0
C      1  0.5396900000000  0.5345880000000  0.5353690000000 1.0
C      1  0.4498330000000  0.5365640000000  0.5143300000000 1.0
C      1  0.5140280000000  0.5366630000000  0.5514510000000 1.0
C      1  0.5401780000000  0.5365800000000  0.4625310000000 1.0
C      1  0.4509770000000  0.5343890000000  0.4840900000000 1.0
C      1  0.5075010000000  0.4486060000000  0.4903000000000 1.0
END
