TITL C-2441166-8118-418 0.0594754637122272 125000 -28522.130504229 0 0 193 (C1) n - 1
REM
REM in /home/bkarasulu/work/CARBON/AIRSS/Generating-Clusters/ReaxFF-fromJPCA2015/Units_Real/with-SteepDescent/Higher-Symm
REM
REM
REM
REM
REM
REM ./C.cell (1df0a924f5614ab8850e4351716899ee)
REM
REM compiler GCC version 9.2.1 20190827 (Red Hat 9.2.1-1)
REM options -cpp -mtune=generic -march=x86-64 -g -O0 -fpre-include=/usr/include/finclude/math-vector-fortran.h
REM seed 15097720 -1747259386 615374843 -841314608 1311330178 -1753913006 -262062862 87780099 2111476154 -1048071045 -1780738037 -1883301739 -713846579 51472632 844942702 -1085243552 -1795046894 247895778 -590080128 381357775 -1996564575 -590146492 1874226835 -1729730861 -296421894 261595948 752490772 1880260871 112036030 1985587447 -458593853 18727525 -586164824
REM
CELL 1.54180   50.00000   50.00000   50.00000   90.00000   90.00000   90.00000
LATT -1
SFAC C  
C      1  0.5322450000000  0.5534790000000  0.4797950000000 1.0
C      1  0.4566990000000  0.5469150000000  0.4793650000000 1.0
C      1  0.4453560000000  0.4716910000000  0.4721820000000 1.0
C      1  0.5089650000000  0.4331410000000  0.4813310000000 1.0
C      1  0.5626440000000  0.4848040000000  0.4814500000000 1.0
C      1  0.5030800000000  0.5255950000000  0.5044760000000 1.0
C      1  0.4789440000000  0.5125420000000  0.4978540000000 1.0
C      1  0.4618300000000  0.4772000000000  0.4947290000000 1.0
C      1  0.5173770000000  0.4793530000000  0.4983340000000 1.0
C      1  0.5267500000000  0.5071940000000  0.4985760000000 1.0
C      1  0.4916520000000  0.5253170000000  0.4520330000000 1.0
C      1  0.4721230000000  0.5038880000000  0.4516970000000 1.0
C      1  0.5023150000000  0.4746920000000  0.4735180000000 1.0
C      1  0.5232850000000  0.4853210000000  0.4527610000000 1.0
C      1  0.5192660000000  0.5152460000000  0.4543880000000 1.0
C      1  0.5118770000000  0.5627020000000  0.6016870000000 1.0
C      1  0.4434070000000  0.5308580000000  0.6016760000000 1.0
C      1  0.4496180000000  0.4569320000000  0.6005630000000 1.0
C      1  0.5241450000000  0.4400880000000  0.6001700000000 1.0
C      1  0.5630180000000  0.5056550000000  0.6008310000000 1.0
C      1  0.5915810000000  0.4615180000000  0.5470780000000 1.0
C      1  0.5632490000000  0.5775190000000  0.5519500000000 1.0
C      1  0.4467720000000  0.5847240000000  0.5522330000000 1.0
C      1  0.4013620000000  0.4745500000000  0.5526940000000 1.0
C      1  0.4916590000000  0.4004920000000  0.5496140000000 1.0
C      1  0.4343960000000  0.4424960000000  0.5502480000000 1.0
C      1  0.5387300000000  0.4172970000000  0.5546240000000 1.0
C      1  0.5926670000000  0.5123130000000  0.5577660000000 1.0
C      1  0.5159440000000  0.5891080000000  0.5542560000000 1.0
C      1  0.4160680000000  0.5454650000000  0.5578570000000 1.0
C      1  0.4761710000000  0.3946900000000  0.4526420000000 1.0
C      1  0.5897010000000  0.4495100000000  0.4526520000000 1.0
C      1  0.5801820000000  0.5656270000000  0.4548590000000 1.0
C      1  0.4583490000000  0.5980660000000  0.4537970000000 1.0
C      1  0.3940670000000  0.4897480000000  0.4541570000000 1.0
C      1  0.4797030000000  0.4469580000000  0.5542110000000 1.0
C      1  0.5455260000000  0.4659520000000  0.5536310000000 1.0
C      1  0.5356190000000  0.5397960000000  0.5569240000000 1.0
C      1  0.4778850000000  0.5492430000000  0.5570310000000 1.0
C      1  0.4465470000000  0.4963570000000  0.5583520000000 1.0
C      1  0.5642630000000  0.5112050000000  0.4692110000000 1.0
C      1  0.5042840000000  0.5650580000000  0.4791350000000 1.0
C      1  0.4384210000000  0.5222160000000  0.4793770000000 1.0
C      1  0.4590720000000  0.4458630000000  0.4703390000000 1.0
C      1  0.5376270000000  0.4437690000000  0.4784860000000 1.0
C      1  0.5769260000000  0.4962700000000  0.5770220000000 1.0
C      1  0.5249400000000  0.5765870000000  0.5799070000000 1.0
C      1  0.4360260000000  0.5483780000000  0.5797810000000 1.0
C      1  0.4310450000000  0.4572820000000  0.5783300000000 1.0
C      1  0.5191280000000  0.4249650000000  0.5757860000000 1.0
C      1  0.5099920000000  0.6056980000000  0.5120100000000 1.0
C      1  0.4027200000000  0.5413380000000  0.5141110000000 1.0
C      1  0.4320910000000  0.4195180000000  0.5125540000000 1.0
C      1  0.5558450000000  0.4109770000000  0.5131820000000 1.0
C      1  0.6078160000000  0.5274790000000  0.5184190000000 1.0
C      1  0.5729900000000  0.4375180000000  0.4319080000000 1.0
C      1  0.5820600000000  0.5491730000000  0.4316830000000 1.0
C      1  0.4773360000000  0.5935410000000  0.4335310000000 1.0
C      1  0.4041340000000  0.5066100000000  0.4335890000000 1.0
C      1  0.4629270000000  0.4097150000000  0.4326710000000 1.0
C      1  0.4226820000000  0.4670410000000  0.4261960000000 1.0
C      1  0.5063630000000  0.4154760000000  0.4263980000000 1.0
C      1  0.5751460000000  0.4804490000000  0.4195320000000 1.0
C      1  0.5429770000000  0.5708120000000  0.4265490000000 1.0
C      1  0.4451200000000  0.5625040000000  0.4261690000000 1.0
C      1  0.5312000000000  0.4545230000000  0.5063420000000 1.0
C      1  0.5513590000000  0.5116490000000  0.5122960000000 1.0
C      1  0.5029650000000  0.5553360000000  0.5066890000000 1.0
C      1  0.4518360000000  0.5168570000000  0.5074940000000 1.0
C      1  0.4619470000000  0.4551140000000  0.5128040000000 1.0
C      1  0.5201660000000  0.5038120000000  0.5390470000000 1.0
C      1  0.5037140000000  0.5249470000000  0.5348920000000 1.0
C      1  0.4795990000000  0.5132880000000  0.5410520000000 1.0
C      1  0.4795950000000  0.4866560000000  0.5356710000000 1.0
C      1  0.5072290000000  0.4793740000000  0.5312360000000 1.0
C      1  0.4759750000000  0.4602110000000  0.6119330000000 1.0
C      1  0.5283180000000  0.4656700000000  0.6125710000000 1.0
C      1  0.5392480000000  0.5178480000000  0.6116360000000 1.0
C      1  0.4941370000000  0.5423220000000  0.6112480000000 1.0
C      1  0.4572700000000  0.5078780000000  0.6119200000000 1.0
C      1  0.5928320000000  0.5042590000000  0.4541510000000 1.0
C      1  0.5444320000000  0.5971680000000  0.4688880000000 1.0
C      1  0.4188600000000  0.5719080000000  0.4686770000000 1.0
C      1  0.4074150000000  0.4444810000000  0.4688010000000 1.0
C      1  0.5245230000000  0.3931140000000  0.4681050000000 1.0
C      1  0.3957270000000  0.4816990000000  0.5026680000000 1.0
C      1  0.4841960000000  0.3912930000000  0.5009490000000 1.0
C      1  0.6017420000000  0.4567590000000  0.4990200000000 1.0
C      1  0.5758250000000  0.5737230000000  0.5026940000000 1.0
C      1  0.4512610000000  0.5956700000000  0.5017820000000 1.0
C      1  0.4256660000000  0.4231330000000  0.4629010000000 1.0
C      1  0.5503540000000  0.4053840000000  0.4632070000000 1.0
C      1  0.6082740000000  0.5085490000000  0.4791270000000 1.0
C      1  0.5171570000000  0.6037920000000  0.4627820000000 1.0
C      1  0.4051250000000  0.5471500000000  0.4629920000000 1.0
C      1  0.5904250000000  0.5223540000000  0.4303910000000 1.0
C      1  0.5049680000000  0.5952770000000  0.4380670000000 1.0
C      1  0.4103200000000  0.5336060000000  0.4377680000000 1.0
C      1  0.4382550000000  0.4230800000000  0.4367530000000 1.0
C      1  0.5535380000000  0.4174840000000  0.4373470000000 1.0
C      1  0.4941350000000  0.5549880000000  0.4118930000000 1.0
C      1  0.4462620000000  0.5119910000000  0.4112330000000 1.0
C      1  0.4693080000000  0.4517110000000  0.4115150000000 1.0
C      1  0.5340640000000  0.4503760000000  0.4064930000000 1.0
C      1  0.5498000000000  0.5254700000000  0.4068360000000 1.0
C      1  0.4045630000000  0.4637730000000  0.4482370000000 1.0
C      1  0.5043220000000  0.3966110000000  0.4476520000000 1.0
C      1  0.5911850000000  0.4762570000000  0.4423560000000 1.0
C      1  0.5573410000000  0.5819090000000  0.4488890000000 1.0
C      1  0.4366200000000  0.5800050000000  0.4477010000000 1.0
C      1  0.5721060000000  0.5084040000000  0.4135030000000 1.0
C      1  0.5148810000000  0.5727390000000  0.4228180000000 1.0
C      1  0.4345750000000  0.5366690000000  0.4221990000000 1.0
C      1  0.4424270000000  0.4477510000000  0.4218490000000 1.0
C      1  0.5311950000000  0.4260490000000  0.4211650000000 1.0
C      1  0.4050600000000  0.5268700000000  0.5377810000000 1.0
C      1  0.4485010000000  0.4138980000000  0.5338070000000 1.0
C      1  0.5587550000000  0.4288690000000  0.5352550000000 1.0
C      1  0.5936960000000  0.5365130000000  0.5411830000000 1.0
C      1  0.4958960000000  0.5994510000000  0.5354890000000 1.0
C      1  0.4709010000000  0.5708970000000  0.4179810000000 1.0
C      1  0.4240630000000  0.4941840000000  0.4175370000000 1.0
C      1  0.4810120000000  0.4255560000000  0.4176280000000 1.0
C      1  0.5615540000000  0.4561730000000  0.4132510000000 1.0
C      1  0.5588100000000  0.5507860000000  0.4160270000000 1.0
C      1  0.5207070000000  0.3976210000000  0.5429760000000 1.0
C      1  0.6049100000000  0.4887310000000  0.5459120000000 1.0
C      1  0.5423800000000  0.5950750000000  0.5426720000000 1.0
C      1  0.4216750000000  0.5715550000000  0.5451710000000 1.0
C      1  0.4055740000000  0.4465020000000  0.5443590000000 1.0
C      1  0.4718060000000  0.5286960000000  0.6021620000000 1.0
C      1  0.4624140000000  0.4821250000000  0.6030790000000 1.0
C      1  0.5029290000000  0.4578440000000  0.6054050000000 1.0
C      1  0.5407970000000  0.4904100000000  0.6084430000000 1.0
C      1  0.5191640000000  0.5351460000000  0.6029280000000 1.0
C      1  0.5443010000000  0.4690570000000  0.4656620000000 1.0
C      1  0.5422670000000  0.5296950000000  0.4642580000000 1.0
C      1  0.4822580000000  0.5491250000000  0.4660930000000 1.0
C      1  0.4459310000000  0.4991300000000  0.4610810000000 1.0
C      1  0.4876160000000  0.4477080000000  0.4682790000000 1.0
C      1  0.5499900000000  0.5395230000000  0.5263060000000 1.0
C      1  0.4755510000000  0.5606120000000  0.5247920000000 1.0
C      1  0.4360530000000  0.4925900000000  0.5282710000000 1.0
C      1  0.4841350000000  0.4409110000000  0.5253000000000 1.0
C      1  0.5518460000000  0.4611320000000  0.5257880000000 1.0
C      1  0.5122680000000  0.4701560000000  0.4025920000000 1.0
C      1  0.5221820000000  0.5157610000000  0.4081180000000 1.0
C      1  0.4949230000000  0.5263270000000  0.4056110000000 1.0
C      1  0.4741160000000  0.5047980000000  0.4055040000000 1.0
C      1  0.4831310000000  0.4761250000000  0.4041070000000 1.0
C      1  0.5759630000000  0.5596140000000  0.5309240000000 1.0
C      1  0.4667460000000  0.5908810000000  0.5296140000000 1.0
C      1  0.4049130000000  0.4951680000000  0.5301370000000 1.0
C      1  0.4721680000000  0.3982820000000  0.5281090000000 1.0
C      1  0.5898330000000  0.4474670000000  0.5224260000000 1.0
C      1  0.4608700000000  0.5235190000000  0.5549830000000 1.0
C      1  0.4693100000000  0.4738720000000  0.5583800000000 1.0
C      1  0.5176300000000  0.4692890000000  0.5598970000000 1.0
C      1  0.5334970000000  0.5082100000000  0.5632750000000 1.0
C      1  0.5076540000000  0.5484900000000  0.5514710000000 1.0
C      1  0.4987720000000  0.5997310000000  0.4850100000000 1.0
C      1  0.4046690000000  0.5279790000000  0.4857470000000 1.0
C      1  0.4450940000000  0.4181940000000  0.4833200000000 1.0
C      1  0.5631870000000  0.4214880000000  0.4851220000000 1.0
C      1  0.6029630000000  0.5342830000000  0.4906650000000 1.0
C      1  0.5130450000000  0.3885250000000  0.4947840000000 1.0
C      1  0.6133180000000  0.4859810000000  0.4957510000000 1.0
C      1  0.5561560000000  0.5935190000000  0.4954860000000 1.0
C      1  0.4261010000000  0.5825040000000  0.4956400000000 1.0
C      1  0.4002430000000  0.4537250000000  0.4956790000000 1.0
C      1  0.5321030000000  0.3936270000000  0.5161430000000 1.0
C      1  0.6159180000000  0.4987690000000  0.5208370000000 1.0
C      1  0.5383180000000  0.6033320000000  0.5157850000000 1.0
C      1  0.4124100000000  0.5688630000000  0.5175890000000 1.0
C      1  0.4078260000000  0.4357710000000  0.5174030000000 1.0
C      1  0.5633810000000  0.4852450000000  0.5110390000000 1.0
C      1  0.5328870000000  0.5550960000000  0.5080480000000 1.0
C      1  0.4554030000000  0.5470250000000  0.5085180000000 1.0
C      1  0.4412960000000  0.4635590000000  0.5293470000000 1.0
C      1  0.5076780000000  0.4344500000000  0.5098920000000 1.0
C      1  0.3930410000000  0.4997170000000  0.4815250000000 1.0
C      1  0.4664610000000  0.3966030000000  0.4795900000000 1.0
C      1  0.5879480000000  0.4399870000000  0.4802700000000 1.0
C      1  0.5879980000000  0.5586700000000  0.4822690000000 1.0
C      1  0.4682440000000  0.6023380000000  0.4807530000000 1.0
C      1  0.4905680000000  0.4231080000000  0.5678090000000 1.0
C      1  0.5706450000000  0.4692970000000  0.5666180000000 1.0
C      1  0.5490490000000  0.5626670000000  0.5718410000000 1.0
C      1  0.4572970000000  0.5667450000000  0.5715640000000 1.0
C      1  0.4213730000000  0.4834380000000  0.5715200000000 1.0
C      1  0.4804450000000  0.4917070000000  0.4793200000000 1.0
C      1  0.5221610000000  0.4895990000000  0.4212890000000 1.0
C      1  0.5124330000000  0.4920410000000  0.5784620000000 1.0
END
