TITL C-2441163-1170-639 0.0966802143279505 125000 -20344.0123449022 0 0 157 (C1) n - 1
REM
REM in /home/bkarasulu/work/CARBON/AIRSS/Generating-Clusters/ReaxFF-fromJPCA2015/Units_Real/with-SteepDescent/Higher-Symm
REM
REM
REM
REM
REM
REM ./C.cell (1df0a924f5614ab8850e4351716899ee)
REM
REM compiler GCC version 9.2.1 20190827 (Red Hat 9.2.1-1)
REM options -cpp -mtune=generic -march=x86-64 -g -O0 -fpre-include=/usr/include/finclude/math-vector-fortran.h
REM seed -1709828676 -1942514360 -1413747224 -1432012614 -1308194945 623216371 489948157 1705158845 -135401622 -254107347 -2120197811 -1572084213 659410506 367145049 2055901765 -1912405255 -1168864230 912175396 313733528 -2020311737 -1065154338 944381159 812166355 1644382175 2094833526 -905203701 -965295199 -824254802 -428786649 -811846542 421552403 404081268 1598239025
REM
CELL 1.54180   50.00000   50.00000   50.00000   90.00000   90.00000   90.00000
LATT -1
SFAC C  
C      1  0.4802770000000  0.5799270000000  0.4446350000000 1.0
C      1  0.5617760000000  0.5584900000000  0.5548720000000 1.0
C      1  0.5795660000000  0.4763100000000  0.4473330000000 1.0
C      1  0.5182490000000  0.4210320000000  0.5557540000000 1.0
C      1  0.4366520000000  0.4416190000000  0.4421970000000 1.0
C      1  0.4191840000000  0.5250010000000  0.5553780000000 1.0
C      1  0.4921830000000  0.5164000000000  0.4463100000000 1.0
C      1  0.5099220000000  0.5061100000000  0.5474810000000 1.0
C      1  0.5149650000000  0.4975300000000  0.4451110000000 1.0
C      1  0.5152830000000  0.4756080000000  0.5425330000000 1.0
C      1  0.4900530000000  0.4885120000000  0.4569660000000 1.0
C      1  0.4819850000000  0.5068290000000  0.5555110000000 1.0
C      1  0.4183710000000  0.5405730000000  0.4648730000000 1.0
C      1  0.4959980000000  0.5920940000000  0.5382530000000 1.0
C      1  0.5763570000000  0.5491810000000  0.4639720000000 1.0
C      1  0.5836200000000  0.4571130000000  0.5363810000000 1.0
C      1  0.5008330000000  0.4071850000000  0.4633200000000 1.0
C      1  0.4182130000000  0.4517690000000  0.5349320000000 1.0
C      1  0.4989860000000  0.4554290000000  0.5912170000000 1.0
C      1  0.4578750000000  0.4741780000000  0.4070420000000 1.0
C      1  0.4571520000000  0.5215310000000  0.5931870000000 1.0
C      1  0.4969300000000  0.5450980000000  0.4084580000000 1.0
C      1  0.5428260000000  0.5275180000000  0.5921090000000 1.0
C      1  0.5432830000000  0.4771960000000  0.4103450000000 1.0
C      1  0.5342100000000  0.5272490000000  0.4044250000000 1.0
C      1  0.5391410000000  0.4822920000000  0.5986990000000 1.0
C      1  0.5055920000000  0.4593890000000  0.4065550000000 1.0
C      1  0.4610650000000  0.4729520000000  0.5965060000000 1.0
C      1  0.4591740000000  0.5150700000000  0.4055640000000 1.0
C      1  0.4917690000000  0.5417520000000  0.5966030000000 1.0
C      1  0.4758460000000  0.5325890000000  0.4643300000000 1.0
C      1  0.5215690000000  0.5474560000000  0.5351480000000 1.0
C      1  0.5383760000000  0.5030740000000  0.4613910000000 1.0
C      1  0.5464530000000  0.4449700000000  0.5392160000000 1.0
C      1  0.4742960000000  0.4514610000000  0.4608900000000 1.0
C      1  0.4450440000000  0.4964680000000  0.5336090000000 1.0
C      1  0.4344120000000  0.4848660000000  0.5082770000000 1.0
C      1  0.4532450000000  0.5509930000000  0.4936890000000 1.0
C      1  0.5209010000000  0.5669900000000  0.5071150000000 1.0
C      1  0.5730750000000  0.5195020000000  0.4952110000000 1.0
C      1  0.5521250000000  0.4482110000000  0.5050440000000 1.0
C      1  0.4774050000000  0.4385690000000  0.4867920000000 1.0
C      1  0.5651190000000  0.4893980000000  0.4257270000000 1.0
C      1  0.5206940000000  0.4412530000000  0.5762820000000 1.0
C      1  0.4562730000000  0.4490670000000  0.4218890000000 1.0
C      1  0.4349230000000  0.5112690000000  0.5774190000000 1.0
C      1  0.4764310000000  0.5592680000000  0.4244400000000 1.0
C      1  0.5432240000000  0.5525980000000  0.5764980000000 1.0
C      1  0.4366630000000  0.4842840000000  0.5656120000000 1.0
C      1  0.4527770000000  0.5441720000000  0.4352650000000 1.0
C      1  0.5165880000000  0.5575500000000  0.5648910000000 1.0
C      1  0.5603350000000  0.5174170000000  0.4360620000000 1.0
C      1  0.5378530000000  0.4615830000000  0.5629540000000 1.0
C      1  0.4812350000000  0.4414190000000  0.4343820000000 1.0
C      1  0.4541230000000  0.4739750000000  0.4670540000000 1.0
C      1  0.4540490000000  0.5278750000000  0.5325920000000 1.0
C      1  0.5007150000000  0.5497250000000  0.4684010000000 1.0
C      1  0.5473670000000  0.5245500000000  0.5316850000000 1.0
C      1  0.5405700000000  0.4739580000000  0.4706220000000 1.0
C      1  0.4952200000000  0.4532560000000  0.5305320000000 1.0
C      1  0.4933520000000  0.5137880000000  0.6034410000000 1.0
C      1  0.5084590000000  0.5182030000000  0.3983990000000 1.0
C      1  0.5219750000000  0.5074570000000  0.5960900000000 1.0
C      1  0.5154400000000  0.4856850000000  0.4023630000000 1.0
C      1  0.4872090000000  0.4823650000000  0.5987130000000 1.0
C      1  0.4767340000000  0.4953740000000  0.4010030000000 1.0
C      1  0.5036880000000  0.5267180000000  0.5262360000000 1.0
C      1  0.5276990000000  0.5161090000000  0.4872800000000 1.0
C      1  0.5216250000000  0.4833220000000  0.5149210000000 1.0
C      1  0.4962660000000  0.4782900000000  0.4838970000000 1.0
C      1  0.4721430000000  0.4872300000000  0.5346920000000 1.0
C      1  0.4748960000000  0.5132520000000  0.4911380000000 1.0
C      1  0.4553380000000  0.4914990000000  0.4910780000000 1.0
C      1  0.4721370000000  0.5348080000000  0.5108790000000 1.0
C      1  0.5162010000000  0.5427150000000  0.4914990000000 1.0
C      1  0.5486080000000  0.5106950000000  0.5061120000000 1.0
C      1  0.5311330000000  0.4651640000000  0.4966220000000 1.0
C      1  0.4833280000000  0.4617860000000  0.5047720000000 1.0
C      1  0.4529290000000  0.4978160000000  0.4504080000000 1.0
C      1  0.4718100000000  0.5348530000000  0.5525250000000 1.0
C      1  0.5227740000000  0.5419970000000  0.4503400000000 1.0
C      1  0.5492600000000  0.5015740000000  0.5486580000000 1.0
C      1  0.5222140000000  0.4585680000000  0.4531680000000 1.0
C      1  0.4716850000000  0.4597500000000  0.5455750000000 1.0
C      1  0.5430760000000  0.5697220000000  0.4246650000000 1.0
C      1  0.5820640000000  0.4953720000000  0.5737550000000 1.0
C      1  0.5361550000000  0.4272230000000  0.4293390000000 1.0
C      1  0.4548640000000  0.4316280000000  0.5728110000000 1.0
C      1  0.4168370000000  0.5031150000000  0.4264970000000 1.0
C      1  0.4633710000000  0.5732470000000  0.5744990000000 1.0
C      1  0.4057110000000  0.4920660000000  0.4949590000000 1.0
C      1  0.4509540000000  0.5806010000000  0.4872100000000 1.0
C      1  0.5456720000000  0.5872680000000  0.5124770000000 1.0
C      1  0.5992940000000  0.5062110000000  0.4891410000000 1.0
C      1  0.5505500000000  0.4194340000000  0.4985320000000 1.0
C      1  0.4613700000000  0.4144900000000  0.4931620000000 1.0
C      1  0.4659190000000  0.5996010000000  0.5013720000000 1.0
C      1  0.5681430000000  0.5814980000000  0.4975970000000 1.0
C      1  0.6062390000000  0.4811070000000  0.4986800000000 1.0
C      1  0.5310650000000  0.4012110000000  0.5042940000000 1.0
C      1  0.4331630000000  0.4211830000000  0.4934210000000 1.0
C      1  0.3979220000000  0.5168410000000  0.5082950000000 1.0
C      1  0.5044950000000  0.4075540000000  0.5124610000000 1.0
C      1  0.4271050000000  0.4515500000000  0.4895110000000 1.0
C      1  0.4279460000000  0.5451640000000  0.5072540000000 1.0
C      1  0.5024470000000  0.5854150000000  0.4913870000000 1.0
C      1  0.5778510000000  0.5437630000000  0.5096350000000 1.0
C      1  0.5753120000000  0.4559410000000  0.4915070000000 1.0
C      1  0.5848640000000  0.5243830000000  0.4517050000000 1.0
C      1  0.5700380000000  0.4331010000000  0.5443770000000 1.0
C      1  0.4730190000000  0.4054290000000  0.4552810000000 1.0
C      1  0.4066730000000  0.4782980000000  0.5398650000000 1.0
C      1  0.4341630000000  0.5608950000000  0.4507840000000 1.0
C      1  0.5232090000000  0.5922570000000  0.5469920000000 1.0
C      1  0.5866060000000  0.5630000000000  0.4884330000000 1.0
C      1  0.5973120000000  0.4574880000000  0.5103200000000 1.0
C      1  0.4935000000000  0.3964250000000  0.4888510000000 1.0
C      1  0.4125780000000  0.4367490000000  0.5099410000000 1.0
C      1  0.4050160000000  0.5409060000000  0.4911040000000 1.0
C      1  0.4911780000000  0.6050880000000  0.5104520000000 1.0
C      1  0.5603480000000  0.4744060000000  0.5805490000000 1.0
C      1  0.5071690000000  0.4346650000000  0.4198050000000 1.0
C      1  0.4421550000000  0.4597270000000  0.5805000000000 1.0
C      1  0.4365020000000  0.5253900000000  0.4176760000000 1.0
C      1  0.4925100000000  0.5654450000000  0.5813570000000 1.0
C      1  0.5535710000000  0.5422500000000  0.4173230000000 1.0
C      1  0.4039650000000  0.5073270000000  0.5385990000000 1.0
C      1  0.4540500000000  0.5812560000000  0.4575080000000 1.0
C      1  0.5496560000000  0.5824640000000  0.5422800000000 1.0
C      1  0.5948440000000  0.4980560000000  0.4606530000000 1.0
C      1  0.5427840000000  0.4175950000000  0.5389620000000 1.0
C      1  0.4486360000000  0.4192840000000  0.4553870000000 1.0
C      1  0.5203200000000  0.4312470000000  0.4668350000000 1.0
C      1  0.4470000000000  0.4424640000000  0.5331400000000 1.0
C      1  0.4297940000000  0.5128790000000  0.4644710000000 1.0
C      1  0.4778610000000  0.5691180000000  0.5370990000000 1.0
C      1  0.5470160000000  0.5555570000000  0.4638040000000 1.0
C      1  0.5723470000000  0.4849110000000  0.5350230000000 1.0
C      1  0.4123000000000  0.4918210000000  0.4540670000000 1.0
C      1  0.4515150000000  0.5714490000000  0.5475120000000 1.0
C      1  0.5359950000000  0.5799650000000  0.4519770000000 1.0
C      1  0.5890060000000  0.5058390000000  0.5466630000000 1.0
C      1  0.5477260000000  0.4273620000000  0.4574790000000 1.0
C      1  0.4619710000000  0.4213500000000  0.5462170000000 1.0
C      1  0.4233530000000  0.4623310000000  0.4611170000000 1.0
C      1  0.4317120000000  0.5470190000000  0.5380440000000 1.0
C      1  0.5058560000000  0.5843420000000  0.4614110000000 1.0
C      1  0.5752680000000  0.5365270000000  0.5386540000000 1.0
C      1  0.5673580000000  0.4540090000000  0.4633960000000 1.0
C      1  0.4937170000000  0.4214100000000  0.5385030000000 1.0
C      1  0.4412840000000  0.4873250000000  0.4274920000000 1.0
C      1  0.4579320000000  0.5439950000000  0.5754240000000 1.0
C      1  0.5172590000000  0.5559850000000  0.4263920000000 1.0
C      1  0.5593240000000  0.5139450000000  0.5723750000000 1.0
C      1  0.5395830000000  0.4559220000000  0.4304030000000 1.0
C      1  0.4792440000000  0.4469150000000  0.5715650000000 1.0
C      1  0.5052770000000  0.4997010000000  0.4976040000000 1.0
END
