TITL C-2441167-4473-126 0.0724148087070487 125000 -17934.8100907744 0 0 135 (C1) n - 1
REM
REM in /home/bkarasulu/work/CARBON/AIRSS/Generating-Clusters/ReaxFF-fromJPCA2015/Units_Real/with-SteepDescent/Higher-Symm
REM
REM
REM
REM
REM
REM ./C.cell (1df0a924f5614ab8850e4351716899ee)
REM
REM compiler GCC version 9.2.1 20190827 (Red Hat 9.2.1-1)
REM options -cpp -mtune=generic -march=x86-64 -g -O0 -fpre-include=/usr/include/finclude/math-vector-fortran.h
REM seed 813671735 -883573049 -322482281 -41278710 1292740008 2029337713 -1288753905 416865890 874308737 -767856588 340595125 -610619791 -1193670413 581456498 993480147 125759302 373058059 1880737054 368766438 600448414 930925999 497567195 -982212170 965228509 -643352537 -906212537 1788117887 -1926614186 44903713 -473201327 -1172594274 736527731 -1011684857
REM
CELL 1.54180   50.00000   50.00000   50.00000   90.00000   90.00000   90.00000
LATT -1
SFAC C  
C      1  0.5509280000000  0.4362100000000  0.4700120000000 1.0
C      1  0.5051800000000  0.4383630000000  0.4353350000000 1.0
C      1  0.4495630000000  0.4411210000000  0.4566600000000 1.0
C      1  0.4334010000000  0.4341620000000  0.5131840000000 1.0
C      1  0.4683900000000  0.4340420000000  0.5587220000000 1.0
C      1  0.5253230000000  0.4338470000000  0.5620910000000 1.0
C      1  0.5632840000000  0.4322040000000  0.5197760000000 1.0
C      1  0.5923950000000  0.4675830000000  0.5231220000000 1.0
C      1  0.5798300000000  0.4854390000000  0.4477010000000 1.0
C      1  0.5158880000000  0.4959440000000  0.4095530000000 1.0
C      1  0.4314740000000  0.4867400000000  0.4314620000000 1.0
C      1  0.4163250000000  0.4921410000000  0.5014210000000 1.0
C      1  0.4473150000000  0.4958500000000  0.5742650000000 1.0
C      1  0.5280630000000  0.4927370000000  0.5866550000000 1.0
C      1  0.4877600000000  0.5813220000000  0.4451180000000 1.0
C      1  0.4485410000000  0.5830420000000  0.4739700000000 1.0
C      1  0.4491040000000  0.5818360000000  0.5203670000000 1.0
C      1  0.4802440000000  0.5817820000000  0.5488000000000 1.0
C      1  0.5284780000000  0.5834840000000  0.5448340000000 1.0
C      1  0.5543690000000  0.5801770000000  0.5004070000000 1.0
C      1  0.5347970000000  0.5783370000000  0.4521150000000 1.0
C      1  0.5225750000000  0.5584990000000  0.4715240000000 1.0
C      1  0.4929650000000  0.5598370000000  0.4660020000000 1.0
C      1  0.4712300000000  0.5629420000000  0.4846720000000 1.0
C      1  0.4703780000000  0.5583980000000  0.5122330000000 1.0
C      1  0.4914510000000  0.5572400000000  0.5289440000000 1.0
C      1  0.5196240000000  0.5609170000000  0.5256940000000 1.0
C      1  0.5348540000000  0.5575940000000  0.4998530000000 1.0
C      1  0.5010210000000  0.5338960000000  0.5933370000000 1.0
C      1  0.5780810000000  0.5292560000000  0.5554760000000 1.0
C      1  0.5958030000000  0.5379660000000  0.4741530000000 1.0
C      1  0.5523440000000  0.5313840000000  0.4071960000000 1.0
C      1  0.4547440000000  0.5385350000000  0.4151900000000 1.0
C      1  0.4053090000000  0.5295530000000  0.4738640000000 1.0
C      1  0.4170420000000  0.5334800000000  0.5589550000000 1.0
C      1  0.4971380000000  0.5143350000000  0.4631420000000 1.0
C      1  0.4618990000000  0.5163810000000  0.4881560000000 1.0
C      1  0.4626030000000  0.5149530000000  0.5175670000000 1.0
C      1  0.5022770000000  0.5173820000000  0.5478070000000 1.0
C      1  0.5274000000000  0.5166650000000  0.5343340000000 1.0
C      1  0.5287180000000  0.5074920000000  0.4942140000000 1.0
C      1  0.5243180000000  0.5102260000000  0.4646760000000 1.0
C      1  0.4234810000000  0.4458150000000  0.5384590000000 1.0
C      1  0.4811510000000  0.4447690000000  0.5831710000000 1.0
C      1  0.5524300000000  0.4437440000000  0.5680780000000 1.0
C      1  0.5839000000000  0.4451200000000  0.5046240000000 1.0
C      1  0.5552840000000  0.4439610000000  0.4413250000000 1.0
C      1  0.4834030000000  0.4476240000000  0.4184110000000 1.0
C      1  0.4242040000000  0.4553630000000  0.4654920000000 1.0
C      1  0.4177630000000  0.4742740000000  0.5433170000000 1.0
C      1  0.4828900000000  0.4728970000000  0.5934310000000 1.0
C      1  0.5646820000000  0.4710080000000  0.5680650000000 1.0
C      1  0.5960590000000  0.4954280000000  0.4940330000000 1.0
C      1  0.5613640000000  0.4715620000000  0.4332290000000 1.0
C      1  0.4756290000000  0.4759740000000  0.4115930000000 1.0
C      1  0.4094540000000  0.4816540000000  0.4490470000000 1.0
C      1  0.4223240000000  0.5426210000000  0.5089860000000 1.0
C      1  0.4652630000000  0.5413700000000  0.5716640000000 1.0
C      1  0.5364570000000  0.5407870000000  0.5752710000000 1.0
C      1  0.5776160000000  0.5339240000000  0.5169230000000 1.0
C      1  0.5790490000000  0.5576180000000  0.4611770000000 1.0
C      1  0.5036320000000  0.5448260000000  0.4220440000000 1.0
C      1  0.4454690000000  0.5501940000000  0.4462800000000 1.0
C      1  0.5592970000000  0.5763290000000  0.4696000000000 1.0
C      1  0.5126380000000  0.5727070000000  0.4330980000000 1.0
C      1  0.4585610000000  0.5768480000000  0.4470570000000 1.0
C      1  0.4343280000000  0.5724950000000  0.4969570000000 1.0
C      1  0.4540610000000  0.5694070000000  0.5458420000000 1.0
C      1  0.5054450000000  0.5751030000000  0.5606650000000 1.0
C      1  0.5550960000000  0.5785640000000  0.5297910000000 1.0
C      1  0.5339110000000  0.4793220000000  0.5032310000000 1.0
C      1  0.5157120000000  0.4802550000000  0.4568020000000 1.0
C      1  0.4877740000000  0.4875710000000  0.4595590000000 1.0
C      1  0.4596920000000  0.4905500000000  0.4721050000000 1.0
C      1  0.4700820000000  0.4882280000000  0.5313040000000 1.0
C      1  0.4977160000000  0.4896250000000  0.5433710000000 1.0
C      1  0.5246420000000  0.4873210000000  0.5304450000000 1.0
C      1  0.5711880000000  0.4364510000000  0.5473980000000 1.0
C      1  0.5782300000000  0.4488080000000  0.4769140000000 1.0
C      1  0.5310020000000  0.4447810000000  0.4246190000000 1.0
C      1  0.4561840000000  0.4428280000000  0.4288930000000 1.0
C      1  0.4185250000000  0.4475490000000  0.4924190000000 1.0
C      1  0.4440830000000  0.4471710000000  0.5581280000000 1.0
C      1  0.5099100000000  0.4439200000000  0.5836540000000 1.0
C      1  0.5879630000000  0.4759160000000  0.4726920000000 1.0
C      1  0.5285510000000  0.4758750000000  0.4295880000000 1.0
C      1  0.4482080000000  0.4692090000000  0.4178020000000 1.0
C      1  0.4314570000000  0.4722220000000  0.4891640000000 1.0
C      1  0.4455660000000  0.4757070000000  0.5542440000000 1.0
C      1  0.5111240000000  0.4709960000000  0.5911440000000 1.0
C      1  0.5831120000000  0.4612460000000  0.5488380000000 1.0
C      1  0.4183920000000  0.5192510000000  0.4936820000000 1.0
C      1  0.4423410000000  0.5235300000000  0.5671120000000 1.0
C      1  0.5220960000000  0.5213420000000  0.5894680000000 1.0
C      1  0.5733130000000  0.5112290000000  0.5350010000000 1.0
C      1  0.5680210000000  0.5245310000000  0.4735280000000 1.0
C      1  0.5253290000000  0.5235210000000  0.4102710000000 1.0
C      1  0.4601590000000  0.5233120000000  0.4395520000000 1.0
C      1  0.4747110000000  0.5264870000000  0.5952420000000 1.0
C      1  0.5616480000000  0.5248370000000  0.5775960000000 1.0
C      1  0.5989330000000  0.5242600000000  0.4993210000000 1.0
C      1  0.5579120000000  0.5335070000000  0.4354890000000 1.0
C      1  0.4803130000000  0.5318350000000  0.4058870000000 1.0
C      1  0.4028680000000  0.5071810000000  0.4593400000000 1.0
C      1  0.4086140000000  0.5263410000000  0.5338190000000 1.0
C      1  0.4498760000000  0.5405340000000  0.5249260000000 1.0
C      1  0.4898830000000  0.5430710000000  0.5546470000000 1.0
C      1  0.5368680000000  0.5425000000000  0.5453560000000 1.0
C      1  0.5528210000000  0.5311660000000  0.4990020000000 1.0
C      1  0.5342570000000  0.5367920000000  0.4539070000000 1.0
C      1  0.4888800000000  0.5359920000000  0.4487660000000 1.0
C      1  0.4518020000000  0.5416170000000  0.4755510000000 1.0
C      1  0.5031390000000  0.4409930000000  0.4655750000000 1.0
C      1  0.4724070000000  0.4407130000000  0.4752080000000 1.0
C      1  0.4626590000000  0.4393580000000  0.5086770000000 1.0
C      1  0.4809890000000  0.4384520000000  0.5337520000000 1.0
C      1  0.5140910000000  0.4397280000000  0.5352570000000 1.0
C      1  0.5350200000000  0.4395430000000  0.5122520000000 1.0
C      1  0.5288010000000  0.4555840000000  0.4859400000000 1.0
C      1  0.4778550000000  0.4105020000000  0.4780040000000 1.0
C      1  0.4663630000000  0.4096430000000  0.5049200000000 1.0
C      1  0.4826780000000  0.4096270000000  0.5295570000000 1.0
C      1  0.5120180000000  0.4096980000000  0.5310860000000 1.0
C      1  0.5315230000000  0.4084100000000  0.5085430000000 1.0
C      1  0.5329830000000  0.4110720000000  0.4800900000000 1.0
C      1  0.5061290000000  0.4111880000000  0.4699750000000 1.0
C      1  0.5656530000000  0.5081160000000  0.4500980000000 1.0
C      1  0.4884070000000  0.5014900000000  0.4054350000000 1.0
C      1  0.4443630000000  0.5016810000000  0.4497650000000 1.0
C      1  0.4092760000000  0.4969880000000  0.5278130000000 1.0
C      1  0.4679780000000  0.4973620000000  0.5920540000000 1.0
C      1  0.5538250000000  0.4952430000000  0.5784580000000 1.0
C      1  0.5827340000000  0.4911950000000  0.5172340000000 1.0
C      1  0.4995440000000  0.5023140000000  0.5009720000000 1.0
C      1  0.4839270000000  0.4780000000000  0.5048300000000 1.0
END
