TITL C-2441159-1093-529 0.00754244724905178 125000 -5328.27347490891 0 0 42 (C1) n - 1
REM
REM in /home/bkarasulu/work/CARBON/AIRSS/Generating-Clusters/ReaxFF-fromJPCA2015/Units_Real/with-SteepDescent/Higher-Symm
REM
REM
REM
REM
REM
REM ./C.cell (1df0a924f5614ab8850e4351716899ee)
REM
REM compiler GCC version 9.2.1 20190827 (Red Hat 9.2.1-1)
REM options -cpp -mtune=generic -march=x86-64 -g -O0 -fpre-include=/usr/include/finclude/math-vector-fortran.h
REM seed -998960019 106120241 1291103529 -1159866506 326408481 -1173604790 -1135466030 -388398289 488046281 -1562826403 614119199 2009321761 -1251627447 -1116991273 425216569 340451213 1150581020 2046114171 1441490701 -451726462 -1000870503 -58786106 -942599938 -1943772998 -845724671 -812616856 -953568077 -898415145 -1191976821 -536669317 678162972 1674379173 186251485
REM
CELL 1.54180   50.00000   50.00000   50.00000   90.00000   90.00000   90.00000
LATT -1
SFAC C  
C      1  0.5178050000000  0.4422540000000  0.5233820000000 1.0
C      1  0.5274360000000  0.5205090000000  0.4422700000000 1.0
C      1  0.4430650000000  0.5174360000000  0.5134250000000 1.0
C      1  0.4904970000000  0.5501660000000  0.5245630000000 1.0
C      1  0.4808760000000  0.4399960000000  0.4733510000000 1.0
C      1  0.5110570000000  0.5548080000000  0.4698770000000 1.0
C      1  0.4746850000000  0.4959960000000  0.4478120000000 1.0
C      1  0.4737280000000  0.5226420000000  0.5582550000000 1.0
C      1  0.5236170000000  0.4944600000000  0.5526420000000 1.0
C      1  0.5484630000000  0.4752760000000  0.5161760000000 1.0
C      1  0.5516790000000  0.5295470000000  0.4837860000000 1.0
C      1  0.4520400000000  0.4769100000000  0.4841340000000 1.0
C      1  0.5110310000000  0.4426700000000  0.4784900000000 1.0
C      1  0.5234470000000  0.5229290000000  0.5539640000000 1.0
C      1  0.4461580000000  0.5288330000000  0.4864180000000 1.0
C      1  0.4852920000000  0.5572640000000  0.4834090000000 1.0
C      1  0.4848370000000  0.4418490000000  0.5218470000000 1.0
C      1  0.5188070000000  0.5511520000000  0.5162800000000 1.0
C      1  0.4725350000000  0.4941210000000  0.5526880000000 1.0
C      1  0.4759900000000  0.5243980000000  0.4464560000000 1.0
C      1  0.5262770000000  0.4925660000000  0.4482640000000 1.0
C      1  0.5483060000000  0.4760470000000  0.4861170000000 1.0
C      1  0.5516900000000  0.5198020000000  0.5108280000000 1.0
C      1  0.4500860000000  0.4697420000000  0.5109130000000 1.0
C      1  0.5033940000000  0.5361390000000  0.4490700000000 1.0
C      1  0.4528980000000  0.5126720000000  0.5408660000000 1.0
C      1  0.5421840000000  0.4517550000000  0.5007470000000 1.0
C      1  0.4986980000000  0.4538040000000  0.4568410000000 1.0
C      1  0.4979270000000  0.5371030000000  0.5495340000000 1.0
C      1  0.4998960000000  0.4536700000000  0.5422680000000 1.0
C      1  0.5454250000000  0.5095880000000  0.5385910000000 1.0
C      1  0.5466420000000  0.5095710000000  0.4623330000000 1.0
C      1  0.4544170000000  0.5117260000000  0.4631380000000 1.0
C      1  0.4612090000000  0.5505360000000  0.4970840000000 1.0
C      1  0.4601590000000  0.4488680000000  0.4929820000000 1.0
C      1  0.5332190000000  0.5505310000000  0.4903020000000 1.0
C      1  0.4997350000000  0.4812640000000  0.4525640000000 1.0
C      1  0.4981630000000  0.4811480000000  0.5473540000000 1.0
C      1  0.5382230000000  0.4967220000000  0.5018670000000 1.0
C      1  0.4568520000000  0.4950510000000  0.5047250000000 1.0
C      1  0.5026690000000  0.4540880000000  0.5029600000000 1.0
C      1  0.4976790000000  0.5371200000000  0.5030450000000 1.0
END
