TITL C-2441165-58-41 0.101807641548465 125000 -24619.1547193581 0 0 181 (C1) n - 1
REM
REM in /home/bkarasulu/work/CARBON/AIRSS/Generating-Clusters/ReaxFF-fromJPCA2015/Units_Real/with-SteepDescent/Higher-Symm
REM
REM
REM
REM
REM
REM ./C.cell (1df0a924f5614ab8850e4351716899ee)
REM
REM compiler GCC version 9.2.1 20190827 (Red Hat 9.2.1-1)
REM options -cpp -mtune=generic -march=x86-64 -g -O0 -fpre-include=/usr/include/finclude/math-vector-fortran.h
REM seed -1323869233 712875004 1440453704 1730114851 314718657 1214848890 434219802 1647270394 1000664847 -1902347088 -1096425824 1661130444 -1213761032 -222919036 -292830925 -1840866321 947350606 -1485370321 -1888795614 1307795976 12556114 388812931 -1666967875 -71605196 -1132425928 664951997 -750746541 1855198828 -779785201 1337747751 -806617252 636697250 1772947167
REM
CELL 1.54180   50.00000   50.00000   50.00000   90.00000   90.00000   90.00000
LATT -1
SFAC C  
C      1  0.5472760000000  0.4922660000000  0.4797670000000 1.0
C      1  0.4977510000000  0.4802400000000  0.5413340000000 1.0
C      1  0.4814600000000  0.5401950000000  0.4996830000000 1.0
C      1  0.5378090000000  0.4994130000000  0.5214380000000 1.0
C      1  0.4582300000000  0.5035220000000  0.5188190000000 1.0
C      1  0.4611850000000  0.5005810000000  0.4775230000000 1.0
C      1  0.5000450000000  0.5216100000000  0.4574410000000 1.0
C      1  0.5005750000000  0.4750980000000  0.4584270000000 1.0
C      1  0.5010870000000  0.5205960000000  0.5419770000000 1.0
C      1  0.4776790000000  0.4598790000000  0.5021660000000 1.0
C      1  0.5228370000000  0.5431170000000  0.4992610000000 1.0
C      1  0.5189510000000  0.4586370000000  0.5028380000000 1.0
C      1  0.5427310000000  0.4765450000000  0.5038160000000 1.0
C      1  0.5011480000000  0.5416390000000  0.4787440000000 1.0
C      1  0.4794410000000  0.5015670000000  0.5391540000000 1.0
C      1  0.5437900000000  0.5229810000000  0.5060970000000 1.0
C      1  0.4584630000000  0.5228380000000  0.4966290000000 1.0
C      1  0.4595480000000  0.4821450000000  0.4995250000000 1.0
C      1  0.4981150000000  0.4609280000000  0.5221860000000 1.0
C      1  0.4986390000000  0.4570630000000  0.4817760000000 1.0
C      1  0.5017660000000  0.5405330000000  0.5203980000000 1.0
C      1  0.4820500000000  0.4985160000000  0.4575480000000 1.0
C      1  0.5201700000000  0.4976940000000  0.5452150000000 1.0
C      1  0.5209210000000  0.4993790000000  0.4701760000000 1.0
C      1  0.4172430000000  0.4448240000000  0.5048420000000 1.0
C      1  0.4506430000000  0.5053570000000  0.4139530000000 1.0
C      1  0.5045730000000  0.4158920000000  0.4456270000000 1.0
C      1  0.4146690000000  0.5499820000000  0.4949970000000 1.0
C      1  0.5825710000000  0.4397470000000  0.4891990000000 1.0
C      1  0.5788430000000  0.5564760000000  0.5035310000000 1.0
C      1  0.4509830000000  0.4943920000000  0.5854830000000 1.0
C      1  0.5589890000000  0.5119380000000  0.5853960000000 1.0
C      1  0.5622910000000  0.4863780000000  0.4181160000000 1.0
C      1  0.5054140000000  0.5850500000000  0.5549800000000 1.0
C      1  0.4966130000000  0.4166370000000  0.5538320000000 1.0
C      1  0.4963800000000  0.5817600000000  0.4469660000000 1.0
C      1  0.4136710000000  0.5066810000000  0.4476410000000 1.0
C      1  0.4487440000000  0.4171690000000  0.5030270000000 1.0
C      1  0.5041280000000  0.4458710000000  0.4166560000000 1.0
C      1  0.4137540000000  0.4936960000000  0.5508520000000 1.0
C      1  0.5805090000000  0.4981010000000  0.4399470000000 1.0
C      1  0.5806530000000  0.5022390000000  0.5534260000000 1.0
C      1  0.4501630000000  0.5853410000000  0.4946480000000 1.0
C      1  0.5627480000000  0.5828460000000  0.5120660000000 1.0
C      1  0.5624990000000  0.4173700000000  0.4879390000000 1.0
C      1  0.5057030000000  0.5560410000000  0.5850580000000 1.0
C      1  0.4968890000000  0.5521020000000  0.4177230000000 1.0
C      1  0.4961000000000  0.4462310000000  0.5831500000000 1.0
C      1  0.5016360000000  0.3913790000000  0.4626560000000 1.0
C      1  0.3933200000000  0.4611840000000  0.4999180000000 1.0
C      1  0.4679070000000  0.4982430000000  0.3911190000000 1.0
C      1  0.5007960000000  0.6085380000000  0.5367960000000 1.0
C      1  0.5035210000000  0.3954560000000  0.5352500000000 1.0
C      1  0.5041600000000  0.6040020000000  0.4640210000000 1.0
C      1  0.3896020000000  0.5363110000000  0.5014830000000 1.0
C      1  0.6018500000000  0.4583670000000  0.5016350000000 1.0
C      1  0.6041270000000  0.5364140000000  0.4990080000000 1.0
C      1  0.4662430000000  0.5011870000000  0.6096920000000 1.0
C      1  0.5432260000000  0.4993940000000  0.6050370000000 1.0
C      1  0.5448370000000  0.4982570000000  0.3973150000000 1.0
C      1  0.5005980000000  0.4623450000000  0.3926920000000 1.0
C      1  0.3906580000000  0.4974610000000  0.4630170000000 1.0
C      1  0.4666470000000  0.3937750000000  0.4977870000000 1.0
C      1  0.5011160000000  0.5381940000000  0.6090320000000 1.0
C      1  0.5047720000000  0.5348960000000  0.3956360000000 1.0
C      1  0.5030530000000  0.4635040000000  0.6054100000000 1.0
C      1  0.3887820000000  0.5005980000000  0.5369200000000 1.0
C      1  0.6039660000000  0.4994490000000  0.4622520000000 1.0
C      1  0.6038750000000  0.4963820000000  0.5370160000000 1.0
C      1  0.4668810000000  0.6088010000000  0.5011240000000 1.0
C      1  0.5440210000000  0.6021030000000  0.5011040000000 1.0
C      1  0.5440750000000  0.3983850000000  0.5013900000000 1.0
C      1  0.5286330000000  0.5685220000000  0.5488320000000 1.0
C      1  0.5632660000000  0.5404520000000  0.5244260000000 1.0
C      1  0.5536760000000  0.5346980000000  0.5712520000000 1.0
C      1  0.5273730000000  0.4324390000000  0.4500880000000 1.0
C      1  0.4719870000000  0.5671950000000  0.4521000000000 1.0
C      1  0.4717300000000  0.4307730000000  0.5494800000000 1.0
C      1  0.5705360000000  0.4505080000000  0.4658800000000 1.0
C      1  0.4357650000000  0.5436900000000  0.4761310000000 1.0
C      1  0.4321630000000  0.4506000000000  0.5293730000000 1.0
C      1  0.5477970000000  0.4710210000000  0.4353970000000 1.0
C      1  0.4512610000000  0.5291930000000  0.4305830000000 1.0
C      1  0.4507910000000  0.4705520000000  0.5698180000000 1.0
C      1  0.5294580000000  0.5511140000000  0.5695060000000 1.0
C      1  0.5707870000000  0.5283890000000  0.5502210000000 1.0
C      1  0.5510360000000  0.5669120000000  0.5312570000000 1.0
C      1  0.5220100000000  0.4577720000000  0.4372270000000 1.0
C      1  0.4708900000000  0.4499490000000  0.5696620000000 1.0
C      1  0.4750700000000  0.5448600000000  0.4354350000000 1.0
C      1  0.5621510000000  0.4773600000000  0.4597170000000 1.0
C      1  0.4304380000000  0.4704830000000  0.5500290000000 1.0
C      1  0.4309380000000  0.5296410000000  0.4503420000000 1.0
C      1  0.5516130000000  0.4299740000000  0.4643060000000 1.0
C      1  0.4527650000000  0.4317920000000  0.5279610000000 1.0
C      1  0.4519800000000  0.5679250000000  0.4722770000000 1.0
C      1  0.4533780000000  0.4329380000000  0.4145400000000 1.0
C      1  0.4322680000000  0.4121900000000  0.4551850000000 1.0
C      1  0.4124730000000  0.4547570000000  0.4341690000000 1.0
C      1  0.4545790000000  0.5647750000000  0.5866140000000 1.0
C      1  0.5458440000000  0.4314300000000  0.5878610000000 1.0
C      1  0.5447850000000  0.5717120000000  0.4104380000000 1.0
C      1  0.4338500000000  0.5863370000000  0.5453120000000 1.0
C      1  0.5644060000000  0.4146510000000  0.5447120000000 1.0
C      1  0.5603790000000  0.5869910000000  0.4554230000000 1.0
C      1  0.4134910000000  0.5440930000000  0.5654570000000 1.0
C      1  0.5814820000000  0.4571860000000  0.5656570000000 1.0
C      1  0.5825240000000  0.5475230000000  0.4329420000000 1.0
C      1  0.4528510000000  0.4114470000000  0.4343490000000 1.0
C      1  0.4339760000000  0.4546130000000  0.4139930000000 1.0
C      1  0.4130300000000  0.4344280000000  0.4547700000000 1.0
C      1  0.4542390000000  0.5862700000000  0.5661790000000 1.0
C      1  0.5441160000000  0.5900150000000  0.4317700000000 1.0
C      1  0.5470180000000  0.4117310000000  0.5678770000000 1.0
C      1  0.4342990000000  0.5437760000000  0.5860190000000 1.0
C      1  0.5635910000000  0.5499630000000  0.4102680000000 1.0
C      1  0.5601260000000  0.4563380000000  0.5852260000000 1.0
C      1  0.4132740000000  0.5655570000000  0.5453710000000 1.0
C      1  0.5817990000000  0.5664540000000  0.4553870000000 1.0
C      1  0.5825140000000  0.4383800000000  0.5435940000000 1.0
C      1  0.5340290000000  0.5183890000000  0.6252450000000 1.0
C      1  0.5196810000000  0.6305780000000  0.5342920000000 1.0
C      1  0.6255580000000  0.5365380000000  0.5175080000000 1.0
C      1  0.5368650000000  0.4799410000000  0.3765290000000 1.0
C      1  0.4688700000000  0.5164190000000  0.3679200000000 1.0
C      1  0.4664060000000  0.4823500000000  0.6321630000000 1.0
C      1  0.5215120000000  0.3704240000000  0.4658190000000 1.0
C      1  0.4852660000000  0.6251040000000  0.4686120000000 1.0
C      1  0.4842040000000  0.3750020000000  0.5294770000000 1.0
C      1  0.6211000000000  0.4668080000000  0.4819710000000 1.0
C      1  0.3665870000000  0.5360900000000  0.4830890000000 1.0
C      1  0.3730180000000  0.4670610000000  0.5193510000000 1.0
C      1  0.5349750000000  0.6231750000000  0.5185320000000 1.0
C      1  0.5197990000000  0.5357090000000  0.6308970000000 1.0
C      1  0.6213780000000  0.5181390000000  0.5311790000000 1.0
C      1  0.5355500000000  0.3780550000000  0.4825520000000 1.0
C      1  0.4668250000000  0.3699770000000  0.5150060000000 1.0
C      1  0.4677840000000  0.6314740000000  0.4824640000000 1.0
C      1  0.5204860000000  0.4648180000000  0.3714460000000 1.0
C      1  0.4836020000000  0.4680580000000  0.6260810000000 1.0
C      1  0.4861080000000  0.5305590000000  0.3742350000000 1.0
C      1  0.6250530000000  0.4808270000000  0.4637220000000 1.0
C      1  0.3663860000000  0.4817370000000  0.5360260000000 1.0
C      1  0.3716390000000  0.5182350000000  0.4693140000000 1.0
C      1  0.5412960000000  0.4722420000000  0.5688590000000 1.0
C      1  0.4784530000000  0.5741120000000  0.5551540000000 1.0
C      1  0.5678110000000  0.5530820000000  0.4775360000000 1.0
C      1  0.5460100000000  0.5298450000000  0.4236950000000 1.0
C      1  0.4455750000000  0.4794130000000  0.4260160000000 1.0
C      1  0.4440510000000  0.5192540000000  0.5742510000000 1.0
C      1  0.4760100000000  0.4241440000000  0.4486360000000 1.0
C      1  0.5244540000000  0.5714440000000  0.4480830000000 1.0
C      1  0.5244000000000  0.4268510000000  0.5522930000000 1.0
C      1  0.5630770000000  0.4525410000000  0.5266480000000 1.0
C      1  0.4242910000000  0.5564760000000  0.5201650000000 1.0
C      1  0.4279880000000  0.4462380000000  0.4773010000000 1.0
C      1  0.5436710000000  0.5687690000000  0.4730760000000 1.0
C      1  0.4788470000000  0.5550170000000  0.5738900000000 1.0
C      1  0.5642700000000  0.4768970000000  0.5501830000000 1.0
C      1  0.5447850000000  0.4293780000000  0.5276490000000 1.0
C      1  0.4471890000000  0.4268120000000  0.4757440000000 1.0
C      1  0.4431700000000  0.5754270000000  0.5201070000000 1.0
C      1  0.4774090000000  0.4440280000000  0.4274560000000 1.0
C      1  0.5236590000000  0.4479300000000  0.5718430000000 1.0
C      1  0.5251780000000  0.5527290000000  0.4266120000000 1.0
C      1  0.5675650000000  0.5244140000000  0.4429140000000 1.0
C      1  0.4247000000000  0.5188640000000  0.5557650000000 1.0
C      1  0.4247530000000  0.4794130000000  0.4466280000000 1.0
C      1  0.5168220000000  0.5088620000000  0.4046420000000 1.0
C      1  0.4943480000000  0.5993970000000  0.5092160000000 1.0
C      1  0.5982200000000  0.5085540000000  0.4899270000000 1.0
C      1  0.5142880000000  0.4907030000000  0.5992290000000 1.0
C      1  0.4945930000000  0.4014830000000  0.4898680000000 1.0
C      1  0.5159470000000  0.5951980000000  0.4904060000000 1.0
C      1  0.5153460000000  0.4059820000000  0.5095750000000 1.0
C      1  0.5964440000000  0.4866680000000  0.5096680000000 1.0
C      1  0.3981840000000  0.5087500000000  0.5096690000000 1.0
C      1  0.4006200000000  0.4882730000000  0.4901040000000 1.0
C      1  0.4952000000000  0.4900210000000  0.4011780000000 1.0
C      1  0.4937230000000  0.5104130000000  0.6011120000000 1.0
C      1  0.5054550000000  0.5024050000000  0.4938600000000 1.0
END
