TITL C-2441157-2117-31 0.065761618814913 125000 -19000.279026347 0 0 137 (C1) n - 1
REM
REM in /home/bkarasulu/work/CARBON/AIRSS/Generating-Clusters/ReaxFF-fromJPCA2015/Units_Real/with-SteepDescent/Higher-Symm
REM
REM
REM
REM
REM
REM ./C.cell (1df0a924f5614ab8850e4351716899ee)
REM
REM compiler GCC version 9.2.1 20190827 (Red Hat 9.2.1-1)
REM options -cpp -mtune=generic -march=x86-64 -g -O0 -fpre-include=/usr/include/finclude/math-vector-fortran.h
REM seed 1800071593 452452601 1855586550 -1282177050 -2008516528 233886755 -961532700 938473361 2113259104 219640620 -1889876544 -503243104 -377081758 -436468077 2073585189 239790347 1708645144 -176650241 1384632217 527480881 -1524986809 -981256763 1951506850 1163418679 -994902691 -465943739 -1178234281 -2057167397 -783593067 -1743267972 -1944253189 441704729 1763428406
REM
CELL 1.54180   50.00000   50.00000   50.00000   90.00000   90.00000   90.00000
LATT -1
SFAC C  
C      1  0.4962540000000  0.5063790000000  0.4119200000000 1.0
C      1  0.5525210000000  0.4897420000000  0.4309190000000 1.0
C      1  0.5647830000000  0.5135400000000  0.4933250000000 1.0
C      1  0.5655750000000  0.4919150000000  0.5582240000000 1.0
C      1  0.5109270000000  0.5082410000000  0.5859170000000 1.0
C      1  0.4495550000000  0.4942600000000  0.5515900000000 1.0
C      1  0.4159180000000  0.5119950000000  0.5157000000000 1.0
C      1  0.4371620000000  0.4922320000000  0.4477120000000 1.0
C      1  0.5736840000000  0.4498410000000  0.4679320000000 1.0
C      1  0.5774190000000  0.5525510000000  0.5299810000000 1.0
C      1  0.5295980000000  0.4490210000000  0.5700010000000 1.0
C      1  0.4745250000000  0.5543430000000  0.5799960000000 1.0
C      1  0.4239160000000  0.4463460000000  0.5334560000000 1.0
C      1  0.4239050000000  0.5472590000000  0.4701820000000 1.0
C      1  0.4553840000000  0.4577290000000  0.4285770000000 1.0
C      1  0.5299140000000  0.5517230000000  0.4246970000000 1.0
C      1  0.4474680000000  0.4119360000000  0.5329770000000 1.0
C      1  0.4409320000000  0.5808590000000  0.4867040000000 1.0
C      1  0.4706860000000  0.4198610000000  0.4448050000000 1.0
C      1  0.5154170000000  0.5894870000000  0.4367000000000 1.0
C      1  0.5549450000000  0.4137780000000  0.4666960000000 1.0
C      1  0.5618290000000  0.5875360000000  0.5172860000000 1.0
C      1  0.5354850000000  0.4104850000000  0.5564590000000 1.0
C      1  0.4865490000000  0.5902710000000  0.5632400000000 1.0
C      1  0.4914100000000  0.4189670000000  0.5607240000000 1.0
C      1  0.4522730000000  0.5793510000000  0.5375130000000 1.0
C      1  0.4381060000000  0.4174490000000  0.4900440000000 1.0
C      1  0.4636160000000  0.5799360000000  0.4496090000000 1.0
C      1  0.5118480000000  0.4225010000000  0.4432500000000 1.0
C      1  0.5513020000000  0.5815270000000  0.4643580000000 1.0
C      1  0.5615170000000  0.4191170000000  0.5101970000000 1.0
C      1  0.5331770000000  0.5779290000000  0.5502200000000 1.0
C      1  0.4609970000000  0.5766170000000  0.5655340000000 1.0
C      1  0.4266630000000  0.4216280000000  0.5158240000000 1.0
C      1  0.4369800000000  0.5731030000000  0.4593550000000 1.0
C      1  0.4902690000000  0.4343090000000  0.4286150000000 1.0
C      1  0.5415230000000  0.5768800000000  0.4372650000000 1.0
C      1  0.5738910000000  0.4247710000000  0.4846980000000 1.0
C      1  0.5612680000000  0.5739880000000  0.5422630000000 1.0
C      1  0.5160680000000  0.4235510000000  0.5725940000000 1.0
C      1  0.4816240000000  0.5157710000000  0.4566560000000 1.0
C      1  0.5185120000000  0.4881230000000  0.4851200000000 1.0
C      1  0.5252190000000  0.5341040000000  0.4865360000000 1.0
C      1  0.5415570000000  0.4794390000000  0.5260520000000 1.0
C      1  0.5068580000000  0.5120410000000  0.5301350000000 1.0
C      1  0.4887920000000  0.4693960000000  0.5258580000000 1.0
C      1  0.4697940000000  0.5135410000000  0.5013260000000 1.0
C      1  0.4615790000000  0.4764890000000  0.4846590000000 1.0
C      1  0.5618420000000  0.4388760000000  0.5290060000000 1.0
C      1  0.5176040000000  0.5540210000000  0.5524770000000 1.0
C      1  0.4719530000000  0.4392570000000  0.5614120000000 1.0
C      1  0.4410640000000  0.5576800000000  0.5222240000000 1.0
C      1  0.4356290000000  0.4376680000000  0.4712850000000 1.0
C      1  0.4776570000000  0.5603230000000  0.4353080000000 1.0
C      1  0.5251530000000  0.4478910000000  0.4511510000000 1.0
C      1  0.5667110000000  0.5621210000000  0.4788350000000 1.0
C      1  0.4616650000000  0.5021270000000  0.5910640000000 1.0
C      1  0.4033260000000  0.5113490000000  0.5422910000000 1.0
C      1  0.4073520000000  0.4956270000000  0.4545350000000 1.0
C      1  0.4678050000000  0.5040010000000  0.4031060000000 1.0
C      1  0.5427040000000  0.4845020000000  0.4040560000000 1.0
C      1  0.5898500000000  0.4988110000000  0.4630570000000 1.0
C      1  0.5900750000000  0.4982790000000  0.5429660000000 1.0
C      1  0.5372480000000  0.5121100000000  0.5980950000000 1.0
C      1  0.5110240000000  0.4708210000000  0.5644670000000 1.0
C      1  0.4685750000000  0.5261890000000  0.5754260000000 1.0
C      1  0.4278970000000  0.4727090000000  0.5241780000000 1.0
C      1  0.4121390000000  0.5232830000000  0.4621580000000 1.0
C      1  0.4607900000000  0.4784520000000  0.4142320000000 1.0
C      1  0.5325960000000  0.5260560000000  0.4350810000000 1.0
C      1  0.5705710000000  0.4781740000000  0.4736550000000 1.0
C      1  0.5774720000000  0.5234590000000  0.5329660000000 1.0
C      1  0.5530800000000  0.4374620000000  0.4516030000000 1.0
C      1  0.5761310000000  0.5675770000000  0.5048370000000 1.0
C      1  0.5504840000000  0.4351270000000  0.5542180000000 1.0
C      1  0.5004810000000  0.5664030000000  0.5725000000000 1.0
C      1  0.4451000000000  0.4336570000000  0.5514470000000 1.0
C      1  0.4246560000000  0.5601640000000  0.4979850000000 1.0
C      1  0.4484750000000  0.4364600000000  0.4454860000000 1.0
C      1  0.5030720000000  0.5660760000000  0.4247010000000 1.0
C      1  0.4735130000000  0.4136990000000  0.5171660000000 1.0
C      1  0.4698430000000  0.5782510000000  0.4952140000000 1.0
C      1  0.4791790000000  0.4038770000000  0.4672240000000 1.0
C      1  0.5073980000000  0.5976210000000  0.4642110000000 1.0
C      1  0.5325130000000  0.4013780000000  0.4794140000000 1.0
C      1  0.5370220000000  0.5974810000000  0.5082820000000 1.0
C      1  0.5220200000000  0.4009540000000  0.5318330000000 1.0
C      1  0.4924930000000  0.5999540000000  0.5365000000000 1.0
C      1  0.4685330000000  0.5350150000000  0.4393520000000 1.0
C      1  0.5050100000000  0.4611390000000  0.4294140000000 1.0
C      1  0.5574240000000  0.5357350000000  0.4739100000000 1.0
C      1  0.5652170000000  0.4646380000000  0.5193000000000 1.0
C      1  0.5383100000000  0.5327410000000  0.5545790000000 1.0
C      1  0.4832710000000  0.4646570000000  0.5654410000000 1.0
C      1  0.4435450000000  0.5358780000000  0.5405660000000 1.0
C      1  0.4355450000000  0.4641080000000  0.4831640000000 1.0
C      1  0.5165370000000  0.4946880000000  0.3948020000000 1.0
C      1  0.5777640000000  0.5034130000000  0.4358820000000 1.0
C      1  0.5903270000000  0.5027830000000  0.5018510000000 1.0
C      1  0.5619020000000  0.5030040000000  0.5847480000000 1.0
C      1  0.4886790000000  0.4972650000000  0.6016220000000 1.0
C      1  0.4226760000000  0.5010860000000  0.5618720000000 1.0
C      1  0.4021110000000  0.5003340000000  0.4940810000000 1.0
C      1  0.4328520000000  0.5070760000000  0.4243760000000 1.0
C      1  0.4941960000000  0.4046300000000  0.5363940000000 1.0
C      1  0.4706810000000  0.5921910000000  0.5205450000000 1.0
C      1  0.4630240000000  0.4045380000000  0.4907790000000 1.0
C      1  0.4803480000000  0.5913210000000  0.4706130000000 1.0
C      1  0.5081110000000  0.4027480000000  0.4638860000000 1.0
C      1  0.5314880000000  0.5958260000000  0.4801710000000 1.0
C      1  0.5376600000000  0.4032830000000  0.5077400000000 1.0
C      1  0.5204040000000  0.5961140000000  0.5315980000000 1.0
C      1  0.5904230000000  0.4800450000000  0.5196640000000 1.0
C      1  0.5513930000000  0.5301850000000  0.5803090000000 1.0
C      1  0.4739320000000  0.4754820000000  0.5899080000000 1.0
C      1  0.4200370000000  0.5297750000000  0.5571210000000 1.0
C      1  0.4096300000000  0.4775090000000  0.4798410000000 1.0
C      1  0.4523550000000  0.5261180000000  0.4167770000000 1.0
C      1  0.5192290000000  0.4670760000000  0.4044240000000 1.0
C      1  0.5777630000000  0.5241460000000  0.4551620000000 1.0
C      1  0.5292100000000  0.5014070000000  0.4473420000000 1.0
C      1  0.5477400000000  0.4914210000000  0.4854310000000 1.0
C      1  0.5504200000000  0.5104070000000  0.5389410000000 1.0
C      1  0.5126880000000  0.4988060000000  0.5581760000000 1.0
C      1  0.4653120000000  0.5185540000000  0.5483070000000 1.0
C      1  0.4435920000000  0.4963630000000  0.5201830000000 1.0
C      1  0.4589500000000  0.4994100000000  0.4668210000000 1.0
C      1  0.5002040000000  0.4953810000000  0.4388770000000 1.0
C      1  0.4841200000000  0.4565670000000  0.4841450000000 1.0
C      1  0.4980640000000  0.5347320000000  0.4777520000000 1.0
C      1  0.5117170000000  0.4625980000000  0.4759840000000 1.0
C      1  0.5265200000000  0.5332080000000  0.5147330000000 1.0
C      1  0.5170500000000  0.4661410000000  0.5237660000000 1.0
C      1  0.5000930000000  0.5419680000000  0.5243010000000 1.0
C      1  0.4834670000000  0.4454100000000  0.5109050000000 1.0
C      1  0.4801630000000  0.5425840000000  0.5000090000000 1.0
C      1  0.4934590000000  0.4965020000000  0.5072000000000 1.0
END
