TITL C-2441160-1326-694 0.0344901608861804 125000 -6118.24464028966 0 0 52 (C1) n - 1
REM
REM in /home/bkarasulu/work/CARBON/AIRSS/Generating-Clusters/ReaxFF-fromJPCA2015/Units_Real/with-SteepDescent/Higher-Symm
REM
REM
REM
REM
REM
REM ./C.cell (1df0a924f5614ab8850e4351716899ee)
REM
REM compiler GCC version 9.2.1 20190827 (Red Hat 9.2.1-1)
REM options -cpp -mtune=generic -march=x86-64 -g -O0 -fpre-include=/usr/include/finclude/math-vector-fortran.h
REM seed 1422749996 -2009516128 169488953 397674284 -2061998943 873179978 2104507584 -748521029 1294433820 364861788 -650584286 933571238 -1921215518 1487799508 773097244 -526716539 1611179425 1584870936 175833163 -2136180364 -714355955 -583252891 -684679096 1646098421 1941039108 -1053823933 357414153 788245932 -286251453 -1514676752 -292884023 1622918345 1762530632
REM
CELL 1.54180   50.00000   50.00000   50.00000   90.00000   90.00000   90.00000
LATT -1
SFAC C  
C      1  0.5263570000000  0.5173690000000  0.5545930000000 1.0
C      1  0.4711750000000  0.5155300000000  0.5547750000000 1.0
C      1  0.5004070000000  0.4689890000000  0.5548570000000 1.0
C      1  0.5395970000000  0.4638320000000  0.5057490000000 1.0
C      1  0.5109320000000  0.5542020000000  0.5059950000000 1.0
C      1  0.4469990000000  0.4841290000000  0.5058680000000 1.0
C      1  0.4675680000000  0.5505420000000  0.4824760000000 1.0
C      1  0.4715190000000  0.4488050000000  0.4824300000000 1.0
C      1  0.5611530000000  0.5039850000000  0.4831050000000 1.0
C      1  0.4811010000000  0.4782630000000  0.4381040000000 1.0
C      1  0.5280960000000  0.4962110000000  0.4352270000000 1.0
C      1  0.4897120000000  0.5285940000000  0.4374920000000 1.0
C      1  0.4920290000000  0.4854770000000  0.5771580000000 1.0
C      1  0.5166660000000  0.5015430000000  0.5771600000000 1.0
C      1  0.4899330000000  0.5150980000000  0.5771580000000 1.0
C      1  0.5628220000000  0.5162830000000  0.5093730000000 1.0
C      1  0.4543010000000  0.5465320000000  0.5076150000000 1.0
C      1  0.4820400000000  0.4397100000000  0.5088930000000 1.0
C      1  0.4907750000000  0.5280540000000  0.4769580000000 1.0
C      1  0.4789100000000  0.4773770000000  0.4773200000000 1.0
C      1  0.5210750000000  0.4932010000000  0.4742880000000 1.0
C      1  0.4680090000000  0.5201990000000  0.5077670000000 1.0
C      1  0.4982240000000  0.4644410000000  0.5086460000000 1.0
C      1  0.5321530000000  0.5179720000000  0.5063720000000 1.0
C      1  0.5486780000000  0.5413660000000  0.5175850000000 1.0
C      1  0.4391830000000  0.5232790000000  0.5178320000000 1.0
C      1  0.5101410000000  0.4372420000000  0.5180370000000 1.0
C      1  0.5330520000000  0.4500160000000  0.5307810000000 1.0
C      1  0.5266940000000  0.5550390000000  0.5306220000000 1.0
C      1  0.4384600000000  0.4971630000000  0.5309390000000 1.0
C      1  0.4823980000000  0.5480680000000  0.4586170000000 1.0
C      1  0.4667350000000  0.4615170000000  0.4574510000000 1.0
C      1  0.5476530000000  0.4932370000000  0.4615180000000 1.0
C      1  0.4585340000000  0.4890980000000  0.5505060000000 1.0
C      1  0.5296120000000  0.4716780000000  0.5506830000000 1.0
C      1  0.5095120000000  0.5415700000000  0.5511750000000 1.0
C      1  0.4812280000000  0.5399960000000  0.5417730000000 1.0
C      1  0.4743680000000  0.4642190000000  0.5412000000000 1.0
C      1  0.5431100000000  0.4972100000000  0.5409770000000 1.0
C      1  0.5329560000000  0.4906100000000  0.5149510000000 1.0
C      1  0.4910800000000  0.5350250000000  0.5157530000000 1.0
C      1  0.4737970000000  0.4773760000000  0.5161990000000 1.0
C      1  0.5191400000000  0.4663340000000  0.4836060000000 1.0
C      1  0.5182510000000  0.5358800000000  0.4830620000000 1.0
C      1  0.4599980000000  0.4996110000000  0.4832080000000 1.0
C      1  0.5110500000000  0.4696320000000  0.4355860000000 1.0
C      1  0.5211530000000  0.5262410000000  0.4352640000000 1.0
C      1  0.4678920000000  0.5068700000000  0.4366590000000 1.0
C      1  0.5338400000000  0.5419300000000  0.4554430000000 1.0
C      1  0.4468180000000  0.5098120000000  0.4559480000000 1.0
C      1  0.5179120000000  0.4502960000000  0.4552930000000 1.0
C      1  0.5008230000000  0.5007660000000  0.4572630000000 1.0
END
