TITL C-2441165-58-1442 0.112620901557706 125000 -22176.5375252854 0 0 167 (C1) n - 1
REM
REM in /home/bkarasulu/work/CARBON/AIRSS/Generating-Clusters/ReaxFF-fromJPCA2015/Units_Real/with-SteepDescent/Higher-Symm
REM
REM
REM
REM
REM
REM ./C.cell (1df0a924f5614ab8850e4351716899ee)
REM
REM compiler GCC version 9.2.1 20190827 (Red Hat 9.2.1-1)
REM options -cpp -mtune=generic -march=x86-64 -g -O0 -fpre-include=/usr/include/finclude/math-vector-fortran.h
REM seed -199431829 2134310310 788173117 2069960067 -1339693088 744830356 -265514938 871994532 -23727901 30374160 1295870205 45992266 -211689660 -1301827972 -973854643 375319658 -932163465 1734825384 1051324313 140055118 1083090112 -2130123351 1183788324 -1842916157 1147936633 -2119229970 1558195224 936913306 -1645638878 -1814580560 -1403486132 1914684876 922196662
REM
CELL 1.54180   50.00000   50.00000   50.00000   90.00000   90.00000   90.00000
LATT -1
SFAC C  
C      1  0.4976540000000  0.4350950000000  0.5990450000000 1.0
C      1  0.4969250000000  0.5646820000000  0.4034750000000 1.0
C      1  0.5387720000000  0.5963550000000  0.5008610000000 1.0
C      1  0.4618990000000  0.4020530000000  0.5004200000000 1.0
C      1  0.4621440000000  0.5463480000000  0.5335060000000 1.0
C      1  0.5384570000000  0.4564610000000  0.4768200000000 1.0
C      1  0.4200510000000  0.4400200000000  0.5342040000000 1.0
C      1  0.5816010000000  0.5603260000000  0.4637360000000 1.0
C      1  0.4561470000000  0.5339450000000  0.4160850000000 1.0
C      1  0.5439680000000  0.4662880000000  0.5839000000000 1.0
C      1  0.4751070000000  0.4098590000000  0.5250700000000 1.0
C      1  0.5186540000000  0.5915490000000  0.4805990000000 1.0
C      1  0.5134800000000  0.4461440000000  0.5330410000000 1.0
C      1  0.4867450000000  0.5562350000000  0.4712980000000 1.0
C      1  0.4426770000000  0.4896240000000  0.5891460000000 1.0
C      1  0.5573590000000  0.5130940000000  0.4097070000000 1.0
C      1  0.4623240000000  0.5605810000000  0.4274790000000 1.0
C      1  0.5407880000000  0.4407100000000  0.5709240000000 1.0
C      1  0.5210100000000  0.5104630000000  0.4328590000000 1.0
C      1  0.4771710000000  0.4886320000000  0.5679480000000 1.0
C      1  0.5213840000000  0.5863750000000  0.5222760000000 1.0
C      1  0.4794690000000  0.4150500000000  0.4794670000000 1.0
C      1  0.6111150000000  0.5204420000000  0.4891530000000 1.0
C      1  0.3899660000000  0.4873220000000  0.5124420000000 1.0
C      1  0.5064540000000  0.5798450000000  0.4396140000000 1.0
C      1  0.4929660000000  0.4192640000000  0.5614730000000 1.0
C      1  0.5640500000000  0.5838810000000  0.5091230000000 1.0
C      1  0.4366240000000  0.4118540000000  0.4898460000000 1.0
C      1  0.5771730000000  0.5260160000000  0.5230850000000 1.0
C      1  0.4273510000000  0.4630680000000  0.4660970000000 1.0
C      1  0.5905000000000  0.4762310000000  0.5475780000000 1.0
C      1  0.4130340000000  0.5235060000000  0.4495990000000 1.0
C      1  0.4774410000000  0.4680160000000  0.5876410000000 1.0
C      1  0.5213260000000  0.5331420000000  0.4155960000000 1.0
C      1  0.4463830000000  0.4418180000000  0.5490720000000 1.0
C      1  0.5565680000000  0.5624020000000  0.4457210000000 1.0
C      1  0.4974210000000  0.5364920000000  0.3990490000000 1.0
C      1  0.5027940000000  0.4625970000000  0.6012070000000 1.0
C      1  0.5570010000000  0.4182090000000  0.4993850000000 1.0
C      1  0.4415730000000  0.5793380000000  0.5011410000000 1.0
C      1  0.4069270000000  0.5442220000000  0.5270200000000 1.0
C      1  0.5804050000000  0.4393850000000  0.4640300000000 1.0
C      1  0.4288830000000  0.4233000000000  0.5139810000000 1.0
C      1  0.5703980000000  0.5771830000000  0.4827570000000 1.0
C      1  0.4615520000000  0.4997930000000  0.4996140000000 1.0
C      1  0.5508820000000  0.4970320000000  0.5021650000000 1.0
C      1  0.6116140000000  0.4981940000000  0.4688270000000 1.0
C      1  0.3993410000000  0.5121020000000  0.5263820000000 1.0
C      1  0.4395210000000  0.5129970000000  0.4623630000000 1.0
C      1  0.5684230000000  0.4919440000000  0.5543010000000 1.0
C      1  0.5480870000000  0.5662480000000  0.4179800000000 1.0
C      1  0.4510810000000  0.4364680000000  0.5775770000000 1.0
C      1  0.4999690000000  0.4671580000000  0.4556340000000 1.0
C      1  0.5060150000000  0.5365950000000  0.5351650000000 1.0
C      1  0.5169220000000  0.4460600000000  0.4160950000000 1.0
C      1  0.4845640000000  0.5550120000000  0.5836160000000 1.0
C      1  0.5139350000000  0.4739020000000  0.4056300000000 1.0
C      1  0.4867950000000  0.5269610000000  0.5929300000000 1.0
C      1  0.5374670000000  0.4049350000000  0.4787700000000 1.0
C      1  0.4574890000000  0.5918400000000  0.5221020000000 1.0
C      1  0.4583430000000  0.5234300000000  0.4424920000000 1.0
C      1  0.5440620000000  0.4788160000000  0.5536470000000 1.0
C      1  0.5235130000000  0.4944720000000  0.5644780000000 1.0
C      1  0.4748540000000  0.5033940000000  0.4325640000000 1.0
C      1  0.5233940000000  0.4004040000000  0.5267300000000 1.0
C      1  0.4763690000000  0.5991370000000  0.4712910000000 1.0
C      1  0.5353480000000  0.5495330000000  0.4610060000000 1.0
C      1  0.4682040000000  0.4546800000000  0.5335050000000 1.0
C      1  0.4971710000000  0.3995210000000  0.5401110000000 1.0
C      1  0.5028030000000  0.6002660000000  0.4576980000000 1.0
C      1  0.5582740000000  0.5161650000000  0.5640450000000 1.0
C      1  0.4474610000000  0.4837710000000  0.4309950000000 1.0
C      1  0.4752620000000  0.5927310000000  0.5464250000000 1.0
C      1  0.5209860000000  0.4091200000000  0.4533940000000 1.0
C      1  0.5306870000000  0.4950060000000  0.4819340000000 1.0
C      1  0.4703560000000  0.4998860000000  0.5251430000000 1.0
C      1  0.4048470000000  0.5483910000000  0.4812440000000 1.0
C      1  0.5924790000000  0.4517370000000  0.5143840000000 1.0
C      1  0.4415120000000  0.4851090000000  0.4583490000000 1.0
C      1  0.5514130000000  0.5242720000000  0.5374160000000 1.0
C      1  0.5863450000000  0.4863200000000  0.4764840000000 1.0
C      1  0.4287130000000  0.5087750000000  0.5197560000000 1.0
C      1  0.5487820000000  0.4681630000000  0.5047440000000 1.0
C      1  0.4456830000000  0.5223560000000  0.4917420000000 1.0
C      1  0.5319890000000  0.4297780000000  0.4362460000000 1.0
C      1  0.4680020000000  0.5717980000000  0.5657590000000 1.0
C      1  0.5444830000000  0.5320890000000  0.4804850000000 1.0
C      1  0.4521510000000  0.4620700000000  0.5112930000000 1.0
C      1  0.5132840000000  0.5586500000000  0.5813900000000 1.0
C      1  0.4881910000000  0.4404410000000  0.4161880000000 1.0
C      1  0.4302590000000  0.4800110000000  0.5160340000000 1.0
C      1  0.5679280000000  0.5138060000000  0.4823340000000 1.0
C      1  0.5385570000000  0.4808990000000  0.4587300000000 1.0
C      1  0.4620310000000  0.5203610000000  0.5434950000000 1.0
C      1  0.4656110000000  0.5078790000000  0.5847810000000 1.0
C      1  0.5345450000000  0.4947260000000  0.4137570000000 1.0
C      1  0.5236800000000  0.4859550000000  0.5934210000000 1.0
C      1  0.4769640000000  0.5141310000000  0.4043140000000 1.0
C      1  0.4489680000000  0.4610220000000  0.5934520000000 1.0
C      1  0.5479260000000  0.5402820000000  0.4046770000000 1.0
C      1  0.3968300000000  0.5201320000000  0.4730270000000 1.0
C      1  0.6013570000000  0.4798920000000  0.5208570000000 1.0
C      1  0.4431240000000  0.5673230000000  0.4501170000000 1.0
C      1  0.5591230000000  0.4326200000000  0.5491030000000 1.0
C      1  0.4882960000000  0.4369370000000  0.5205660000000 1.0
C      1  0.5149850000000  0.5606990000000  0.4800500000000 1.0
C      1  0.4818010000000  0.4487320000000  0.4437180000000 1.0
C      1  0.5193230000000  0.5534290000000  0.5534230000000 1.0
C      1  0.4858530000000  0.5493970000000  0.5168950000000 1.0
C      1  0.5107570000000  0.4522560000000  0.4773320000000 1.0
C      1  0.5884270000000  0.5364260000000  0.4807780000000 1.0
C      1  0.4068760000000  0.4637570000000  0.5194880000000 1.0
C      1  0.4939530000000  0.4844360000000  0.5245240000000 1.0
C      1  0.4964480000000  0.5171690000000  0.4756870000000 1.0
C      1  0.6017560000000  0.5120540000000  0.4438600000000 1.0
C      1  0.4013970000000  0.4913380000000  0.5521330000000 1.0
C      1  0.5524650000000  0.4364630000000  0.4566220000000 1.0
C      1  0.4452380000000  0.5627650000000  0.5497610000000 1.0
C      1  0.5855690000000  0.4670660000000  0.4547790000000 1.0
C      1  0.4218810000000  0.5448820000000  0.5515360000000 1.0
C      1  0.5348070000000  0.5403670000000  0.5913150000000 1.0
C      1  0.4675790000000  0.4594890000000  0.4041440000000 1.0
C      1  0.5942740000000  0.5390670000000  0.5386630000000 1.0
C      1  0.4053770000000  0.4695000000000  0.4706120000000 1.0
C      1  0.4400150000000  0.4210620000000  0.4594890000000 1.0
C      1  0.5633960000000  0.5709280000000  0.5362630000000 1.0
C      1  0.4341630000000  0.5176210000000  0.5495260000000 1.0
C      1  0.5628670000000  0.4822650000000  0.4424400000000 1.0
C      1  0.4641120000000  0.4366890000000  0.4656690000000 1.0
C      1  0.5364170000000  0.5744220000000  0.5445430000000 1.0
C      1  0.4272900000000  0.4450490000000  0.4464400000000 1.0
C      1  0.5779250000000  0.5549790000000  0.5557060000000 1.0
C      1  0.4659550000000  0.4582010000000  0.4868930000000 1.0
C      1  0.5274820000000  0.5408070000000  0.5004720000000 1.0
C      1  0.5739740000000  0.5084850000000  0.4338570000000 1.0
C      1  0.4230440000000  0.4841720000000  0.5688620000000 1.0
C      1  0.5205050000000  0.5777500000000  0.4135300000000 1.0
C      1  0.4760180000000  0.4218370000000  0.5858740000000 1.0
C      1  0.5352690000000  0.4630210000000  0.5283240000000 1.0
C      1  0.4758490000000  0.5347380000000  0.4874130000000 1.0
C      1  0.5170400000000  0.4042040000000  0.4987750000000 1.0
C      1  0.4901800000000  0.5986370000000  0.4966360000000 1.0
C      1  0.4430140000000  0.4576890000000  0.4224770000000 1.0
C      1  0.5618230000000  0.5406840000000  0.5781300000000 1.0
C      1  0.5829190000000  0.4482850000000  0.5417990000000 1.0
C      1  0.4184720000000  0.5519810000000  0.4546880000000 1.0
C      1  0.4996790000000  0.4303510000000  0.4924180000000 1.0
C      1  0.4960290000000  0.5761610000000  0.5135610000000 1.0
C      1  0.4651890000000  0.4033500000000  0.4434720000000 1.0
C      1  0.5258060000000  0.6022990000000  0.5620700000000 1.0
C      1  0.4176080000000  0.5593190000000  0.5052880000000 1.0
C      1  0.5799270000000  0.4351030000000  0.4930700000000 1.0
C      1  0.4518710000000  0.5830460000000  0.4729010000000 1.0
C      1  0.5488090000000  0.4158020000000  0.5275130000000 1.0
C      1  0.4989450000000  0.5006040000000  0.4501570000000 1.0
C      1  0.5000210000000  0.4921520000000  0.5511370000000 1.0
C      1  0.3937640000000  0.4916580000000  0.4834860000000 1.0
C      1  0.5998190000000  0.5082780000000  0.5132740000000 1.0
C      1  0.5136890000000  0.4399280000000  0.5593730000000 1.0
C      1  0.4881640000000  0.5589200000000  0.4429460000000 1.0
C      1  0.5150680000000  0.5197650000000  0.5958190000000 1.0
C      1  0.4862110000000  0.4819290000000  0.4011310000000 1.0
C      1  0.5034510000000  0.6031370000000  0.5457790000000 1.0
C      1  0.4907320000000  0.4003690000000  0.4538830000000 1.0
C      1  0.5267310000000  0.5221740000000  0.5227510000000 1.0
C      1  0.4770120000000  0.4826420000000  0.4846990000000 1.0
C      1  0.5039500000000  0.4945590000000  0.4943700000000 1.0
END
