TITL C-2441167-4473-1145 0.00475200872314237 125000 -2697.77609472442 0 0 21 (C1) n - 1
REM
REM in /home/bkarasulu/work/CARBON/AIRSS/Generating-Clusters/ReaxFF-fromJPCA2015/Units_Real/with-SteepDescent/Higher-Symm
REM
REM
REM
REM
REM
REM ./C.cell (1df0a924f5614ab8850e4351716899ee)
REM
REM compiler GCC version 9.2.1 20190827 (Red Hat 9.2.1-1)
REM options -cpp -mtune=generic -march=x86-64 -g -O0 -fpre-include=/usr/include/finclude/math-vector-fortran.h
REM seed -473949985 2012200468 1852584937 -1797302125 247516493 686680797 1645603696 -693439215 1669900415 -956031319 544185167 42240164 -392218799 1571647497 -171269493 -1153875530 -864509693 1595814476 -700514566 1465127517 -2038787004 94701673 -271939589 -554899640 -1608254143 -36317019 947343155 -853558934 -910344944 -1111068580 916024076 -2107046740 424035412
REM
CELL 1.54180   50.00000   50.00000   50.00000   90.00000   90.00000   90.00000
LATT -1
SFAC C  
C      1  0.5363740000000  0.5290030000000  0.4656620000000 1.0
C      1  0.5333320000000  0.4607850000000  0.4636700000000 1.0
C      1  0.4590040000000  0.4549940000000  0.4612230000000 1.0
C      1  0.4591700000000  0.5405360000000  0.4626580000000 1.0
C      1  0.5268210000000  0.4651330000000  0.5257110000000 1.0
C      1  0.5492640000000  0.5232690000000  0.5349000000000 1.0
C      1  0.4770520000000  0.5448030000000  0.5262490000000 1.0
C      1  0.4506940000000  0.4741720000000  0.5238610000000 1.0
C      1  0.4568100000000  0.5354860000000  0.4862760000000 1.0
C      1  0.5432570000000  0.5289020000000  0.4903740000000 1.0
C      1  0.5412060000000  0.4687250000000  0.4852250000000 1.0
C      1  0.4657190000000  0.4563300000000  0.4843250000000 1.0
C      1  0.4730360000000  0.4582050000000  0.5109980000000 1.0
C      1  0.5499670000000  0.4776580000000  0.5097820000000 1.0
C      1  0.5289480000000  0.5371590000000  0.5164060000000 1.0
C      1  0.4541590000000  0.5297110000000  0.5131600000000 1.0
C      1  0.4617730000000  0.5001980000000  0.5130380000000 1.0
C      1  0.5008060000000  0.5280460000000  0.5188920000000 1.0
C      1  0.5565190000000  0.5067840000000  0.5113590000000 1.0
C      1  0.5000740000000  0.4733580000000  0.5157970000000 1.0
C      1  0.4910440000000  0.5007270000000  0.5119310000000 1.0
END
