TITL C-2441169-1362-841 0.00439331516487036 125000 -7348.09232484803 0 0 52 (C4) n - 1
REM
REM in /home/bkarasulu/work/CARBON/AIRSS/Generating-Clusters/ReaxFF-fromJPCA2015/Units_Real/with-SteepDescent/Higher-Symm
REM
REM
REM
REM
REM
REM ./C.cell (1df0a924f5614ab8850e4351716899ee)
REM
REM compiler GCC version 9.2.1 20190827 (Red Hat 9.2.1-1)
REM options -cpp -mtune=generic -march=x86-64 -g -O0 -fpre-include=/usr/include/finclude/math-vector-fortran.h
REM seed 1665269715 867767160 -1154341764 -456514000 -1475871338 88545967 -482197472 553763203 523258098 218911685 -431428757 1239129596 -1163323659 -1177100998 1457061989 -728988955 -1924777289 -728932148 -1238995584 -475297037 1978287583 486651159 -1414516141 -1963002700 -1639802275 -2067607115 -576372172 376326107 -540200552 -2063084105 -1568334899 1028329108 1689603641
REM
CELL 1.54180   50.00000   50.00000   50.00000   90.00000   90.00000   90.00000
LATT -1
SFAC C  
C      1  0.5426400000000  0.5209050000000  0.5009020000000 1.0
C      1  0.5426330000000  0.5009020000000  0.4791020000000 1.0
C      1  0.5426350000000  0.4790930000000  0.4990990000000 1.0
C      1  0.5426760000000  0.4990980000000  0.5209030000000 1.0
C      1  0.5418040000000  0.4488520000000  0.4965090000000 1.0
C      1  0.5419370000000  0.4965160000000  0.5511430000000 1.0
C      1  0.5418130000000  0.5511440000000  0.5034860000000 1.0
C      1  0.5419240000000  0.5034940000000  0.4488520000000 1.0
C      1  0.5155730000000  0.4568640000000  0.5522230000000 1.0
C      1  0.5153950000000  0.5523320000000  0.5432550000000 1.0
C      1  0.5155870000000  0.5431380000000  0.4478120000000 1.0
C      1  0.5153920000000  0.4476660000000  0.4567530000000 1.0
C      1  0.4833670000000  0.5759310000000  0.4718150000000 1.0
C      1  0.4833260000000  0.4720670000000  0.4240680000000 1.0
C      1  0.4833700000000  0.4240820000000  0.5282000000000 1.0
C      1  0.4833250000000  0.5279370000000  0.5759190000000 1.0
C      1  0.4932550000000  0.4994660000000  0.5728050000000 1.0
C      1  0.4931900000000  0.5729830000000  0.5004060000000 1.0
C      1  0.4932620000000  0.5005310000000  0.4271440000000 1.0
C      1  0.4931810000000  0.4270240000000  0.4996070000000 1.0
C      1  0.4468420000000  0.5396660000000  0.4952320000000 1.0
C      1  0.4468230000000  0.4952200000000  0.4603260000000 1.0
C      1  0.4468420000000  0.4603490000000  0.5047610000000 1.0
C      1  0.4468120000000  0.5047930000000  0.5396640000000 1.0
C      1  0.4457190000000  0.5185360000000  0.4763850000000 1.0
C      1  0.4456800000000  0.4762330000000  0.4813330000000 1.0
C      1  0.4457250000000  0.4814670000000  0.5236130000000 1.0
C      1  0.4456960000000  0.5237830000000  0.5186560000000 1.0
C      1  0.4874880000000  0.4829740000000  0.4871630000000 1.0
C      1  0.4875110000000  0.4871800000000  0.5168730000000 1.0
C      1  0.4874630000000  0.5169790000000  0.5129260000000 1.0
C      1  0.4875250000000  0.5128210000000  0.4831490000000 1.0
C      1  0.4665150000000  0.5648180000000  0.4922860000000 1.0
C      1  0.4665350000000  0.4925710000000  0.4351840000000 1.0
C      1  0.4665060000000  0.4351910000000  0.5077320000000 1.0
C      1  0.4665200000000  0.5074440000000  0.5648010000000 1.0
C      1  0.5207580000000  0.5099610000000  0.5682060000000 1.0
C      1  0.5207550000000  0.5683100000000  0.4900140000000 1.0
C      1  0.5207590000000  0.4900400000000  0.4317660000000 1.0
C      1  0.5207470000000  0.4316970000000  0.5099950000000 1.0
C      1  0.5433960000000  0.4405630000000  0.4685670000000 1.0
C      1  0.5436190000000  0.4685770000000  0.5594460000000 1.0
C      1  0.5434070000000  0.5594420000000  0.5314350000000 1.0
C      1  0.5436280000000  0.5314060000000  0.4405440000000 1.0
C      1  0.5111480000000  0.4624210000000  0.4306440000000 1.0
C      1  0.5112570000000  0.4306850000000  0.5376720000000 1.0
C      1  0.5111510000000  0.5375840000000  0.5693570000000 1.0
C      1  0.5112530000000  0.5693190000000  0.4623410000000 1.0
C      1  0.5014620000000  0.5278320000000  0.4654380000000 1.0
C      1  0.5013640000000  0.4653900000000  0.4720740000000 1.0
C      1  0.5014590000000  0.4721120000000  0.5344830000000 1.0
C      1  0.5013490000000  0.5346110000000  0.5279320000000 1.0
END
