TITL C-2441161-5029-805 0.0344945914509539 125000 -17241.135639811 0 0 126 (C1) n - 1
REM
REM in /home/bkarasulu/work/CARBON/AIRSS/Generating-Clusters/ReaxFF-fromJPCA2015/Units_Real/with-SteepDescent/Higher-Symm
REM
REM
REM
REM
REM
REM ./C.cell (1df0a924f5614ab8850e4351716899ee)
REM
REM compiler GCC version 9.2.1 20190827 (Red Hat 9.2.1-1)
REM options -cpp -mtune=generic -march=x86-64 -g -O0 -fpre-include=/usr/include/finclude/math-vector-fortran.h
REM seed 1256506775 1858655746 1916812320 379102805 -2143089583 2029007431 1263849251 -1012646963 2128483460 -1260886525 -1673246883 556372734 -305182192 848291074 272262943 1380158219 -581738433 673704612 1771627287 442156987 756743548 1397392795 -1116030887 165642372 -610562327 -823603344 -1197524061 2088221987 2033757406 -1730279924 -1977458094 707004002 -1191458760
REM
CELL 1.54180   50.00000   50.00000   50.00000   90.00000   90.00000   90.00000
LATT -1
SFAC C  
C      1  0.4419300000000  0.5669460000000  0.5330680000000 1.0
C      1  0.4150460000000  0.5249280000000  0.5330630000000 1.0
C      1  0.4150480000000  0.4748640000000  0.5337070000000 1.0
C      1  0.4420220000000  0.4324410000000  0.5334780000000 1.0
C      1  0.4874100000000  0.4108060000000  0.5333490000000 1.0
C      1  0.5381930000000  0.4177530000000  0.5330530000000 1.0
C      1  0.5749580000000  0.4525890000000  0.5336110000000 1.0
C      1  0.5896650000000  0.5009210000000  0.5335440000000 1.0
C      1  0.5760130000000  0.5493760000000  0.5336730000000 1.0
C      1  0.5371140000000  0.5815090000000  0.5337170000000 1.0
C      1  0.4872350000000  0.5880040000000  0.5339980000000 1.0
C      1  0.4815950000000  0.5789090000000  0.4334480000000 1.0
C      1  0.4497420000000  0.5466210000000  0.4196240000000 1.0
C      1  0.4273870000000  0.5128150000000  0.4264020000000 1.0
C      1  0.4354800000000  0.4728290000000  0.4237240000000 1.0
C      1  0.4625520000000  0.4278890000000  0.4241920000000 1.0
C      1  0.4910440000000  0.4223380000000  0.4306720000000 1.0
C      1  0.5362500000000  0.4478650000000  0.4309460000000 1.0
C      1  0.5704160000000  0.4703200000000  0.4330660000000 1.0
C      1  0.5625510000000  0.5103300000000  0.4322540000000 1.0
C      1  0.5590050000000  0.5583650000000  0.4272150000000 1.0
C      1  0.5180430000000  0.5629580000000  0.4300470000000 1.0
C      1  0.4181710000000  0.4469480000000  0.5365340000000 1.0
C      1  0.4596930000000  0.4105400000000  0.5364300000000 1.0
C      1  0.5146220000000  0.4023630000000  0.5366090000000 1.0
C      1  0.5645070000000  0.4266250000000  0.5372370000000 1.0
C      1  0.5937320000000  0.4732320000000  0.5366860000000 1.0
C      1  0.5945990000000  0.5285340000000  0.5365720000000 1.0
C      1  0.5644940000000  0.5749470000000  0.5359950000000 1.0
C      1  0.5138260000000  0.5968240000000  0.5369110000000 1.0
C      1  0.4592190000000  0.5888680000000  0.5360380000000 1.0
C      1  0.4177560000000  0.5527880000000  0.5353090000000 1.0
C      1  0.4024990000000  0.4999710000000  0.5360130000000 1.0
C      1  0.4903880000000  0.5338950000000  0.5399650000000 1.0
C      1  0.4639540000000  0.5249590000000  0.5543980000000 1.0
C      1  0.4556560000000  0.4970750000000  0.5565780000000 1.0
C      1  0.4676170000000  0.4744410000000  0.5423010000000 1.0
C      1  0.4867290000000  0.4553250000000  0.5525920000000 1.0
C      1  0.5116020000000  0.4536860000000  0.5376710000000 1.0
C      1  0.5317280000000  0.4649130000000  0.5555490000000 1.0
C      1  0.5458320000000  0.4908730000000  0.5563850000000 1.0
C      1  0.5412710000000  0.5155380000000  0.5414970000000 1.0
C      1  0.5337460000000  0.5368330000000  0.5593070000000 1.0
C      1  0.5075660000000  0.5479120000000  0.5580960000000 1.0
C      1  0.4430750000000  0.4118450000000  0.5135140000000 1.0
C      1  0.4993140000000  0.3950570000000  0.5132480000000 1.0
C      1  0.5575980000000  0.4112760000000  0.5138370000000 1.0
C      1  0.5945900000000  0.4564380000000  0.5136370000000 1.0
C      1  0.6037880000000  0.5149430000000  0.5133000000000 1.0
C      1  0.5795580000000  0.5680450000000  0.5127680000000 1.0
C      1  0.5297300000000  0.6005450000000  0.5138340000000 1.0
C      1  0.4714680000000  0.5998980000000  0.5131780000000 1.0
C      1  0.4219740000000  0.5685940000000  0.5123450000000 1.0
C      1  0.3968430000000  0.5151650000000  0.5129500000000 1.0
C      1  0.4044090000000  0.4567060000000  0.5139460000000 1.0
C      1  0.5539830000000  0.5189520000000  0.4607840000000 1.0
C      1  0.5298550000000  0.5439160000000  0.4725980000000 1.0
C      1  0.5053660000000  0.5589510000000  0.4591950000000 1.0
C      1  0.4719220000000  0.5484000000000  0.4681400000000 1.0
C      1  0.4493120000000  0.5267140000000  0.4690370000000 1.0
C      1  0.4437920000000  0.4875560000000  0.4732840000000 1.0
C      1  0.4538610000000  0.4619490000000  0.4670360000000 1.0
C      1  0.4797910000000  0.4494940000000  0.4730190000000 1.0
C      1  0.5193840000000  0.4453260000000  0.4746930000000 1.0
C      1  0.5421750000000  0.4579350000000  0.4605750000000 1.0
C      1  0.5546420000000  0.4915680000000  0.4719420000000 1.0
C      1  0.4920110000000  0.4527520000000  0.5814590000000 1.0
C      1  0.5226450000000  0.4588470000000  0.5823370000000 1.0
C      1  0.5378680000000  0.4766180000000  0.6008520000000 1.0
C      1  0.5487320000000  0.4990940000000  0.5839180000000 1.0
C      1  0.5410300000000  0.5284730000000  0.5864790000000 1.0
C      1  0.5173900000000  0.5397050000000  0.5968180000000 1.0
C      1  0.4946070000000  0.5496550000000  0.5841860000000 1.0
C      1  0.4656060000000  0.5378160000000  0.5805190000000 1.0
C      1  0.4539850000000  0.5158540000000  0.5931900000000 1.0
C      1  0.4503120000000  0.4883670000000  0.5860050000000 1.0
C      1  0.4704890000000  0.4684630000000  0.5881010000000 1.0
C      1  0.5126190000000  0.4541080000000  0.5085740000000 1.0
C      1  0.5314910000000  0.4716980000000  0.5066470000000 1.0
C      1  0.5459280000000  0.4928480000000  0.4992500000000 1.0
C      1  0.5406810000000  0.5173580000000  0.5137950000000 1.0
C      1  0.5237940000000  0.5371850000000  0.5011660000000 1.0
C      1  0.4983860000000  0.5421190000000  0.5133720000000 1.0
C      1  0.4768360000000  0.5398490000000  0.4962550000000 1.0
C      1  0.4556030000000  0.5211940000000  0.4973200000000 1.0
C      1  0.4526710000000  0.4935890000000  0.4996150000000 1.0
C      1  0.4675060000000  0.4743480000000  0.5144190000000 1.0
C      1  0.4863870000000  0.4594680000000  0.4995040000000 1.0
C      1  0.4305960000000  0.5343380000000  0.4167660000000 1.0
C      1  0.4395350000000  0.4953290000000  0.4159310000000 1.0
C      1  0.4455140000000  0.4489250000000  0.4242780000000 1.0
C      1  0.4856720000000  0.4456020000000  0.4166390000000 1.0
C      1  0.5124140000000  0.4364260000000  0.4201970000000 1.0
C      1  0.5539980000000  0.4613660000000  0.4148210000000 1.0
C      1  0.5638900000000  0.4878650000000  0.4167510000000 1.0
C      1  0.5619850000000  0.5333080000000  0.4157250000000 1.0
C      1  0.5377880000000  0.5487540000000  0.4142290000000 1.0
C      1  0.4951450000000  0.5679620000000  0.4150110000000 1.0
C      1  0.4663330000000  0.5682820000000  0.4168290000000 1.0
C      1  0.5856190000000  0.4598460000000  0.4858630000000 1.0
C      1  0.5937420000000  0.5124740000000  0.4858290000000 1.0
C      1  0.5719020000000  0.5598290000000  0.4855580000000 1.0
C      1  0.5279190000000  0.5904900000000  0.4862290000000 1.0
C      1  0.4750810000000  0.5905310000000  0.4855810000000 1.0
C      1  0.4289570000000  0.5627060000000  0.4845870000000 1.0
C      1  0.4055660000000  0.5135800000000  0.4851200000000 1.0
C      1  0.4117050000000  0.4603860000000  0.4859960000000 1.0
C      1  0.4479060000000  0.4197390000000  0.4858480000000 1.0
C      1  0.4988990000000  0.4048510000000  0.4858020000000 1.0
C      1  0.5528070000000  0.4185310000000  0.4859280000000 1.0
C      1  0.5643030000000  0.4427290000000  0.4756110000000 1.0
C      1  0.5828050000000  0.4871260000000  0.4770020000000 1.0
C      1  0.5761420000000  0.5327490000000  0.4755020000000 1.0
C      1  0.5457060000000  0.5687970000000  0.4771410000000 1.0
C      1  0.5019600000000  0.5841640000000  0.4754300000000 1.0
C      1  0.4552790000000  0.5719400000000  0.4751550000000 1.0
C      1  0.4218560000000  0.5359290000000  0.4748660000000 1.0
C      1  0.4151350000000  0.4875470000000  0.4764490000000 1.0
C      1  0.4340240000000  0.4439910000000  0.4765240000000 1.0
C      1  0.4755790000000  0.4201210000000  0.4772140000000 1.0
C      1  0.5243060000000  0.4170260000000  0.4765080000000 1.0
C      1  0.4992570000000  0.5007510000000  0.5116900000000 1.0
C      1  0.4999020000000  0.4998940000000  0.4370350000000 1.0
C      1  0.5002680000000  0.5010550000000  0.5386190000000 1.0
C      1  0.4986780000000  0.5004360000000  0.4868460000000 1.0
C      1  0.4991240000000  0.5001090000000  0.4612500000000 1.0
END
