TITL C-2441154-10-1290 0.000886280013915668 125000 -2517.30340659377 0 0 19 (C1) n - 1
REM
REM in /home/bkarasulu/work/CARBON/AIRSS/Generating-Clusters/ReaxFF-fromJPCA2015/Units_Real/with-SteepDescent/Higher-Symm
REM
REM
REM
REM
REM
REM ./C.cell (1df0a924f5614ab8850e4351716899ee)
REM
REM compiler GCC version 9.2.1 20190827 (Red Hat 9.2.1-1)
REM options -cpp -mtune=generic -march=x86-64 -g -O0 -fpre-include=/usr/include/finclude/math-vector-fortran.h
REM seed -1119808681 2060006889 -342793284 -1488796582 1994966268 -417690333 -1666337490 -1272393678 -877738845 -2111650861 1279906439 -904406291 777183835 -822426731 1504141838 -2104368184 -1294440976 216540501 992443535 567040470 -1375544557 99745412 -1845256006 -1138727331 306604467 -1840380994 1764560281 -147128244 -284935857 578065486 -1624909984 1092059425 -479731814
REM
CELL 1.54180   50.00000   50.00000   50.00000   90.00000   90.00000   90.00000
LATT -1
SFAC C  
C      1  0.5323550000000  0.4616780000000  0.4873190000000 1.0
C      1  0.5228870000000  0.5284520000000  0.4761970000000 1.0
C      1  0.5225110000000  0.5257060000000  0.5293080000000 1.0
C      1  0.5237020000000  0.4748530000000  0.5367440000000 1.0
C      1  0.4679250000000  0.5332020000000  0.4770570000000 1.0
C      1  0.4631910000000  0.4850950000000  0.4659320000000 1.0
C      1  0.4692160000000  0.4751210000000  0.5343010000000 1.0
C      1  0.4693640000000  0.5258820000000  0.5286120000000 1.0
C      1  0.5155790000000  0.4580670000000  0.5139680000000 1.0
C      1  0.5061910000000  0.5133130000000  0.4560180000000 1.0
C      1  0.5113780000000  0.5377980000000  0.5042270000000 1.0
C      1  0.5110640000000  0.5017430000000  0.5424270000000 1.0
C      1  0.4805090000000  0.5387060000000  0.5042320000000 1.0
C      1  0.4751060000000  0.5122560000000  0.4580850000000 1.0
C      1  0.4833830000000  0.4582900000000  0.5116390000000 1.0
C      1  0.4807610000000  0.5012260000000  0.5411870000000 1.0
C      1  0.5218800000000  0.4886360000000  0.4862190000000 1.0
C      1  0.4748700000000  0.4837960000000  0.4932800000000 1.0
C      1  0.4983040000000  0.5014520000000  0.4958340000000 1.0
END
