TITL C-2441163-1170-733 0.0841012152028636 125000 -11013.499883464 0 0 90 (C1) n - 1
REM
REM in /home/bkarasulu/work/CARBON/AIRSS/Generating-Clusters/ReaxFF-fromJPCA2015/Units_Real/with-SteepDescent/Higher-Symm
REM
REM
REM
REM
REM
REM ./C.cell (1df0a924f5614ab8850e4351716899ee)
REM
REM compiler GCC version 9.2.1 20190827 (Red Hat 9.2.1-1)
REM options -cpp -mtune=generic -march=x86-64 -g -O0 -fpre-include=/usr/include/finclude/math-vector-fortran.h
REM seed 878786301 -644679972 -1939176719 1502250397 -1837637827 -1490055458 1272557001 -247515053 855926327 1693780368 -1092215452 -869465891 1612120604 -2109950051 -1191012222 -500699323 2080341157 -1483226192 -354825094 828762908 1938688063 -1764104469 548222188 1321014548 999963786 1068129223 -2056561621 536610769 1529810351 442322928 -1010693815 1685938837 -732647566
REM
CELL 1.54180   50.00000   50.00000   50.00000   90.00000   90.00000   90.00000
LATT -1
SFAC C  
C      1  0.5069110000000  0.5790350000000  0.5163250000000 1.0
C      1  0.4878600000000  0.4190160000000  0.5098290000000 1.0
C      1  0.4906470000000  0.5818570000000  0.4868710000000 1.0
C      1  0.5150830000000  0.4198150000000  0.4945290000000 1.0
C      1  0.4386470000000  0.5353550000000  0.4967250000000 1.0
C      1  0.5060470000000  0.4632350000000  0.4400470000000 1.0
C      1  0.5614610000000  0.5358420000000  0.5068120000000 1.0
C      1  0.4934850000000  0.4656090000000  0.5602300000000 1.0
C      1  0.5674160000000  0.4539540000000  0.5387260000000 1.0
C      1  0.4608370000000  0.5454550000000  0.5674390000000 1.0
C      1  0.4331610000000  0.4558460000000  0.4597190000000 1.0
C      1  0.5404800000000  0.5423580000000  0.4339090000000 1.0
C      1  0.5356980000000  0.4990950000000  0.4179910000000 1.0
C      1  0.5853800000000  0.5019760000000  0.5325630000000 1.0
C      1  0.4668680000000  0.4975440000000  0.5867320000000 1.0
C      1  0.4143650000000  0.5026840000000  0.4645070000000 1.0
C      1  0.4537740000000  0.5166530000000  0.5665640000000 1.0
C      1  0.4366240000000  0.4851640000000  0.4511120000000 1.0
C      1  0.5517930000000  0.5152790000000  0.4359690000000 1.0
C      1  0.5653880000000  0.4831560000000  0.5456340000000 1.0
C      1  0.4685870000000  0.5433490000000  0.4837750000000 1.0
C      1  0.5174760000000  0.4585100000000  0.4671450000000 1.0
C      1  0.5336820000000  0.5418260000000  0.5165300000000 1.0
C      1  0.4844330000000  0.4582060000000  0.5320770000000 1.0
C      1  0.5724640000000  0.4947460000000  0.5070400000000 1.0
C      1  0.4917840000000  0.5043080000000  0.5728730000000 1.0
C      1  0.4265570000000  0.4948490000000  0.4895830000000 1.0
C      1  0.5087520000000  0.5076350000000  0.4262420000000 1.0
C      1  0.5120600000000  0.5502090000000  0.4311530000000 1.0
C      1  0.5682360000000  0.4483750000000  0.5103340000000 1.0
C      1  0.4887190000000  0.5516880000000  0.5668080000000 1.0
C      1  0.4313770000000  0.4482350000000  0.4872330000000 1.0
C      1  0.5353900000000  0.5518770000000  0.5559430000000 1.0
C      1  0.4443760000000  0.4480700000000  0.5343490000000 1.0
C      1  0.4660790000000  0.5549020000000  0.4435960000000 1.0
C      1  0.5573800000000  0.4447860000000  0.4654720000000 1.0
C      1  0.5757340000000  0.4587060000000  0.4839090000000 1.0
C      1  0.5158340000000  0.5443000000000  0.5758940000000 1.0
C      1  0.4251300000000  0.4565900000000  0.5143190000000 1.0
C      1  0.4848980000000  0.5412350000000  0.4247650000000 1.0
C      1  0.5218090000000  0.4740550000000  0.5582000000000 1.0
C      1  0.4389320000000  0.5208520000000  0.5208990000000 1.0
C      1  0.4812680000000  0.4757840000000  0.4358950000000 1.0
C      1  0.5618730000000  0.5265490000000  0.4794270000000 1.0
C      1  0.5700080000000  0.5080100000000  0.4596540000000 1.0
C      1  0.5376620000000  0.4994760000000  0.5673530000000 1.0
C      1  0.4316500000000  0.4981830000000  0.5384270000000 1.0
C      1  0.4620640000000  0.4924860000000  0.4299410000000 1.0
C      1  0.5500580000000  0.5268030000000  0.5548550000000 1.0
C      1  0.4456310000000  0.4723700000000  0.5503470000000 1.0
C      1  0.4439550000000  0.5394870000000  0.4506610000000 1.0
C      1  0.5507600000000  0.4605940000000  0.4437200000000 1.0
C      1  0.5707740000000  0.5273870000000  0.5339870000000 1.0
C      1  0.4660950000000  0.4729560000000  0.5707970000000 1.0
C      1  0.4255790000000  0.5296720000000  0.4681040000000 1.0
C      1  0.5328260000000  0.4707330000000  0.4259000000000 1.0
C      1  0.4768910000000  0.5107360000000  0.5497930000000 1.0
C      1  0.4509430000000  0.4900980000000  0.4763130000000 1.0
C      1  0.5147890000000  0.5059840000000  0.4535280000000 1.0
C      1  0.5495380000000  0.4889870000000  0.5221180000000 1.0
C      1  0.4176240000000  0.4850220000000  0.5164190000000 1.0
C      1  0.4799070000000  0.5129600000000  0.4180730000000 1.0
C      1  0.5797490000000  0.4876000000000  0.4791810000000 1.0
C      1  0.5180530000000  0.5146690000000  0.5819440000000 1.0
C      1  0.5244390000000  0.5539440000000  0.4780940000000 1.0
C      1  0.5253050000000  0.4524870000000  0.5379600000000 1.0
C      1  0.4647180000000  0.5513190000000  0.5218410000000 1.0
C      1  0.4771510000000  0.4463790000000  0.4737460000000 1.0
C      1  0.5469120000000  0.4364050000000  0.5280310000000 1.0
C      1  0.4705920000000  0.5644980000000  0.5460190000000 1.0
C      1  0.4515350000000  0.4360550000000  0.4701780000000 1.0
C      1  0.5286690000000  0.5632400000000  0.4516880000000 1.0
C      1  0.5277720000000  0.5039700000000  0.4918610000000 1.0
C      1  0.5083030000000  0.4971200000000  0.5213780000000 1.0
C      1  0.4841540000000  0.5009930000000  0.5087170000000 1.0
C      1  0.4934090000000  0.4989640000000  0.4706920000000 1.0
C      1  0.5282200000000  0.5249540000000  0.4735160000000 1.0
C      1  0.5256520000000  0.4744930000000  0.5171810000000 1.0
C      1  0.4826160000000  0.5265830000000  0.5253790000000 1.0
C      1  0.4736230000000  0.4733100000000  0.4824660000000 1.0
C      1  0.5276830000000  0.4774590000000  0.4864940000000 1.0
C      1  0.5141650000000  0.5243780000000  0.5268050000000 1.0
C      1  0.4734430000000  0.4758390000000  0.5121390000000 1.0
C      1  0.4827310000000  0.5222290000000  0.4746670000000 1.0
C      1  0.5298550000000  0.4339180000000  0.4749790000000 1.0
C      1  0.5271220000000  0.5664500000000  0.5306010000000 1.0
C      1  0.4705090000000  0.4331980000000  0.5280670000000 1.0
C      1  0.4735770000000  0.5686220000000  0.4694190000000 1.0
C      1  0.5050370000000  0.5620180000000  0.4956060000000 1.0
C      1  0.4948880000000  0.4383880000000  0.4929350000000 1.0
END
