TITL C-2441168-9922-1017 0.000923429259866104 125000 -5888.18965221175 0 0 41 (C1) n - 1
REM
REM in /home/bkarasulu/work/CARBON/AIRSS/Generating-Clusters/ReaxFF-fromJPCA2015/Units_Real/with-SteepDescent/Higher-Symm
REM
REM
REM
REM
REM
REM ./C.cell (1df0a924f5614ab8850e4351716899ee)
REM
REM compiler GCC version 9.2.1 20190827 (Red Hat 9.2.1-1)
REM options -cpp -mtune=generic -march=x86-64 -g -O0 -fpre-include=/usr/include/finclude/math-vector-fortran.h
REM seed 1829998081 -1985432392 1880069017 832543154 1955092804 409516287 670718537 1457807930 1776626922 -1796993695 994107900 1320534077 932642666 -1363396563 636794050 1209116457 1637652108 -311108129 -847026636 -1420924171 18350725 -948579411 4952708 1637355711 1365832906 337171005 -1799540029 1285247172 -286864325 -1622505266 1112931578 204699386 746439326
REM
CELL 1.54180   50.00000   50.00000   50.00000   90.00000   90.00000   90.00000
LATT -1
SFAC C  
C      1  0.4650670000000  0.4763250000000  0.4809160000000 1.0
C      1  0.5343510000000  0.4740470000000  0.4777150000000 1.0
C      1  0.4980160000000  0.4756160000000  0.5400400000000 1.0
C      1  0.4906940000000  0.4195390000000  0.4675260000000 1.0
C      1  0.5278250000000  0.4320980000000  0.5035840000000 1.0
C      1  0.4769860000000  0.4311580000000  0.5187350000000 1.0
C      1  0.4415530000000  0.4928240000000  0.5266670000000 1.0
C      1  0.5021910000000  0.4936520000000  0.4383580000000 1.0
C      1  0.5464360000000  0.4950820000000  0.5350230000000 1.0
C      1  0.4620150000000  0.5370690000000  0.5372870000000 1.0
C      1  0.4923010000000  0.5417750000000  0.4450720000000 1.0
C      1  0.5483500000000  0.5403490000000  0.5179670000000 1.0
C      1  0.5250630000000  0.4763720000000  0.5306620000000 1.0
C      1  0.4569010000000  0.4755030000000  0.5090940000000 1.0
C      1  0.5095690000000  0.4742210000000  0.4603520000000 1.0
C      1  0.5220610000000  0.5321170000000  0.5600510000000 1.0
C      1  0.4458470000000  0.5206260000000  0.4955230000000 1.0
C      1  0.5331980000000  0.5152410000000  0.4560040000000 1.0
C      1  0.5430230000000  0.5242300000000  0.5428930000000 1.0
C      1  0.4400940000000  0.5227810000000  0.5221050000000 1.0
C      1  0.5147850000000  0.5210590000000  0.4361760000000 1.0
C      1  0.4876880000000  0.4593510000000  0.4732750000000 1.0
C      1  0.5335720000000  0.4597460000000  0.5052780000000 1.0
C      1  0.4756280000000  0.4585080000000  0.5259930000000 1.0
C      1  0.4589230000000  0.5266900000000  0.4726750000000 1.0
C      1  0.5342810000000  0.5192100000000  0.4831540000000 1.0
C      1  0.5036250000000  0.5402030000000  0.5454550000000 1.0
C      1  0.4536140000000  0.4925780000000  0.5537400000000 1.0
C      1  0.4726530000000  0.4965630000000  0.4355310000000 1.0
C      1  0.5667830000000  0.4967440000000  0.5141360000000 1.0
C      1  0.5269610000000  0.5441110000000  0.4986410000000 1.0
C      1  0.4863360000000  0.5480260000000  0.5249200000000 1.0
C      1  0.4835240000000  0.5447130000000  0.4727650000000 1.0
C      1  0.4741650000000  0.5245870000000  0.4316660000000 1.0
C      1  0.5697370000000  0.5242790000000  0.5061280000000 1.0
C      1  0.4671080000000  0.5176280000000  0.5585750000000 1.0
C      1  0.4828590000000  0.4922230000000  0.5583380000000 1.0
C      1  0.4589770000000  0.4984380000000  0.4618630000000 1.0
C      1  0.5601490000000  0.5043950000000  0.4857050000000 1.0
C      1  0.4983860000000  0.5493880000000  0.4974120000000 1.0
C      1  0.4963990000000  0.4330880000000  0.4917970000000 1.0
END
