TITL C-2441155-8282-149 0.0401840028120894 125000 -16591.0741897241 0 0 123 (C1) n - 1
REM
REM in /home/bkarasulu/work/CARBON/AIRSS/Generating-Clusters/ReaxFF-fromJPCA2015/Units_Real/with-SteepDescent/Higher-Symm
REM
REM
REM
REM
REM
REM ./C.cell (1df0a924f5614ab8850e4351716899ee)
REM
REM compiler GCC version 9.2.1 20190827 (Red Hat 9.2.1-1)
REM options -cpp -mtune=generic -march=x86-64 -g -O0 -fpre-include=/usr/include/finclude/math-vector-fortran.h
REM seed -346911531 229639154 155316946 -1574240412 -1116544977 1194256093 -959369903 68327416 -474783554 167703340 1962131872 1451427289 -974802856 -838234660 1110129654 1201435785 -2003601783 -1391128163 2104977824 -2090921654 1570849814 454633982 10160705 587052235 1790498267 -1364300003 -1797485224 1098762651 321488847 -2129168864 -770054242 227777256 -701966143
REM
CELL 1.54180   50.00000   50.00000   50.00000   90.00000   90.00000   90.00000
LATT -1
SFAC C  
C      1  0.5134160000000  0.5784190000000  0.4762850000000 1.0
C      1  0.4715710000000  0.5760680000000  0.5002090000000 1.0
C      1  0.5140740000000  0.5770280000000  0.5248190000000 1.0
C      1  0.5142250000000  0.4272700000000  0.4756510000000 1.0
C      1  0.4722690000000  0.4258200000000  0.5001450000000 1.0
C      1  0.5142840000000  0.4272450000000  0.5248880000000 1.0
C      1  0.4846720000000  0.5800950000000  0.4755420000000 1.0
C      1  0.5283090000000  0.5771630000000  0.5005330000000 1.0
C      1  0.4861470000000  0.5739820000000  0.5236690000000 1.0
C      1  0.4861330000000  0.4266120000000  0.4755990000000 1.0
C      1  0.5280830000000  0.4272100000000  0.5001310000000 1.0
C      1  0.4860530000000  0.4263390000000  0.5249460000000 1.0
C      1  0.5256660000000  0.5713370000000  0.5495630000000 1.0
C      1  0.5269920000000  0.5532530000000  0.4665760000000 1.0
C      1  0.4441140000000  0.5718120000000  0.4992490000000 1.0
C      1  0.5266650000000  0.4286770000000  0.5498480000000 1.0
C      1  0.5296150000000  0.4292450000000  0.4525690000000 1.0
C      1  0.4452560000000  0.4310400000000  0.4960040000000 1.0
C      1  0.4749580000000  0.5701840000000  0.5485890000000 1.0
C      1  0.4760900000000  0.5581510000000  0.4579240000000 1.0
C      1  0.5428900000000  0.5533290000000  0.4926240000000 1.0
C      1  0.4737760000000  0.4282060000000  0.5499790000000 1.0
C      1  0.4705090000000  0.4292010000000  0.4525810000000 1.0
C      1  0.5556160000000  0.4299900000000  0.4969710000000 1.0
C      1  0.5417460000000  0.4861530000000  0.5898070000000 1.0
C      1  0.5581540000000  0.4864820000000  0.4196060000000 1.0
C      1  0.4010100000000  0.4860620000000  0.4901190000000 1.0
C      1  0.5414190000000  0.5151630000000  0.5912490000000 1.0
C      1  0.5587210000000  0.5156480000000  0.4195130000000 1.0
C      1  0.4003560000000  0.5151090000000  0.4899320000000 1.0
C      1  0.4585440000000  0.4856950000000  0.5904960000000 1.0
C      1  0.4417580000000  0.4855400000000  0.4193730000000 1.0
C      1  0.5989980000000  0.4863580000000  0.4903720000000 1.0
C      1  0.4592270000000  0.5147440000000  0.5910980000000 1.0
C      1  0.4420130000000  0.5145890000000  0.4178160000000 1.0
C      1  0.5997560000000  0.5154560000000  0.4889230000000 1.0
C      1  0.4820600000000  0.4731680000000  0.5290040000000 1.0
C      1  0.5262160000000  0.4816500000000  0.4959960000000 1.0
C      1  0.4873400000000  0.4799930000000  0.4692920000000 1.0
C      1  0.4782090000000  0.5244120000000  0.5269780000000 1.0
C      1  0.5379660000000  0.5266690000000  0.5049060000000 1.0
C      1  0.4841820000000  0.5299340000000  0.4643810000000 1.0
C      1  0.5099690000000  0.4814910000000  0.5267870000000 1.0
C      1  0.4677060000000  0.4763380000000  0.5048860000000 1.0
C      1  0.5147290000000  0.4735970000000  0.4700680000000 1.0
C      1  0.5248360000000  0.5268210000000  0.5299960000000 1.0
C      1  0.4655630000000  0.5209390000000  0.5023510000000 1.0
C      1  0.5129700000000  0.5247550000000  0.4671030000000 1.0
C      1  0.4824010000000  0.4711150000000  0.5799080000000 1.0
C      1  0.5771500000000  0.4719520000000  0.4753940000000 1.0
C      1  0.4400410000000  0.4711600000000  0.4454320000000 1.0
C      1  0.4826470000000  0.5288520000000  0.5790040000000 1.0
C      1  0.5784190000000  0.5298010000000  0.4744350000000 1.0
C      1  0.4394960000000  0.5294930000000  0.4437340000000 1.0
C      1  0.5176190000000  0.4718880000000  0.5781000000000 1.0
C      1  0.4225000000000  0.4712970000000  0.4756340000000 1.0
C      1  0.5605900000000  0.4713810000000  0.4450700000000 1.0
C      1  0.5178820000000  0.5293880000000  0.5798800000000 1.0
C      1  0.4226490000000  0.5288420000000  0.4754200000000 1.0
C      1  0.5607980000000  0.5298850000000  0.4451980000000 1.0
C      1  0.5769500000000  0.5476810000000  0.5264230000000 1.0
C      1  0.4861590000000  0.5462190000000  0.4186530000000 1.0
C      1  0.4366520000000  0.5458440000000  0.5536200000000 1.0
C      1  0.5776470000000  0.4544380000000  0.5276610000000 1.0
C      1  0.4863210000000  0.4547380000000  0.4186830000000 1.0
C      1  0.4363880000000  0.4544430000000  0.5519310000000 1.0
C      1  0.4234680000000  0.5452320000000  0.5293090000000 1.0
C      1  0.5142900000000  0.5468490000000  0.4204430000000 1.0
C      1  0.5634900000000  0.5456270000000  0.5507790000000 1.0
C      1  0.4220830000000  0.4540300000000  0.5281470000000 1.0
C      1  0.5139540000000  0.4548530000000  0.4184090000000 1.0
C      1  0.5634070000000  0.4547920000000  0.5514290000000 1.0
C      1  0.5298580000000  0.5132690000000  0.4466920000000 1.0
C      1  0.4391610000000  0.5141780000000  0.4979570000000 1.0
C      1  0.5308990000000  0.5142190000000  0.5536080000000 1.0
C      1  0.5309860000000  0.4848790000000  0.4488660000000 1.0
C      1  0.4396770000000  0.4850470000000  0.4999920000000 1.0
C      1  0.5260970000000  0.4855700000000  0.5529820000000 1.0
C      1  0.4675190000000  0.5150280000000  0.4481130000000 1.0
C      1  0.5623080000000  0.5133120000000  0.5008220000000 1.0
C      1  0.4702350000000  0.5139850000000  0.5528370000000 1.0
C      1  0.4695060000000  0.4865980000000  0.4480120000000 1.0
C      1  0.5595260000000  0.4850690000000  0.4985000000000 1.0
C      1  0.4715940000000  0.4845340000000  0.5528250000000 1.0
C      1  0.4439400000000  0.4228950000000  0.4504630000000 1.0
C      1  0.4856480000000  0.4229300000000  0.5740530000000 1.0
C      1  0.5708630000000  0.4228700000000  0.4749880000000 1.0
C      1  0.4510140000000  0.5748360000000  0.4529240000000 1.0
C      1  0.4856220000000  0.5779470000000  0.5730770000000 1.0
C      1  0.5725730000000  0.5777680000000  0.4727220000000 1.0
C      1  0.5561150000000  0.4229760000000  0.4504100000000 1.0
C      1  0.5143820000000  0.4229950000000  0.5742360000000 1.0
C      1  0.4293090000000  0.4226650000000  0.4750560000000 1.0
C      1  0.5598540000000  0.5775940000000  0.4507670000000 1.0
C      1  0.5142530000000  0.5774510000000  0.5736430000000 1.0
C      1  0.4316900000000  0.5757990000000  0.4742010000000 1.0
C      1  0.5776700000000  0.4460290000000  0.4927100000000 1.0
C      1  0.4549130000000  0.4459130000000  0.4368350000000 1.0
C      1  0.4674600000000  0.4455720000000  0.5708290000000 1.0
C      1  0.5733520000000  0.5554820000000  0.4914030000000 1.0
C      1  0.4556540000000  0.5539390000000  0.4360470000000 1.0
C      1  0.4675370000000  0.5543570000000  0.5702310000000 1.0
C      1  0.4221650000000  0.4457520000000  0.4929060000000 1.0
C      1  0.5450840000000  0.4459810000000  0.4363960000000 1.0
C      1  0.5322340000000  0.4463900000000  0.5705840000000 1.0
C      1  0.4229930000000  0.5541240000000  0.4919570000000 1.0
C      1  0.5438380000000  0.5555130000000  0.4407780000000 1.0
C      1  0.5321100000000  0.5547020000000  0.5708330000000 1.0
C      1  0.5569410000000  0.5230450000000  0.5670370000000 1.0
C      1  0.5295820000000  0.5228430000000  0.4185540000000 1.0
C      1  0.4134110000000  0.5225950000000  0.5156470000000 1.0
C      1  0.5559840000000  0.4785230000000  0.5649190000000 1.0
C      1  0.5295350000000  0.4785800000000  0.4183570000000 1.0
C      1  0.4144880000000  0.4785010000000  0.5156450000000 1.0
C      1  0.4439100000000  0.5214850000000  0.5665140000000 1.0
C      1  0.4705110000000  0.5223600000000  0.4164840000000 1.0
C      1  0.5866920000000  0.5233520000000  0.5147510000000 1.0
C      1  0.4439600000000  0.4780520000000  0.5656600000000 1.0
C      1  0.4706470000000  0.4783730000000  0.4184890000000 1.0
C      1  0.5837820000000  0.4792740000000  0.5152260000000 1.0
C      1  0.5223950000000  0.5099690000000  0.4893990000000 1.0
C      1  0.4796890000000  0.4990200000000  0.4901580000000 1.0
C      1  0.5030110000000  0.5107190000000  0.5262700000000 1.0
END
