TITL C-2441165-58-1238 0.00513153450794663 125000 -2719.83861106672 0 0 23 (C1) n - 1
REM
REM in /home/bkarasulu/work/CARBON/AIRSS/Generating-Clusters/ReaxFF-fromJPCA2015/Units_Real/with-SteepDescent/Higher-Symm
REM
REM
REM
REM
REM
REM ./C.cell (1df0a924f5614ab8850e4351716899ee)
REM
REM compiler GCC version 9.2.1 20190827 (Red Hat 9.2.1-1)
REM options -cpp -mtune=generic -march=x86-64 -g -O0 -fpre-include=/usr/include/finclude/math-vector-fortran.h
REM seed 81029306 -1075700978 -1901484571 1508573037 -1951725929 -576329290 -171649790 -1110703368 1165192854 -1784982074 334921444 -1211240227 934939238 -1636719785 -1432180428 1648223307 921271468 1211996183 1209914447 959412714 -304824825 -2069665688 -1806739206 -630351639 -1844106191 1565201622 -1974208057 940851423 472210838 209634599 1633873557 -1264196257 -1543534644
REM
CELL 1.54180   50.00000   50.00000   50.00000   90.00000   90.00000   90.00000
LATT -1
SFAC C  
C      1  0.4582520000000  0.4844450000000  0.4798430000000 1.0
C      1  0.4617450000000  0.4897290000000  0.5104550000000 1.0
C      1  0.4929380000000  0.4845030000000  0.5397540000000 1.0
C      1  0.5209430000000  0.4893320000000  0.5311370000000 1.0
C      1  0.5442350000000  0.4860870000000  0.4969920000000 1.0
C      1  0.5351230000000  0.4847420000000  0.4691800000000 1.0
C      1  0.4892410000000  0.4854180000000  0.4607400000000 1.0
C      1  0.5668350000000  0.5026920000000  0.4871610000000 1.0
C      1  0.5296270000000  0.4980840000000  0.4455330000000 1.0
C      1  0.4734540000000  0.5000730000000  0.4403960000000 1.0
C      1  0.4338920000000  0.5011170000000  0.4811580000000 1.0
C      1  0.4482270000000  0.4979320000000  0.5351820000000 1.0
C      1  0.4973560000000  0.4991820000000  0.5643880000000 1.0
C      1  0.5473980000000  0.4983740000000  0.5399620000000 1.0
C      1  0.4732240000000  0.5052980000000  0.5480110000000 1.0
C      1  0.5243610000000  0.5068780000000  0.5556530000000 1.0
C      1  0.5569450000000  0.5070540000000  0.5139460000000 1.0
C      1  0.5525990000000  0.5058110000000  0.4614410000000 1.0
C      1  0.5020400000000  0.5047630000000  0.4414470000000 1.0
C      1  0.4528900000000  0.5068190000000  0.4595800000000 1.0
C      1  0.4388720000000  0.5079570000000  0.5093540000000 1.0
C      1  0.5006320000000  0.5236100000000  0.5005470000000 1.0
C      1  0.4999210000000  0.5006010000000  0.4878780000000 1.0
END
