TITL C-2441162-9305-652 0.13260959947857 125000 -22580.4305606034 0 0 177 (C1) n - 1
REM
REM in /home/bkarasulu/work/CARBON/AIRSS/Generating-Clusters/ReaxFF-fromJPCA2015/Units_Real/with-SteepDescent/Higher-Symm
REM
REM
REM
REM
REM
REM ./C.cell (1df0a924f5614ab8850e4351716899ee)
REM
REM compiler GCC version 9.2.1 20190827 (Red Hat 9.2.1-1)
REM options -cpp -mtune=generic -march=x86-64 -g -O0 -fpre-include=/usr/include/finclude/math-vector-fortran.h
REM seed 1178218525 922282773 1289439405 476944619 790300854 1732437122 612075893 -1783733062 -1914665238 -535150788 1981781724 315459655 -631619490 1184958971 1158785079 -1857967832 -35466468 -223216686 1055409911 -941908455 1669799048 1328775993 803282753 1844884788 -1125074362 709766323 277213985 -1844393485 -234724791 -280582251 2133268927 -1054577651 -1891414676
REM
CELL 1.54180   50.00000   50.00000   50.00000   90.00000   90.00000   90.00000
LATT -1
SFAC C  
C      1  0.5576710000000  0.4387430000000  0.4479890000000 1.0
C      1  0.5141220000000  0.4435230000000  0.5728740000000 1.0
C      1  0.4262890000000  0.4392400000000  0.4732560000000 1.0
C      1  0.5592550000000  0.5618910000000  0.4484380000000 1.0
C      1  0.5171420000000  0.5621210000000  0.5734630000000 1.0
C      1  0.4277110000000  0.5597400000000  0.4739040000000 1.0
C      1  0.5608890000000  0.4399310000000  0.5489060000000 1.0
C      1  0.5180200000000  0.4414890000000  0.4256720000000 1.0
C      1  0.4264560000000  0.4379500000000  0.5253110000000 1.0
C      1  0.5568380000000  0.5593970000000  0.5507510000000 1.0
C      1  0.5178000000000  0.5611890000000  0.4250890000000 1.0
C      1  0.4274030000000  0.5595010000000  0.5256740000000 1.0
C      1  0.5444890000000  0.5824100000000  0.4639970000000 1.0
C      1  0.5041310000000  0.5843000000000  0.5570310000000 1.0
C      1  0.4462130000000  0.5837130000000  0.4789070000000 1.0
C      1  0.5450980000000  0.4179940000000  0.4654180000000 1.0
C      1  0.5072910000000  0.4184280000000  0.5565240000000 1.0
C      1  0.4447860000000  0.4177160000000  0.4789390000000 1.0
C      1  0.5457750000000  0.5812450000000  0.5342500000000 1.0
C      1  0.5071850000000  0.5831680000000  0.4441490000000 1.0
C      1  0.4459570000000  0.5834290000000  0.5205070000000 1.0
C      1  0.5470550000000  0.4172410000000  0.5347170000000 1.0
C      1  0.5084180000000  0.4174360000000  0.4441980000000 1.0
C      1  0.4457800000000  0.4169040000000  0.5206460000000 1.0
C      1  0.5963930000000  0.5488760000000  0.4796040000000 1.0
C      1  0.4583840000000  0.5512120000000  0.5882250000000 1.0
C      1  0.4307440000000  0.5541320000000  0.4212760000000 1.0
C      1  0.5935760000000  0.4540440000000  0.4908140000000 1.0
C      1  0.4599000000000  0.4561110000000  0.5883610000000 1.0
C      1  0.4340840000000  0.4502240000000  0.4211660000000 1.0
C      1  0.5944820000000  0.5475530000000  0.5214390000000 1.0
C      1  0.4580440000000  0.5495710000000  0.4121680000000 1.0
C      1  0.4308590000000  0.5539040000000  0.5784490000000 1.0
C      1  0.6025300000000  0.4462830000000  0.5160530000000 1.0
C      1  0.4595920000000  0.4526530000000  0.4105470000000 1.0
C      1  0.4334730000000  0.4496350000000  0.5792820000000 1.0
C      1  0.4933140000000  0.4864140000000  0.4037470000000 1.0
C      1  0.5787030000000  0.4846600000000  0.5563410000000 1.0
C      1  0.4209960000000  0.4886040000000  0.5518460000000 1.0
C      1  0.5045850000000  0.5102580000000  0.3944910000000 1.0
C      1  0.5911590000000  0.5085810000000  0.5470690000000 1.0
C      1  0.4192420000000  0.5143900000000  0.5575630000000 1.0
C      1  0.4934450000000  0.4889360000000  0.6012140000000 1.0
C      1  0.5752580000000  0.4833280000000  0.4452990000000 1.0
C      1  0.4216840000000  0.4898030000000  0.4490950000000 1.0
C      1  0.5086580000000  0.5144650000000  0.5936590000000 1.0
C      1  0.5836330000000  0.5116370000000  0.4605050000000 1.0
C      1  0.4192370000000  0.5152810000000  0.4432670000000 1.0
C      1  0.4006170000000  0.4651730000000  0.5582080000000 1.0
C      1  0.4935380000000  0.4656810000000  0.3857240000000 1.0
C      1  0.6008330000000  0.4691180000000  0.5492810000000 1.0
C      1  0.4004040000000  0.5339700000000  0.5600640000000 1.0
C      1  0.4892740000000  0.5342250000000  0.3876420000000 1.0
C      1  0.5895570000000  0.5299070000000  0.5631120000000 1.0
C      1  0.4030730000000  0.4693130000000  0.4402030000000 1.0
C      1  0.5011420000000  0.4651030000000  0.6120790000000 1.0
C      1  0.5998510000000  0.4670320000000  0.4544840000000 1.0
C      1  0.4004110000000  0.5342080000000  0.4401240000000 1.0
C      1  0.4933490000000  0.5340360000000  0.6111160000000 1.0
C      1  0.5920680000000  0.5296420000000  0.4396020000000 1.0
C      1  0.4671890000000  0.4765580000000  0.3965230000000 1.0
C      1  0.6107670000000  0.4726790000000  0.5226500000000 1.0
C      1  0.4162640000000  0.4720360000000  0.5810790000000 1.0
C      1  0.4615160000000  0.5256260000000  0.3963330000000 1.0
C      1  0.6005580000000  0.5188540000000  0.5243950000000 1.0
C      1  0.4227230000000  0.5266090000000  0.5802120000000 1.0
C      1  0.4667090000000  0.4816860000000  0.5983890000000 1.0
C      1  0.6072880000000  0.4765580000000  0.4819930000000 1.0
C      1  0.4244130000000  0.4769890000000  0.4215980000000 1.0
C      1  0.4649720000000  0.5282090000000  0.6045120000000 1.0
C      1  0.6036700000000  0.5201730000000  0.4775940000000 1.0
C      1  0.4219260000000  0.5262940000000  0.4200710000000 1.0
C      1  0.5688440000000  0.4912400000000  0.5818260000000 1.0
C      1  0.4035950000000  0.4864660000000  0.5141080000000 1.0
C      1  0.5385340000000  0.4892670000000  0.4138280000000 1.0
C      1  0.5634040000000  0.5197060000000  0.5796160000000 1.0
C      1  0.4059770000000  0.5158890000000  0.5146920000000 1.0
C      1  0.5256480000000  0.5150020000000  0.4125900000000 1.0
C      1  0.5666500000000  0.4930070000000  0.4192830000000 1.0
C      1  0.4032290000000  0.4865210000000  0.4857340000000 1.0
C      1  0.5412370000000  0.4858480000000  0.5873900000000 1.0
C      1  0.5702510000000  0.5214940000000  0.4225550000000 1.0
C      1  0.4059450000000  0.5158820000000  0.4853930000000 1.0
C      1  0.5376850000000  0.5129510000000  0.5967330000000 1.0
C      1  0.5254470000000  0.4715510000000  0.5658020000000 1.0
C      1  0.4297560000000  0.4681460000000  0.4849100000000 1.0
C      1  0.5498710000000  0.4672740000000  0.4471420000000 1.0
C      1  0.5173170000000  0.5359340000000  0.5589020000000 1.0
C      1  0.4323950000000  0.5315500000000  0.4843970000000 1.0
C      1  0.5502090000000  0.5335830000000  0.4421760000000 1.0
C      1  0.5243890000000  0.4716810000000  0.4331850000000 1.0
C      1  0.4302210000000  0.4675860000000  0.5149020000000 1.0
C      1  0.5499190000000  0.4675640000000  0.5477370000000 1.0
C      1  0.5230870000000  0.5332940000000  0.4352260000000 1.0
C      1  0.4321040000000  0.5317210000000  0.5156380000000 1.0
C      1  0.5460120000000  0.5311620000000  0.5554440000000 1.0
C      1  0.4174410000000  0.4445460000000  0.4458920000000 1.0
C      1  0.5854810000000  0.4424580000000  0.4545090000000 1.0
C      1  0.5136800000000  0.4410160000000  0.6052020000000 1.0
C      1  0.4164940000000  0.5580820000000  0.4471670000000 1.0
C      1  0.5874720000000  0.5556650000000  0.4520460000000 1.0
C      1  0.5067470000000  0.5547850000000  0.5981310000000 1.0
C      1  0.4169160000000  0.4418690000000  0.5523130000000 1.0
C      1  0.5892410000000  0.4435760000000  0.5424950000000 1.0
C      1  0.5093250000000  0.4437210000000  0.3970590000000 1.0
C      1  0.4166170000000  0.5576420000000  0.5526620000000 1.0
C      1  0.5856280000000  0.5548640000000  0.5486120000000 1.0
C      1  0.5039010000000  0.5535060000000  0.4024540000000 1.0
C      1  0.4718930000000  0.5072120000000  0.4384390000000 1.0
C      1  0.5450960000000  0.5103140000000  0.5261180000000 1.0
C      1  0.4553520000000  0.5093440000000  0.5341620000000 1.0
C      1  0.4925340000000  0.4869390000000  0.4430740000000 1.0
C      1  0.5619920000000  0.4889160000000  0.5136150000000 1.0
C      1  0.4428110000000  0.4839480000000  0.5347110000000 1.0
C      1  0.4723260000000  0.5075990000000  0.5597630000000 1.0
C      1  0.5555880000000  0.5175630000000  0.4730510000000 1.0
C      1  0.4564040000000  0.5112590000000  0.4675060000000 1.0
C      1  0.4951400000000  0.4887550000000  0.5524720000000 1.0
C      1  0.5542630000000  0.4914340000000  0.4851760000000 1.0
C      1  0.4441960000000  0.4854290000000  0.4667510000000 1.0
C      1  0.5654780000000  0.5868600000000  0.5139820000000 1.0
C      1  0.4553300000000  0.5786870000000  0.5479090000000 1.0
C      1  0.4800060000000  0.5795430000000  0.4346100000000 1.0
C      1  0.5648590000000  0.4171860000000  0.5139370000000 1.0
C      1  0.4559550000000  0.4164030000000  0.5481010000000 1.0
C      1  0.4807880000000  0.4137370000000  0.4353560000000 1.0
C      1  0.5649370000000  0.5866900000000  0.4849410000000 1.0
C      1  0.4559940000000  0.5804070000000  0.4514360000000 1.0
C      1  0.4776560000000  0.5801070000000  0.5665530000000 1.0
C      1  0.5671210000000  0.4235230000000  0.4855570000000 1.0
C      1  0.4554960000000  0.4154170000000  0.4516870000000 1.0
C      1  0.4799920000000  0.4133450000000  0.5650480000000 1.0
C      1  0.5238730000000  0.4163670000000  0.5146950000000 1.0
C      1  0.4762050000000  0.4233050000000  0.5136970000000 1.0
C      1  0.5011550000000  0.4158950000000  0.4720870000000 1.0
C      1  0.5234490000000  0.5815470000000  0.5149810000000 1.0
C      1  0.4744150000000  0.5870370000000  0.5129930000000 1.0
C      1  0.4999040000000  0.5847380000000  0.4724800000000 1.0
C      1  0.5242280000000  0.4166150000000  0.4854860000000 1.0
C      1  0.4760090000000  0.4234960000000  0.4862010000000 1.0
C      1  0.5013140000000  0.4155540000000  0.5283890000000 1.0
C      1  0.5237080000000  0.5818010000000  0.4859350000000 1.0
C      1  0.4745780000000  0.5872630000000  0.4868290000000 1.0
C      1  0.4995240000000  0.5845520000000  0.5282720000000 1.0
C      1  0.4724010000000  0.4529930000000  0.4792360000000 1.0
C      1  0.5152450000000  0.4648620000000  0.4837960000000 1.0
C      1  0.4957080000000  0.4672250000000  0.5318320000000 1.0
C      1  0.4840520000000  0.5470310000000  0.4838720000000 1.0
C      1  0.5355490000000  0.5368670000000  0.4843450000000 1.0
C      1  0.5101920000000  0.5363030000000  0.5300230000000 1.0
C      1  0.4736480000000  0.4534180000000  0.5203130000000 1.0
C      1  0.5182740000000  0.4640610000000  0.5129630000000 1.0
C      1  0.4938610000000  0.4676170000000  0.4659810000000 1.0
C      1  0.4804760000000  0.5429620000000  0.5135580000000 1.0
C      1  0.5360950000000  0.5365080000000  0.5135790000000 1.0
C      1  0.5085600000000  0.5351010000000  0.4707680000000 1.0
C      1  0.5687780000000  0.5567210000000  0.4865680000000 1.0
C      1  0.4761820000000  0.5481950000000  0.5645010000000 1.0
C      1  0.4665540000000  0.5523230000000  0.4617580000000 1.0
C      1  0.5652410000000  0.4531180000000  0.4895310000000 1.0
C      1  0.4792700000000  0.4440690000000  0.5705640000000 1.0
C      1  0.4622680000000  0.4438540000000  0.4541050000000 1.0
C      1  0.5671180000000  0.5561320000000  0.5130400000000 1.0
C      1  0.4765960000000  0.5482420000000  0.4349180000000 1.0
C      1  0.4661580000000  0.5529620000000  0.5384290000000 1.0
C      1  0.5507570000000  0.4607960000000  0.5133770000000 1.0
C      1  0.4778650000000  0.4432080000000  0.4299070000000 1.0
C      1  0.4639930000000  0.4441290000000  0.5458670000000 1.0
C      1  0.5023980000000  0.5076840000000  0.4767370000000 1.0
C      1  0.5014100000000  0.5073550000000  0.5277130000000 1.0
C      1  0.5238210000000  0.4918160000000  0.4861070000000 1.0
C      1  0.5213110000000  0.4946020000000  0.5154770000000 1.0
C      1  0.4762400000000  0.5012490000000  0.4859590000000 1.0
C      1  0.4754310000000  0.5109400000000  0.5135190000000 1.0
C      1  0.4571180000000  0.5070490000000  0.5854960000000 1.0
C      1  0.4541940000000  0.5036060000000  0.4143110000000 1.0
C      1  0.6071290000000  0.5010940000000  0.4990190000000 1.0
END
