TITL C-2441168-9922-36 0.00164175125270904 125000 -3569.03701530174 0 0 26 (C1) n - 1
REM
REM in /home/bkarasulu/work/CARBON/AIRSS/Generating-Clusters/ReaxFF-fromJPCA2015/Units_Real/with-SteepDescent/Higher-Symm
REM
REM
REM
REM
REM
REM ./C.cell (1df0a924f5614ab8850e4351716899ee)
REM
REM compiler GCC version 9.2.1 20190827 (Red Hat 9.2.1-1)
REM options -cpp -mtune=generic -march=x86-64 -g -O0 -fpre-include=/usr/include/finclude/math-vector-fortran.h
REM seed -1379259385 1604927759 -97527835 -1483292376 -998435427 -652805022 -1757494256 -1993819857 -1007027987 -1822406498 -1154063099 2104488621 -1603465042 -1054569183 -1433576687 -1562959907 -967419738 492063816 -1555408077 1263165730 -1394165630 -393186014 -1929858041 -874661843 -844592835 1835340094 -1324807410 -1696478436 -1853748643 246513460 1660695980 -1765614095 739077740
REM
CELL 1.54180   50.00000   50.00000   50.00000   90.00000   90.00000   90.00000
LATT -1
SFAC C  
C      1  0.5321880000000  0.5025030000000  0.4460210000000 1.0
C      1  0.4933300000000  0.5309160000000  0.5508980000000 1.0
C      1  0.4889330000000  0.5327670000000  0.4481650000000 1.0
C      1  0.4650050000000  0.5347230000000  0.5427650000000 1.0
C      1  0.5128040000000  0.4819010000000  0.4488860000000 1.0
C      1  0.5021880000000  0.5224110000000  0.5249840000000 1.0
C      1  0.4988260000000  0.5394620000000  0.5005190000000 1.0
C      1  0.4905640000000  0.4673780000000  0.5153450000000 1.0
C      1  0.5488840000000  0.4632660000000  0.5174950000000 1.0
C      1  0.4533330000000  0.5354480000000  0.5146350000000 1.0
C      1  0.5172150000000  0.5305900000000  0.4511090000000 1.0
C      1  0.5151360000000  0.5370060000000  0.4778750000000 1.0
C      1  0.5395810000000  0.4782320000000  0.4799380000000 1.0
C      1  0.5027910000000  0.4587370000000  0.5411080000000 1.0
C      1  0.4757630000000  0.4562320000000  0.4932340000000 1.0
C      1  0.4571030000000  0.5106110000000  0.5290390000000 1.0
C      1  0.5010830000000  0.5071040000000  0.5693990000000 1.0
C      1  0.4656880000000  0.4575520000000  0.4645280000000 1.0
C      1  0.4840760000000  0.4972400000000  0.5261820000000 1.0
C      1  0.5590580000000  0.4735230000000  0.4973210000000 1.0
C      1  0.4637120000000  0.5355310000000  0.4619670000000 1.0
C      1  0.4911930000000  0.4707390000000  0.4560220000000 1.0
C      1  0.4922990000000  0.4836720000000  0.5544560000000 1.0
C      1  0.5283750000000  0.4585350000000  0.5314040000000 1.0
C      1  0.5507010000000  0.4932970000000  0.4646890000000 1.0
C      1  0.4701700000000  0.5406230000000  0.4920180000000 1.0
END
