TITL C-2441156-4686-355 0.00551328084572452 125000 -8243.42548628686 0 0 60 (C1) n - 1
REM
REM in /home/bkarasulu/work/CARBON/AIRSS/Generating-Clusters/ReaxFF-fromJPCA2015/Units_Real/with-SteepDescent/Higher-Symm
REM
REM
REM
REM
REM
REM ./C.cell (1df0a924f5614ab8850e4351716899ee)
REM
REM compiler GCC version 9.2.1 20190827 (Red Hat 9.2.1-1)
REM options -cpp -mtune=generic -march=x86-64 -g -O0 -fpre-include=/usr/include/finclude/math-vector-fortran.h
REM seed -1597235464 942943923 151303731 -170012034 -835350680 755422714 499889199 -273963907 -2064117919 787981619 931063155 404175758 1981585345 2125356368 -378686514 2000758950 492788728 -2130997380 1361548429 -331434170 5569162 -1323892836 1153039895 -2059068387 -62223821 -1797794972 169368993 928453424 -628621573 -2040705540 1568447262 -677633261 -1759593217
REM
CELL 1.54180   50.00000   50.00000   50.00000   90.00000   90.00000   90.00000
LATT -1
SFAC C  
C      1  0.5045700000000  0.4356240000000  0.4725270000000 1.0
C      1  0.4716490000000  0.4342320000000  0.5130910000000 1.0
C      1  0.5227190000000  0.4359580000000  0.5210870000000 1.0
C      1  0.5289130000000  0.4598180000000  0.5061280000000 1.0
C      1  0.4852250000000  0.4577360000000  0.4740170000000 1.0
C      1  0.4819340000000  0.4578320000000  0.5272070000000 1.0
C      1  0.4669020000000  0.4877010000000  0.5227490000000 1.0
C      1  0.5416280000000  0.4844020000000  0.5186840000000 1.0
C      1  0.4876600000000  0.4882510000000  0.4695510000000 1.0
C      1  0.4995580000000  0.4509890000000  0.5528340000000 1.0
C      1  0.5435940000000  0.4517350000000  0.4787930000000 1.0
C      1  0.4545860000000  0.4495010000000  0.4765700000000 1.0
C      1  0.5310590000000  0.5471600000000  0.5470940000000 1.0
C      1  0.5239830000000  0.5461790000000  0.4625900000000 1.0
C      1  0.4409580000000  0.5416250000000  0.4980320000000 1.0
C      1  0.5266850000000  0.4394250000000  0.5492160000000 1.0
C      1  0.5275400000000  0.4412810000000  0.4560900000000 1.0
C      1  0.4454630000000  0.4386770000000  0.5026350000000 1.0
C      1  0.5293900000000  0.5601180000000  0.5692590000000 1.0
C      1  0.5395750000000  0.5552440000000  0.4451710000000 1.0
C      1  0.4224620000000  0.5584490000000  0.4964870000000 1.0
C      1  0.5062990000000  0.5262720000000  0.5383620000000 1.0
C      1  0.5335710000000  0.5261170000000  0.4854650000000 1.0
C      1  0.4469750000000  0.5260930000000  0.4717480000000 1.0
C      1  0.4806370000000  0.5398910000000  0.5422910000000 1.0
C      1  0.5545580000000  0.5384150000000  0.5012610000000 1.0
C      1  0.4665630000000  0.5392470000000  0.4559230000000 1.0
C      1  0.5023260000000  0.4775480000000  0.5596720000000 1.0
C      1  0.5493990000000  0.4780200000000  0.4721590000000 1.0
C      1  0.4436190000000  0.4740670000000  0.4702210000000 1.0
C      1  0.5693540000000  0.5255640000000  0.5204710000000 1.0
C      1  0.4877550000000  0.5290020000000  0.4435980000000 1.0
C      1  0.4563090000000  0.5306250000000  0.5418280000000 1.0
C      1  0.5540580000000  0.5479690000000  0.5275600000000 1.0
C      1  0.4916620000000  0.5506380000000  0.4636820000000 1.0
C      1  0.4646110000000  0.5485270000000  0.5200230000000 1.0
C      1  0.5444020000000  0.4878030000000  0.5477430000000 1.0
C      1  0.5254160000000  0.4930870000000  0.4419410000000 1.0
C      1  0.4366040000000  0.4862960000000  0.5207060000000 1.0
C      1  0.4963630000000  0.5016050000000  0.4458110000000 1.0
C      1  0.4510480000000  0.5030420000000  0.5410020000000 1.0
C      1  0.5643490000000  0.4983570000000  0.5275810000000 1.0
C      1  0.4274120000000  0.4588520000000  0.5169210000000 1.0
C      1  0.5462930000000  0.4598260000000  0.5586810000000 1.0
C      1  0.5272380000000  0.4641950000000  0.4362450000000 1.0
C      1  0.5422100000000  0.5033130000000  0.4655260000000 1.0
C      1  0.4430230000000  0.4991830000000  0.4697820000000 1.0
C      1  0.5070450000000  0.5021510000000  0.5548220000000 1.0
C      1  0.4914100000000  0.5485910000000  0.4978950000000 1.0
C      1  0.5006040000000  0.3942250000000  0.5025550000000 1.0
C      1  0.5006940000000  0.4231630000000  0.5026670000000 1.0
C      1  0.5003690000000  0.3690050000000  0.5023770000000 1.0
C      1  0.4910580000000  0.4980090000000  0.4977320000000 1.0
C      1  0.5016350000000  0.6268060000000  0.5030860000000 1.0
C      1  0.4988810000000  0.5757970000000  0.5018040000000 1.0
C      1  0.4995770000000  0.4694340000000  0.5041160000000 1.0
C      1  0.4997910000000  0.3442820000000  0.5021090000000 1.0
C      1  0.5071530000000  0.5232730000000  0.5047130000000 1.0
C      1  0.5009600000000  0.6512480000000  0.5026400000000 1.0
C      1  0.5015830000000  0.6008760000000  0.5031600000000 1.0
END
