TITL C-2441154-10-796 0.0742863072727028 125000 -25335.2743539672 0 0 183 (C1) n - 1
REM
REM in /home/bkarasulu/work/CARBON/AIRSS/Generating-Clusters/ReaxFF-fromJPCA2015/Units_Real/with-SteepDescent/Higher-Symm
REM
REM
REM
REM
REM
REM ./C.cell (1df0a924f5614ab8850e4351716899ee)
REM
REM compiler GCC version 9.2.1 20190827 (Red Hat 9.2.1-1)
REM options -cpp -mtune=generic -march=x86-64 -g -O0 -fpre-include=/usr/include/finclude/math-vector-fortran.h
REM seed -1154924600 280882751 576693690 1127404401 -1438180015 1004758798 -1958652817 -367998701 1634166295 -178118648 1054506319 1344933631 1559580694 1414277781 247437727 -493823031 1429863575 -216867236 1517423876 2106797376 -2004555610 851034494 -1220292624 -1729048553 -2090650495 -1318674714 -235225820 -1913271259 -854608016 732674986 -523821415 585644168 593315099
REM
CELL 1.54180   50.00000   50.00000   50.00000   90.00000   90.00000   90.00000
LATT -1
SFAC C  
C      1  0.4010710000000  0.4654670000000  0.5048630000000 1.0
C      1  0.4356350000000  0.4180140000000  0.5068280000000 1.0
C      1  0.4919690000000  0.3972710000000  0.5050890000000 1.0
C      1  0.5491850000000  0.4072830000000  0.5040640000000 1.0
C      1  0.5908760000000  0.4481260000000  0.5068620000000 1.0
C      1  0.6029050000000  0.5061340000000  0.5069420000000 1.0
C      1  0.5824150000000  0.5596940000000  0.5040690000000 1.0
C      1  0.5393350000000  0.5971870000000  0.5075820000000 1.0
C      1  0.4782310000000  0.6003400000000  0.5046840000000 1.0
C      1  0.4269750000000  0.5752730000000  0.5020200000000 1.0
C      1  0.3985940000000  0.5240920000000  0.5068920000000 1.0
C      1  0.4657600000000  0.5397440000000  0.4182890000000 1.0
C      1  0.4508120000000  0.5152650000000  0.4169610000000 1.0
C      1  0.4521570000000  0.4868620000000  0.4134540000000 1.0
C      1  0.4655790000000  0.4619170000000  0.4146430000000 1.0
C      1  0.4929250000000  0.4501050000000  0.4139280000000 1.0
C      1  0.5197130000000  0.4570980000000  0.4125330000000 1.0
C      1  0.5435160000000  0.4721050000000  0.4156340000000 1.0
C      1  0.5523700000000  0.4995800000000  0.4193470000000 1.0
C      1  0.5434800000000  0.5269000000000  0.4173980000000 1.0
C      1  0.5207330000000  0.5445340000000  0.4191630000000 1.0
C      1  0.4921670000000  0.5504930000000  0.4168380000000 1.0
C      1  0.4532400000000  0.4821020000000  0.5192390000000 1.0
C      1  0.4703210000000  0.4571420000000  0.5053300000000 1.0
C      1  0.4968290000000  0.4486600000000  0.5110990000000 1.0
C      1  0.5244640000000  0.4556890000000  0.5187600000000 1.0
C      1  0.5457910000000  0.4748350000000  0.5050330000000 1.0
C      1  0.5495440000000  0.5028250000000  0.5183280000000 1.0
C      1  0.5395900000000  0.5316560000000  0.5138540000000 1.0
C      1  0.5159480000000  0.5482270000000  0.5082970000000 1.0
C      1  0.4862400000000  0.5488230000000  0.5202280000000 1.0
C      1  0.4603830000000  0.5353950000000  0.5157390000000 1.0
C      1  0.4492640000000  0.5117550000000  0.5029450000000 1.0
C      1  0.4522070000000  0.3946450000000  0.5142700000000 1.0
C      1  0.5167090000000  0.3852720000000  0.5151050000000 1.0
C      1  0.5743760000000  0.4124890000000  0.5179030000000 1.0
C      1  0.6117420000000  0.4673460000000  0.5143140000000 1.0
C      1  0.6115810000000  0.5334330000000  0.5145520000000 1.0
C      1  0.5774480000000  0.5863700000000  0.5163920000000 1.0
C      1  0.5159750000000  0.6139690000000  0.5140500000000 1.0
C      1  0.4520470000000  0.6053640000000  0.5159770000000 1.0
C      1  0.4037780000000  0.5635930000000  0.5162910000000 1.0
C      1  0.3829230000000  0.5007910000000  0.5163950000000 1.0
C      1  0.4015430000000  0.4379630000000  0.5168280000000 1.0
C      1  0.4679430000000  0.4700530000000  0.5630570000000 1.0
C      1  0.4904760000000  0.4550270000000  0.5596890000000 1.0
C      1  0.5153250000000  0.4602250000000  0.5462950000000 1.0
C      1  0.5362890000000  0.4734890000000  0.5598690000000 1.0
C      1  0.5468630000000  0.4960670000000  0.5459680000000 1.0
C      1  0.5449900000000  0.5189530000000  0.5626260000000 1.0
C      1  0.5262760000000  0.5387660000000  0.5663300000000 1.0
C      1  0.5004880000000  0.5491720000000  0.5555970000000 1.0
C      1  0.4743210000000  0.5384610000000  0.5651010000000 1.0
C      1  0.4561470000000  0.5170660000000  0.5600830000000 1.0
C      1  0.4606110000000  0.4910430000000  0.5469030000000 1.0
C      1  0.5540580000000  0.4520480000000  0.4348000000000 1.0
C      1  0.5732280000000  0.5069940000000  0.4373090000000 1.0
C      1  0.5610290000000  0.5329820000000  0.4416240000000 1.0
C      1  0.5233690000000  0.5660180000000  0.4381700000000 1.0
C      1  0.4950570000000  0.5710610000000  0.4374370000000 1.0
C      1  0.4582020000000  0.5494220000000  0.4442370000000 1.0
C      1  0.4295460000000  0.5126690000000  0.4367360000000 1.0
C      1  0.4369150000000  0.4843890000000  0.4438760000000 1.0
C      1  0.4582940000000  0.4415030000000  0.4354180000000 1.0
C      1  0.4853580000000  0.4335010000000  0.4442820000000 1.0
C      1  0.5324290000000  0.4380470000000  0.4455800000000 1.0
C      1  0.5978090000000  0.4774770000000  0.5386700000000 1.0
C      1  0.5953200000000  0.5340600000000  0.5389190000000 1.0
C      1  0.5614400000000  0.5791180000000  0.5400970000000 1.0
C      1  0.5082630000000  0.5997110000000  0.5382930000000 1.0
C      1  0.4526140000000  0.5883740000000  0.5398590000000 1.0
C      1  0.4133760000000  0.5476770000000  0.5397170000000 1.0
C      1  0.3994250000000  0.4938500000000  0.5398140000000 1.0
C      1  0.4197120000000  0.4408950000000  0.5397960000000 1.0
C      1  0.4645200000000  0.4064420000000  0.5384050000000 1.0
C      1  0.5208080000000  0.4022320000000  0.5391350000000 1.0
C      1  0.5682310000000  0.4305590000000  0.5403580000000 1.0
C      1  0.4216040000000  0.4624430000000  0.5779360000000 1.0
C      1  0.4566840000000  0.4314080000000  0.5763960000000 1.0
C      1  0.4954050000000  0.4086100000000  0.5770190000000 1.0
C      1  0.5384420000000  0.4312140000000  0.5768090000000 1.0
C      1  0.5745580000000  0.4619490000000  0.5788280000000 1.0
C      1  0.5900550000000  0.5103260000000  0.5777000000000 1.0
C      1  0.5673500000000  0.5517590000000  0.5778390000000 1.0
C      1  0.5263860000000  0.5825730000000  0.5765180000000 1.0
C      1  0.4785190000000  0.5837180000000  0.5769920000000 1.0
C      1  0.4356610000000  0.5554560000000  0.5775890000000 1.0
C      1  0.4136920000000  0.5134470000000  0.5791510000000 1.0
C      1  0.4501010000000  0.4587910000000  0.5826520000000 1.0
C      1  0.4875500000000  0.4366810000000  0.5839910000000 1.0
C      1  0.5145430000000  0.4241540000000  0.5896850000000 1.0
C      1  0.5467650000000  0.4571490000000  0.5794740000000 1.0
C      1  0.5794560000000  0.4875650000000  0.5883380000000 1.0
C      1  0.5639290000000  0.5235950000000  0.5845280000000 1.0
C      1  0.5395510000000  0.5577260000000  0.5822420000000 1.0
C      1  0.5018390000000  0.5713990000000  0.5739550000000 1.0
C      1  0.4635920000000  0.5593220000000  0.5809370000000 1.0
C      1  0.4367670000000  0.5269930000000  0.5785350000000 1.0
C      1  0.4214770000000  0.4876310000000  0.5858190000000 1.0
C      1  0.4637100000000  0.4147870000000  0.4737640000000 1.0
C      1  0.5167120000000  0.4019880000000  0.4679700000000 1.0
C      1  0.5673890000000  0.4273880000000  0.4701200000000 1.0
C      1  0.5881450000000  0.4750250000000  0.4721340000000 1.0
C      1  0.5866440000000  0.5276350000000  0.4747160000000 1.0
C      1  0.5625000000000  0.5758780000000  0.4685910000000 1.0
C      1  0.5123920000000  0.5891260000000  0.4740570000000 1.0
C      1  0.4556710000000  0.5871010000000  0.4674820000000 1.0
C      1  0.4150800000000  0.5496200000000  0.4672000000000 1.0
C      1  0.4053080000000  0.4958210000000  0.4736610000000 1.0
C      1  0.4200280000000  0.4451870000000  0.4688150000000 1.0
C      1  0.4508340000000  0.5589790000000  0.5031020000000 1.0
C      1  0.4203370000000  0.5092410000000  0.4963700000000 1.0
C      1  0.4282790000000  0.4714680000000  0.5093160000000 1.0
C      1  0.4586680000000  0.4318680000000  0.4981420000000 1.0
C      1  0.5042700000000  0.4237170000000  0.5025700000000 1.0
C      1  0.5314970000000  0.4291480000000  0.5050030000000 1.0
C      1  0.5723760000000  0.4671460000000  0.4969650000000 1.0
C      1  0.5748090000000  0.5132010000000  0.5042710000000 1.0
C      1  0.5558060000000  0.5499550000000  0.5069010000000 1.0
C      1  0.5247090000000  0.5745480000000  0.4983870000000 1.0
C      1  0.4756610000000  0.5715720000000  0.5051150000000 1.0
C      1  0.4587860000000  0.5122700000000  0.4773610000000 1.0
C      1  0.4574490000000  0.4880800000000  0.4641850000000 1.0
C      1  0.4776380000000  0.4727040000000  0.4772410000000 1.0
C      1  0.4931330000000  0.4546740000000  0.4620290000000 1.0
C      1  0.5195560000000  0.4560400000000  0.4638710000000 1.0
C      1  0.5349950000000  0.4769450000000  0.4787020000000 1.0
C      1  0.5375750000000  0.5009770000000  0.4722500000000 1.0
C      1  0.5399980000000  0.5235340000000  0.4662010000000 1.0
C      1  0.5167640000000  0.5396680000000  0.4792850000000 1.0
C      1  0.4941340000000  0.5374070000000  0.4731670000000 1.0
C      1  0.4702410000000  0.5350220000000  0.4667010000000 1.0
C      1  0.5891490000000  0.5014040000000  0.4599680000000 1.0
C      1  0.5749670000000  0.5504940000000  0.4606950000000 1.0
C      1  0.5369880000000  0.5807340000000  0.4575230000000 1.0
C      1  0.4840270000000  0.5859110000000  0.4596290000000 1.0
C      1  0.4383040000000  0.5663190000000  0.4562580000000 1.0
C      1  0.4133260000000  0.5240050000000  0.4561740000000 1.0
C      1  0.4158990000000  0.4722440000000  0.4595160000000 1.0
C      1  0.4421660000000  0.4328840000000  0.4562760000000 1.0
C      1  0.4894460000000  0.4097330000000  0.4606150000000 1.0
C      1  0.5407440000000  0.4153170000000  0.4595400000000 1.0
C      1  0.5741340000000  0.4502420000000  0.4557720000000 1.0
C      1  0.4681390000000  0.3906310000000  0.4901710000000 1.0
C      1  0.5312870000000  0.3884420000000  0.4896370000000 1.0
C      1  0.5851620000000  0.4229910000000  0.4932980000000 1.0
C      1  0.6110590000000  0.4835260000000  0.4902140000000 1.0
C      1  0.6036790000000  0.5458040000000  0.4895980000000 1.0
C      1  0.5637780000000  0.5941200000000  0.4921420000000 1.0
C      1  0.5000670000000  0.6125570000000  0.4896680000000 1.0
C      1  0.4400290000000  0.5984850000000  0.4906700000000 1.0
C      1  0.3969160000000  0.5493850000000  0.4915370000000 1.0
C      1  0.3841300000000  0.4855900000000  0.4923700000000 1.0
C      1  0.4127360000000  0.4280330000000  0.4923670000000 1.0
C      1  0.5823100000000  0.4557070000000  0.5505340000000 1.0
C      1  0.5968480000000  0.5066330000000  0.5488360000000 1.0
C      1  0.5766320000000  0.5563790000000  0.5507300000000 1.0
C      1  0.5337320000000  0.5898320000000  0.5492680000000 1.0
C      1  0.4793000000000  0.5939840000000  0.5497300000000 1.0
C      1  0.4322270000000  0.5664500000000  0.5509200000000 1.0
C      1  0.4067280000000  0.5192690000000  0.5507510000000 1.0
C      1  0.4107810000000  0.4657820000000  0.5507200000000 1.0
C      1  0.4455880000000  0.4245270000000  0.5512650000000 1.0
C      1  0.4930360000000  0.4030970000000  0.5491230000000 1.0
C      1  0.5433030000000  0.4192670000000  0.5507430000000 1.0
C      1  0.5000260000000  0.4997310000000  0.3190890000000 1.0
C      1  0.5000330000000  0.4997490000000  0.7232710000000 1.0
C      1  0.5002180000000  0.5001420000000  0.4252870000000 1.0
C      1  0.5000700000000  0.4997880000000  0.3452900000000 1.0
C      1  0.4996980000000  0.4992860000000  0.4528510000000 1.0
C      1  0.5001390000000  0.5001760000000  0.5929230000000 1.0
C      1  0.5000250000000  0.4997390000000  0.6985320000000 1.0
C      1  0.5001710000000  0.4999860000000  0.3717080000000 1.0
C      1  0.4999410000000  0.5007150000000  0.5657750000000 1.0
C      1  0.4992980000000  0.5013960000000  0.5378630000000 1.0
C      1  0.5000230000000  0.4997380000000  0.6460710000000 1.0
C      1  0.4969510000000  0.4938910000000  0.4827560000000 1.0
C      1  0.5000250000000  0.4997490000000  0.2681210000000 1.0
C      1  0.5000810000000  0.4998820000000  0.6195870000000 1.0
C      1  0.5000150000000  0.4997220000000  0.6722980000000 1.0
C      1  0.5002850000000  0.5002420000000  0.3983150000000 1.0
C      1  0.5000200000000  0.4997350000000  0.2928600000000 1.0
C      1  0.4995860000000  0.4996620000000  0.5101310000000 1.0
END
