TITL C-2441160-1326-1155 0.175162898401999 125000 -17202.6880537608 0 0 149 (C1) n - 1
REM
REM in /home/bkarasulu/work/CARBON/AIRSS/Generating-Clusters/ReaxFF-fromJPCA2015/Units_Real/with-SteepDescent/Higher-Symm
REM
REM
REM
REM
REM
REM ./C.cell (1df0a924f5614ab8850e4351716899ee)
REM
REM compiler GCC version 9.2.1 20190827 (Red Hat 9.2.1-1)
REM options -cpp -mtune=generic -march=x86-64 -g -O0 -fpre-include=/usr/include/finclude/math-vector-fortran.h
REM seed 1971739995 1029236267 54504411 -369007590 1791744502 -7491268 998432997 -1841936887 1067516504 -234255620 227054339 -257405088 -2054796190 -1792303219 195329953 -634975500 -70870890 1423109631 1550706755 -1828713485 -1556194809 -1108922204 -1827622156 247127338 225810053 -40380131 -26162139 1348333559 -276177919 -54845470 1273117743 1449065948 1166739853
REM
CELL 1.54180   50.00000   50.00000   50.00000   90.00000   90.00000   90.00000
LATT -1
SFAC C  
C      1  0.4098340000000  0.4824670000000  0.5507260000000 1.0
C      1  0.5936570000000  0.5187590000000  0.5552300000000 1.0
C      1  0.4049780000000  0.4753910000000  0.4523200000000 1.0
C      1  0.5895050000000  0.5229230000000  0.4550390000000 1.0
C      1  0.4057250000000  0.5201160000000  0.5582390000000 1.0
C      1  0.5937560000000  0.4797690000000  0.5570620000000 1.0
C      1  0.4096130000000  0.5229230000000  0.4559110000000 1.0
C      1  0.5994870000000  0.4757420000000  0.4555100000000 1.0
C      1  0.4863350000000  0.4224840000000  0.4769100000000 1.0
C      1  0.5140830000000  0.5789220000000  0.4778490000000 1.0
C      1  0.4833420000000  0.4230370000000  0.5233100000000 1.0
C      1  0.5130420000000  0.5790010000000  0.5264900000000 1.0
C      1  0.4863680000000  0.5791900000000  0.4779530000000 1.0
C      1  0.5136010000000  0.4209530000000  0.4774650000000 1.0
C      1  0.4869440000000  0.5790910000000  0.5263760000000 1.0
C      1  0.5105450000000  0.4208610000000  0.5250080000000 1.0
C      1  0.4482440000000  0.5596490000000  0.5403570000000 1.0
C      1  0.5514180000000  0.4395790000000  0.5406060000000 1.0
C      1  0.4489630000000  0.5578370000000  0.4562250000000 1.0
C      1  0.5512700000000  0.4405310000000  0.4563520000000 1.0
C      1  0.4498480000000  0.4432320000000  0.5471210000000 1.0
C      1  0.5513170000000  0.5591910000000  0.5404940000000 1.0
C      1  0.4511260000000  0.4407390000000  0.4533850000000 1.0
C      1  0.5505360000000  0.5570880000000  0.4571000000000 1.0
C      1  0.5991070000000  0.4843890000000  0.5073950000000 1.0
C      1  0.4006940000000  0.5116390000000  0.5116660000000 1.0
C      1  0.6072790000000  0.4899060000000  0.4802360000000 1.0
C      1  0.3959070000000  0.5141430000000  0.4824740000000 1.0
C      1  0.6009500000000  0.5126760000000  0.5136740000000 1.0
C      1  0.4013360000000  0.4821580000000  0.5100900000000 1.0
C      1  0.6045200000000  0.5208580000000  0.4835420000000 1.0
C      1  0.3953850000000  0.4844700000000  0.4816370000000 1.0
C      1  0.4258800000000  0.4621470000000  0.5123820000000 1.0
C      1  0.5730980000000  0.5281850000000  0.5182710000000 1.0
C      1  0.4342470000000  0.4625590000000  0.4833390000000 1.0
C      1  0.5808960000000  0.5391860000000  0.4917410000000 1.0
C      1  0.4289870000000  0.5288760000000  0.5174310000000 1.0
C      1  0.5742450000000  0.4713850000000  0.5151760000000 1.0
C      1  0.4221630000000  0.5394390000000  0.4921670000000 1.0
C      1  0.5619050000000  0.4688060000000  0.4866270000000 1.0
C      1  0.5366320000000  0.4827760000000  0.4900490000000 1.0
C      1  0.4580940000000  0.5103590000000  0.4788480000000 1.0
C      1  0.5349900000000  0.4779260000000  0.5198090000000 1.0
C      1  0.4535340000000  0.5159950000000  0.5068360000000 1.0
C      1  0.5442670000000  0.5106200000000  0.4827710000000 1.0
C      1  0.4586640000000  0.4797610000000  0.4884590000000 1.0
C      1  0.5484360000000  0.5210390000000  0.5075470000000 1.0
C      1  0.4544360000000  0.4860480000000  0.5178860000000 1.0
C      1  0.4764220000000  0.5313010000000  0.5142510000000 1.0
C      1  0.5144830000000  0.4596640000000  0.5127160000000 1.0
C      1  0.4881730000000  0.5377690000000  0.4890840000000 1.0
C      1  0.5135610000000  0.4626950000000  0.4844350000000 1.0
C      1  0.4890710000000  0.4690980000000  0.5203100000000 1.0
C      1  0.5250510000000  0.5332410000000  0.5154590000000 1.0
C      1  0.4836450000000  0.4667280000000  0.4780000000000 1.0
C      1  0.5157400000000  0.5365100000000  0.4885750000000 1.0
C      1  0.4357190000000  0.4901690000000  0.5402360000000 1.0
C      1  0.5706560000000  0.5121850000000  0.5404950000000 1.0
C      1  0.4309800000000  0.4850470000000  0.4594580000000 1.0
C      1  0.5639140000000  0.5095730000000  0.4614910000000 1.0
C      1  0.4274230000000  0.5147920000000  0.5410000000000 1.0
C      1  0.5715850000000  0.4870580000000  0.5399790000000 1.0
C      1  0.4358690000000  0.5106030000000  0.4603670000000 1.0
C      1  0.5712640000000  0.4830330000000  0.4630980000000 1.0
C      1  0.4484550000000  0.5678570000000  0.5117080000000 1.0
C      1  0.5523520000000  0.4313710000000  0.5115610000000 1.0
C      1  0.4387120000000  0.5587560000000  0.4847580000000 1.0
C      1  0.5587380000000  0.4401580000000  0.4847190000000 1.0
C      1  0.4418030000000  0.4396580000000  0.5209650000000 1.0
C      1  0.5521860000000  0.5677790000000  0.5111830000000 1.0
C      1  0.4446360000000  0.4345070000000  0.4804670000000 1.0
C      1  0.5619490000000  0.5585130000000  0.4845120000000 1.0
C      1  0.4875540000000  0.4690760000000  0.4077550000000 1.0
C      1  0.5146660000000  0.5319480000000  0.4081790000000 1.0
C      1  0.4872500000000  0.4695140000000  0.5921410000000 1.0
C      1  0.5133720000000  0.5310910000000  0.5924860000000 1.0
C      1  0.4864920000000  0.5315070000000  0.4094090000000 1.0
C      1  0.5154620000000  0.4689730000000  0.4093880000000 1.0
C      1  0.4854280000000  0.5306070000000  0.5919590000000 1.0
C      1  0.5163650000000  0.4698390000000  0.5910420000000 1.0
C      1  0.4750360000000  0.5689300000000  0.4520400000000 1.0
C      1  0.5250800000000  0.4310520000000  0.4514850000000 1.0
C      1  0.4746760000000  0.5680530000000  0.5503800000000 1.0
C      1  0.5241190000000  0.4314660000000  0.5495980000000 1.0
C      1  0.4768400000000  0.4319840000000  0.4492470000000 1.0
C      1  0.5250700000000  0.5679680000000  0.4530450000000 1.0
C      1  0.4757420000000  0.4315310000000  0.5509370000000 1.0
C      1  0.5249810000000  0.5675700000000  0.5509200000000 1.0
C      1  0.4866280000000  0.4022120000000  0.5649860000000 1.0
C      1  0.5131950000000  0.5977390000000  0.5656210000000 1.0
C      1  0.4870400000000  0.4021800000000  0.4359400000000 1.0
C      1  0.5133670000000  0.5962980000000  0.4368020000000 1.0
C      1  0.4870070000000  0.5981060000000  0.5648440000000 1.0
C      1  0.5136100000000  0.4022370000000  0.5645670000000 1.0
C      1  0.4857110000000  0.5971400000000  0.4363430000000 1.0
C      1  0.5141660000000  0.4022830000000  0.4370610000000 1.0
C      1  0.4856530000000  0.5186410000000  0.5386400000000 1.0
C      1  0.5183070000000  0.4904560000000  0.5412520000000 1.0
C      1  0.4816040000000  0.5231980000000  0.4633520000000 1.0
C      1  0.5141380000000  0.4889850000000  0.4555000000000 1.0
C      1  0.4893000000000  0.4853620000000  0.5434190000000 1.0
C      1  0.5150870000000  0.5204810000000  0.5397920000000 1.0
C      1  0.4884070000000  0.4786800000000  0.4534580000000 1.0
C      1  0.5104740000000  0.5177420000000  0.4594830000000 1.0
C      1  0.5151390000000  0.4441200000000  0.4243760000000 1.0
C      1  0.4868030000000  0.5557470000000  0.4257730000000 1.0
C      1  0.5152490000000  0.4441770000000  0.5761950000000 1.0
C      1  0.4852330000000  0.5561330000000  0.5775470000000 1.0
C      1  0.5149930000000  0.5570090000000  0.4236100000000 1.0
C      1  0.4867740000000  0.4439930000000  0.4232280000000 1.0
C      1  0.5138090000000  0.5558680000000  0.5775880000000 1.0
C      1  0.4871260000000  0.4442850000000  0.5776150000000 1.0
C      1  0.4747570000000  0.4855420000000  0.5731580000000 1.0
C      1  0.5276380000000  0.5169790000000  0.5734410000000 1.0
C      1  0.4740410000000  0.4859810000000  0.4279230000000 1.0
C      1  0.5260350000000  0.5157870000000  0.4272620000000 1.0
C      1  0.4740520000000  0.5144970000000  0.5722370000000 1.0
C      1  0.5244010000000  0.4886120000000  0.5707560000000 1.0
C      1  0.4726600000000  0.5150860000000  0.4279150000000 1.0
C      1  0.5263660000000  0.4867660000000  0.4275370000000 1.0
C      1  0.4464650000000  0.4867760000000  0.5794080000000 1.0
C      1  0.5562600000000  0.5127230000000  0.5788040000000 1.0
C      1  0.4434570000000  0.4851750000000  0.4205680000000 1.0
C      1  0.5541170000000  0.5138020000000  0.4215840000000 1.0
C      1  0.4452460000000  0.5153480000000  0.5782480000000 1.0
C      1  0.5529750000000  0.4844970000000  0.5798530000000 1.0
C      1  0.4444200000000  0.5134100000000  0.4202500000000 1.0
C      1  0.5555100000000  0.4854480000000  0.4219740000000 1.0
C      1  0.4392670000000  0.5429250000000  0.5640870000000 1.0
C      1  0.5605260000000  0.4561700000000  0.5631360000000 1.0
C      1  0.4380980000000  0.5428180000000  0.4332800000000 1.0
C      1  0.5612130000000  0.4580230000000  0.4335310000000 1.0
C      1  0.4388880000000  0.4599070000000  0.5699310000000 1.0
C      1  0.5615460000000  0.5426720000000  0.5631550000000 1.0
C      1  0.4371550000000  0.4566360000000  0.4318610000000 1.0
C      1  0.5599460000000  0.5421000000000  0.4323420000000 1.0
C      1  0.4102340000000  0.4513570000000  0.4388390000000 1.0
C      1  0.5865500000000  0.5462150000000  0.4402200000000 1.0
C      1  0.4097860000000  0.4548280000000  0.5614110000000 1.0
C      1  0.5884380000000  0.5456760000000  0.5582550000000 1.0
C      1  0.4119730000000  0.5466530000000  0.4419770000000 1.0
C      1  0.5873560000000  0.4533990000000  0.4430270000000 1.0
C      1  0.4128420000000  0.5463700000000  0.5585040000000 1.0
C      1  0.5866910000000  0.4538090000000  0.5571380000000 1.0
C      1  0.4716240000000  0.5822020000000  0.5031080000000 1.0
C      1  0.5285930000000  0.4176490000000  0.5026670000000 1.0
C      1  0.5288050000000  0.5821460000000  0.5031330000000 1.0
C      1  0.4664250000000  0.4221660000000  0.4987070000000 1.0
C      1  0.4959840000000  0.4941320000000  0.5019500000000 1.0
END
