TITL C-2441158-471-814 0.0421403771461612 125000 -12612.2672762491 0 0 93 (C1) n - 1
REM
REM in /home/bkarasulu/work/CARBON/AIRSS/Generating-Clusters/ReaxFF-fromJPCA2015/Units_Real/with-SteepDescent/Higher-Symm
REM
REM
REM
REM
REM
REM ./C.cell (1df0a924f5614ab8850e4351716899ee)
REM
REM compiler GCC version 9.2.1 20190827 (Red Hat 9.2.1-1)
REM options -cpp -mtune=generic -march=x86-64 -g -O0 -fpre-include=/usr/include/finclude/math-vector-fortran.h
REM seed 1974357967 -1353735113 -843067409 -2072891219 -2096996133 914206284 1648606990 -892854520 -1971718434 -18783860 1040846773 -806560217 254134545 661804298 -205513306 1656093496 1722103045 -1316010981 -476684572 2034320153 -1749177598 -768740155 1144083103 252581092 -991394969 -537671873 1051758613 1403938017 -741541870 663348136 464966608 -1221366876 -724238045
REM
CELL 1.54180   50.00000   50.00000   50.00000   90.00000   90.00000   90.00000
LATT -1
SFAC C  
C      1  0.5714940000000  0.4587240000000  0.4885960000000 1.0
C      1  0.5160430000000  0.4594150000000  0.4354160000000 1.0
C      1  0.4383010000000  0.4595240000000  0.4653930000000 1.0
C      1  0.4446680000000  0.4560400000000  0.5353420000000 1.0
C      1  0.5311730000000  0.4620130000000  0.5714800000000 1.0
C      1  0.4077050000000  0.5033580000000  0.4984070000000 1.0
C      1  0.4726200000000  0.4995600000000  0.5804520000000 1.0
C      1  0.5672210000000  0.5033810000000  0.5516170000000 1.0
C      1  0.5660090000000  0.5019260000000  0.4498030000000 1.0
C      1  0.4725040000000  0.5001280000000  0.4181670000000 1.0
C      1  0.4629790000000  0.4345570000000  0.5021210000000 1.0
C      1  0.5006360000000  0.4311580000000  0.5401530000000 1.0
C      1  0.5363880000000  0.4319540000000  0.5105810000000 1.0
C      1  0.5193020000000  0.4298320000000  0.4711030000000 1.0
C      1  0.4711640000000  0.4235400000000  0.4750740000000 1.0
C      1  0.4788840000000  0.4335390000000  0.5578230000000 1.0
C      1  0.5512830000000  0.4378010000000  0.5337710000000 1.0
C      1  0.5371700000000  0.4401540000000  0.4497710000000 1.0
C      1  0.4690110000000  0.4382740000000  0.4497080000000 1.0
C      1  0.4355600000000  0.4374650000000  0.5123220000000 1.0
C      1  0.4480370000000  0.5361340000000  0.5530440000000 1.0
C      1  0.5320040000000  0.5363410000000  0.5618330000000 1.0
C      1  0.5698270000000  0.5360910000000  0.4849260000000 1.0
C      1  0.5074290000000  0.5358320000000  0.4279070000000 1.0
C      1  0.4336290000000  0.5348140000000  0.4686650000000 1.0
C      1  0.5872250000000  0.4971530000000  0.5165970000000 1.0
C      1  0.5404270000000  0.4970240000000  0.4186280000000 1.0
C      1  0.4338980000000  0.4987690000000  0.4345570000000 1.0
C      1  0.4154240000000  0.4982540000000  0.5391300000000 1.0
C      1  0.5128010000000  0.4990960000000  0.5903020000000 1.0
C      1  0.5187620000000  0.4855240000000  0.4219990000000 1.0
C      1  0.4231920000000  0.4849060000000  0.4557900000000 1.0
C      1  0.4347070000000  0.4844360000000  0.5528640000000 1.0
C      1  0.5331960000000  0.4885970000000  0.5819020000000 1.0
C      1  0.5841180000000  0.4863820000000  0.4907810000000 1.0
C      1  0.5038860000000  0.5375720000000  0.5697770000000 1.0
C      1  0.5701650000000  0.5401050000000  0.5138540000000 1.0
C      1  0.5351850000000  0.5382020000000  0.4368540000000 1.0
C      1  0.4499730000000  0.5390100000000  0.4453750000000 1.0
C      1  0.4306580000000  0.5393130000000  0.5296100000000 1.0
C      1  0.5102210000000  0.4582670000000  0.5515740000000 1.0
C      1  0.5463150000000  0.4564900000000  0.4988890000000 1.0
C      1  0.5029240000000  0.4539260000000  0.4664520000000 1.0
C      1  0.4668170000000  0.4643100000000  0.4719350000000 1.0
C      1  0.4699240000000  0.4583220000000  0.5197190000000 1.0
C      1  0.5303100000000  0.5066140000000  0.4788830000000 1.0
C      1  0.4809400000000  0.5062170000000  0.4589260000000 1.0
C      1  0.4513190000000  0.5005060000000  0.5019970000000 1.0
C      1  0.4881480000000  0.5039400000000  0.5356000000000 1.0
C      1  0.5341670000000  0.4919770000000  0.5249630000000 1.0
C      1  0.5251380000000  0.5431640000000  0.4634770000000 1.0
C      1  0.4740120000000  0.5368480000000  0.4629620000000 1.0
C      1  0.4547470000000  0.5381860000000  0.5130720000000 1.0
C      1  0.4943950000000  0.5337600000000  0.5411040000000 1.0
C      1  0.5430270000000  0.5501440000000  0.5130850000000 1.0
C      1  0.4864400000000  0.4506660000000  0.4298540000000 1.0
C      1  0.4251530000000  0.4553350000000  0.4912920000000 1.0
C      1  0.4559680000000  0.4490530000000  0.5645010000000 1.0
C      1  0.5548330000000  0.4545430000000  0.5557740000000 1.0
C      1  0.5623830000000  0.4507440000000  0.4613460000000 1.0
C      1  0.5530430000000  0.4769590000000  0.4577250000000 1.0
C      1  0.4734440000000  0.4756600000000  0.4327140000000 1.0
C      1  0.4278250000000  0.4825010000000  0.5020620000000 1.0
C      1  0.4704840000000  0.4722810000000  0.5725050000000 1.0
C      1  0.5578070000000  0.4791020000000  0.5376620000000 1.0
C      1  0.4700820000000  0.5468900000000  0.5365780000000 1.0
C      1  0.5261550000000  0.5468780000000  0.5358920000000 1.0
C      1  0.5437330000000  0.5498240000000  0.4836130000000 1.0
C      1  0.4988280000000  0.5487020000000  0.4524830000000 1.0
C      1  0.4539810000000  0.5450520000000  0.4861000000000 1.0
C      1  0.4173500000000  0.5100890000000  0.4714500000000 1.0
C      1  0.4488520000000  0.5084250000000  0.5634340000000 1.0
C      1  0.5460380000000  0.5109810000000  0.5691920000000 1.0
C      1  0.5773870000000  0.5101480000000  0.4748470000000 1.0
C      1  0.5016280000000  0.5078660000000  0.4183480000000 1.0
C      1  0.5802940000000  0.5195860000000  0.5318810000000 1.0
C      1  0.5512670000000  0.5164980000000  0.4305360000000 1.0
C      1  0.4491210000000  0.5193890000000  0.4238290000000 1.0
C      1  0.4090120000000  0.5202810000000  0.5234340000000 1.0
C      1  0.4961780000000  0.5168240000000  0.5868800000000 1.0
C      1  0.5092990000000  0.4846610000000  0.5376560000000 1.0
C      1  0.5307520000000  0.4802640000000  0.4983940000000 1.0
C      1  0.5061510000000  0.4953380000000  0.4669160000000 1.0
C      1  0.4643780000000  0.4925140000000  0.4766160000000 1.0
C      1  0.4713310000000  0.4880320000000  0.5193920000000 1.0
C      1  0.4976220000000  0.6204920000000  0.4988030000000 1.0
C      1  0.5138280000000  0.5192860000000  0.5009690000000 1.0
C      1  0.4969540000000  0.5708810000000  0.5000510000000 1.0
C      1  0.5012280000000  0.5463190000000  0.5011680000000 1.0
C      1  0.4963710000000  0.5962410000000  0.4993910000000 1.0
C      1  0.5037690000000  0.4739010000000  0.4855400000000 1.0
C      1  0.5078820000000  0.4237560000000  0.5119020000000 1.0
C      1  0.4970320000000  0.4155320000000  0.4858730000000 1.0
END
