TITL C-2441164-471-28 0.0150027507690935 125000 -5901.41639752631 0 0 48 (C1) n - 1
REM
REM in /home/bkarasulu/work/CARBON/AIRSS/Generating-Clusters/ReaxFF-fromJPCA2015/Units_Real/with-SteepDescent/Higher-Symm
REM
REM
REM
REM
REM
REM ./C.cell (1df0a924f5614ab8850e4351716899ee)
REM
REM compiler GCC version 9.2.1 20190827 (Red Hat 9.2.1-1)
REM options -cpp -mtune=generic -march=x86-64 -g -O0 -fpre-include=/usr/include/finclude/math-vector-fortran.h
REM seed -733182106 650990040 1123327701 -1156396938 -770206529 31826676 909232457 529228541 -876862369 541338332 1969016803 -1827700699 1362888078 -1506391477 1318408275 894186717 -1241566628 -2113998849 819020235 1221314438 237166777 -1063040924 1714013064 434756264 -2062934999 2139748744 -1039905359 522128999 499803324 355689019 2118148651 -960004074 -1348852735
REM
CELL 1.54180   50.00000   50.00000   50.00000   90.00000   90.00000   90.00000
LATT -1
SFAC C  
C      1  0.5000230000000  0.4376070000000  0.4884990000000 1.0
C      1  0.4980510000000  0.4922640000000  0.4384840000000 1.0
C      1  0.5000390000000  0.5578610000000  0.4731790000000 1.0
C      1  0.5003130000000  0.5439200000000  0.5467460000000 1.0
C      1  0.4999840000000  0.4688270000000  0.5550060000000 1.0
C      1  0.4999170000000  0.5386740000000  0.5208600000000 1.0
C      1  0.5016750000000  0.4929940000000  0.5399550000000 1.0
C      1  0.5002030000000  0.4552320000000  0.5095570000000 1.0
C      1  0.4996600000000  0.4812910000000  0.4646430000000 1.0
C      1  0.5006100000000  0.5312180000000  0.4696470000000 1.0
C      1  0.5284900000000  0.5208820000000  0.4703170000000 1.0
C      1  0.5282950000000  0.5339160000000  0.5074960000000 1.0
C      1  0.5279320000000  0.5054080000000  0.5360990000000 1.0
C      1  0.5281810000000  0.4645990000000  0.5142870000000 1.0
C      1  0.5278950000000  0.4763060000000  0.4763790000000 1.0
C      1  0.5266370000000  0.4968910000000  0.4350660000000 1.0
C      1  0.5288070000000  0.5633900000000  0.4763900000000 1.0
C      1  0.5291070000000  0.5434950000000  0.5526580000000 1.0
C      1  0.5286700000000  0.4650210000000  0.5563040000000 1.0
C      1  0.5284570000000  0.4349030000000  0.4834080000000 1.0
C      1  0.5397300000000  0.5214720000000  0.4439070000000 1.0
C      1  0.5398120000000  0.5616720000000  0.5034180000000 1.0
C      1  0.5406900000000  0.5176200000000  0.5605240000000 1.0
C      1  0.5407220000000  0.4492900000000  0.5345220000000 1.0
C      1  0.5391680000000  0.4521480000000  0.4619270000000 1.0
C      1  0.4672860000000  0.4707750000000  0.5489160000000 1.0
C      1  0.4664560000000  0.4459730000000  0.4883860000000 1.0
C      1  0.4670480000000  0.4932830000000  0.4428520000000 1.0
C      1  0.4663960000000  0.5533660000000  0.4769460000000 1.0
C      1  0.4644550000000  0.5378920000000  0.5433120000000 1.0
C      1  0.5445570000000  0.5417260000000  0.4638570000000 1.0
C      1  0.5446980000000  0.5468130000000  0.5277800000000 1.0
C      1  0.5449710000000  0.4897660000000  0.5540700000000 1.0
C      1  0.5449960000000  0.4447370000000  0.5064230000000 1.0
C      1  0.5435910000000  0.4786870000000  0.4514420000000 1.0
C      1  0.4544540000000  0.4715550000000  0.4817850000000 1.0
C      1  0.4548250000000  0.5082070000000  0.4646940000000 1.0
C      1  0.4539560000000  0.5363220000000  0.4965700000000 1.0
C      1  0.4529800000000  0.5126090000000  0.5346210000000 1.0
C      1  0.4562410000000  0.4729270000000  0.5228770000000 1.0
C      1  0.4719330000000  0.5309410000000  0.4589650000000 1.0
C      1  0.4702090000000  0.5496110000000  0.5173170000000 1.0
C      1  0.4717310000000  0.4994730000000  0.5525020000000 1.0
C      1  0.4717650000000  0.4524900000000  0.5142110000000 1.0
C      1  0.4720490000000  0.4728420000000  0.4607520000000 1.0
C      1  0.5053450000000  0.4986670000000  0.5008340000000 1.0
C      1  0.4834910000000  0.5000740000000  0.5008760000000 1.0
C      1  0.4522480000000  0.5021920000000  0.5014980000000 1.0
END
