TITL C-2441161-5029-1188 0.136925655326136 125000 -21788.1518409651 0 0 174 (C1) n - 1
REM
REM in /home/bkarasulu/work/CARBON/AIRSS/Generating-Clusters/ReaxFF-fromJPCA2015/Units_Real/with-SteepDescent/Higher-Symm
REM
REM
REM
REM
REM
REM ./C.cell (1df0a924f5614ab8850e4351716899ee)
REM
REM compiler GCC version 9.2.1 20190827 (Red Hat 9.2.1-1)
REM options -cpp -mtune=generic -march=x86-64 -g -O0 -fpre-include=/usr/include/finclude/math-vector-fortran.h
REM seed -1867306483 -962293393 -1479484346 286501604 -918420627 -1066403527 -1517895615 -793617679 1077567154 1474397796 -423325664 -927072943 1896526258 -2011066986 -535962857 1659544069 1618350650 -2452562 1027084517 1032090962 -279468681 176951360 1597792632 -1293016336 -1204818855 -2142222340 -912695416 -202914421 1542982418 2031293769 -1727645394 -293680140 -102675151
REM
CELL 1.54180   50.00000   50.00000   50.00000   90.00000   90.00000   90.00000
LATT -1
SFAC C  
C      1  0.4597340000000  0.5064350000000  0.4619830000000 1.0
C      1  0.5059050000000  0.5067720000000  0.4430420000000 1.0
C      1  0.5446880000000  0.5077030000000  0.4703830000000 1.0
C      1  0.5547040000000  0.5061950000000  0.5176070000000 1.0
C      1  0.5176300000000  0.5054750000000  0.5490170000000 1.0
C      1  0.4722680000000  0.5058700000000  0.5500660000000 1.0
C      1  0.4460970000000  0.4998480000000  0.5085630000000 1.0
C      1  0.4820780000000  0.4076120000000  0.4608280000000 1.0
C      1  0.5068160000000  0.4242760000000  0.4596520000000 1.0
C      1  0.5496740000000  0.4111390000000  0.4863330000000 1.0
C      1  0.5434070000000  0.4088150000000  0.5311480000000 1.0
C      1  0.5014260000000  0.4079950000000  0.5401290000000 1.0
C      1  0.4633390000000  0.4236990000000  0.5197600000000 1.0
C      1  0.4554000000000  0.4032850000000  0.4987350000000 1.0
C      1  0.5613480000000  0.5387700000000  0.4236990000000 1.0
C      1  0.5988150000000  0.5281500000000  0.4963050000000 1.0
C      1  0.5591940000000  0.5350470000000  0.5749460000000 1.0
C      1  0.4865970000000  0.5429290000000  0.5932500000000 1.0
C      1  0.4141540000000  0.5236110000000  0.5431330000000 1.0
C      1  0.4141800000000  0.5395480000000  0.4622690000000 1.0
C      1  0.4776990000000  0.5356200000000  0.4077020000000 1.0
C      1  0.5731740000000  0.5153020000000  0.4333570000000 1.0
C      1  0.5997050000000  0.5137200000000  0.5200680000000 1.0
C      1  0.5508710000000  0.5095780000000  0.5866390000000 1.0
C      1  0.4646030000000  0.5213590000000  0.5901290000000 1.0
C      1  0.4073830000000  0.5212570000000  0.5145290000000 1.0
C      1  0.4149780000000  0.5184230000000  0.4450780000000 1.0
C      1  0.4907730000000  0.5124240000000  0.4009750000000 1.0
C      1  0.5492400000000  0.4288250000000  0.5677800000000 1.0
C      1  0.4816720000000  0.4270920000000  0.5762390000000 1.0
C      1  0.4235770000000  0.4317850000000  0.5315180000000 1.0
C      1  0.4307070000000  0.4274450000000  0.4655310000000 1.0
C      1  0.4838730000000  0.4290220000000  0.4163430000000 1.0
C      1  0.5509360000000  0.4271720000000  0.4385620000000 1.0
C      1  0.5858180000000  0.4295740000000  0.5060500000000 1.0
C      1  0.4644050000000  0.4777360000000  0.5107200000000 1.0
C      1  0.4772660000000  0.4843470000000  0.4674360000000 1.0
C      1  0.5059430000000  0.4823300000000  0.4585540000000 1.0
C      1  0.5321690000000  0.4838780000000  0.4803850000000 1.0
C      1  0.5355270000000  0.4841060000000  0.5135700000000 1.0
C      1  0.5094790000000  0.4821340000000  0.5360000000000 1.0
C      1  0.4793680000000  0.4822450000000  0.5363830000000 1.0
C      1  0.4288520000000  0.5614900000000  0.4539610000000 1.0
C      1  0.4936510000000  0.5581630000000  0.4148940000000 1.0
C      1  0.5638290000000  0.5610710000000  0.4414700000000 1.0
C      1  0.5860580000000  0.5693690000000  0.5163300000000 1.0
C      1  0.5404580000000  0.5611350000000  0.5793240000000 1.0
C      1  0.4577390000000  0.5731390000000  0.5798770000000 1.0
C      1  0.4125050000000  0.5706880000000  0.5250110000000 1.0
C      1  0.4953650000000  0.4521530000000  0.4043860000000 1.0
C      1  0.5656510000000  0.4513380000000  0.4294060000000 1.0
C      1  0.5967050000000  0.4545100000000  0.5164740000000 1.0
C      1  0.5489620000000  0.4548880000000  0.5822920000000 1.0
C      1  0.4751520000000  0.4472190000000  0.5974060000000 1.0
C      1  0.4092700000000  0.4550650000000  0.5220860000000 1.0
C      1  0.4186040000000  0.4516740000000  0.4524770000000 1.0
C      1  0.5035360000000  0.4563540000000  0.6002630000000 1.0
C      1  0.4259620000000  0.4586460000000  0.5750340000000 1.0
C      1  0.3971930000000  0.4605030000000  0.4722630000000 1.0
C      1  0.4430970000000  0.4568540000000  0.4150170000000 1.0
C      1  0.5431010000000  0.4548070000000  0.4089960000000 1.0
C      1  0.6012670000000  0.4582300000000  0.4669800000000 1.0
C      1  0.5858550000000  0.4562200000000  0.5563720000000 1.0
C      1  0.5639840000000  0.4829020000000  0.5847660000000 1.0
C      1  0.4775680000000  0.4969630000000  0.5959530000000 1.0
C      1  0.4111600000000  0.4950580000000  0.5472800000000 1.0
C      1  0.3985990000000  0.5006490000000  0.4556190000000 1.0
C      1  0.4768690000000  0.4873230000000  0.4021310000000 1.0
C      1  0.5611810000000  0.4922100000000  0.4226920000000 1.0
C      1  0.6000720000000  0.4972620000000  0.4985270000000 1.0
C      1  0.5208360000000  0.4800130000000  0.5976500000000 1.0
C      1  0.4370130000000  0.4818310000000  0.5883350000000 1.0
C      1  0.4038220000000  0.4721000000000  0.4987320000000 1.0
C      1  0.4311890000000  0.4805470000000  0.4255070000000 1.0
C      1  0.5252250000000  0.4772270000000  0.4005130000000 1.0
C      1  0.5909160000000  0.4806460000000  0.4528450000000 1.0
C      1  0.5989830000000  0.4738930000000  0.5383610000000 1.0
C      1  0.4955040000000  0.4114890000000  0.4362280000000 1.0
C      1  0.5380630000000  0.4147730000000  0.4624290000000 1.0
C      1  0.5639610000000  0.4091820000000  0.5108880000000 1.0
C      1  0.5296270000000  0.4104390000000  0.5542470000000 1.0
C      1  0.4767810000000  0.4164090000000  0.5497130000000 1.0
C      1  0.4353310000000  0.4092150000000  0.5189490000000 1.0
C      1  0.4546980000000  0.4105480000000  0.4704460000000 1.0
C      1  0.5243240000000  0.5274510000000  0.4764450000000 1.0
C      1  0.5442800000000  0.5320080000000  0.5133990000000 1.0
C      1  0.5211680000000  0.5297760000000  0.5302970000000 1.0
C      1  0.4776910000000  0.5296980000000  0.5367450000000 1.0
C      1  0.4614320000000  0.5243440000000  0.5141630000000 1.0
C      1  0.4720960000000  0.5301570000000  0.4716990000000 1.0
C      1  0.4986830000000  0.5313530000000  0.4578950000000 1.0
C      1  0.5524380000000  0.4714690000000  0.4458940000000 1.0
C      1  0.5762560000000  0.4685610000000  0.5016110000000 1.0
C      1  0.5402380000000  0.4661210000000  0.5567650000000 1.0
C      1  0.4692260000000  0.4718520000000  0.5809030000000 1.0
C      1  0.4274850000000  0.4744830000000  0.5334790000000 1.0
C      1  0.4370450000000  0.4672840000000  0.4693800000000 1.0
C      1  0.4855210000000  0.4686110000000  0.4263550000000 1.0
C      1  0.4134420000000  0.5628650000000  0.4978960000000 1.0
C      1  0.4485190000000  0.5577440000000  0.4336270000000 1.0
C      1  0.5212570000000  0.5537390000000  0.4203240000000 1.0
C      1  0.5785910000000  0.5589140000000  0.4654410000000 1.0
C      1  0.5726630000000  0.5571710000000  0.5379090000000 1.0
C      1  0.5168400000000  0.5403780000000  0.5856900000000 1.0
C      1  0.4446350000000  0.5577180000000  0.5607180000000 1.0
C      1  0.4841570000000  0.5695770000000  0.5717100000000 1.0
C      1  0.4446670000000  0.5679290000000  0.5321120000000 1.0
C      1  0.4365330000000  0.5727160000000  0.4798570000000 1.0
C      1  0.4753730000000  0.5726410000000  0.4355250000000 1.0
C      1  0.5360260000000  0.5664280000000  0.4464110000000 1.0
C      1  0.5694490000000  0.5753370000000  0.4893170000000 1.0
C      1  0.5432820000000  0.5687750000000  0.5466260000000 1.0
C      1  0.3843370000000  0.4847090000000  0.4650760000000 1.0
C      1  0.4479210000000  0.4826460000000  0.4016390000000 1.0
C      1  0.5479510000000  0.4936600000000  0.3972780000000 1.0
C      1  0.6105720000000  0.4853710000000  0.4729970000000 1.0
C      1  0.5879840000000  0.4801410000000  0.5710850000000 1.0
C      1  0.5014340000000  0.4968950000000  0.6118540000000 1.0
C      1  0.4110250000000  0.4831100000000  0.5742590000000 1.0
C      1  0.5256110000000  0.5005760000000  0.5755190000000 1.0
C      1  0.4506820000000  0.5083310000000  0.5688570000000 1.0
C      1  0.4182090000000  0.4984240000000  0.5000050000000 1.0
C      1  0.4426450000000  0.5086780000000  0.4371850000000 1.0
C      1  0.5146480000000  0.5070800000000  0.4157420000000 1.0
C      1  0.5720230000000  0.5093350000000  0.4615250000000 1.0
C      1  0.5779640000000  0.5058770000000  0.5355840000000 1.0
C      1  0.4582070000000  0.6105400000000  0.5166330000000 1.0
C      1  0.4667810000000  0.6061210000000  0.4764960000000 1.0
C      1  0.5036910000000  0.6117910000000  0.4591430000000 1.0
C      1  0.5306810000000  0.6041710000000  0.4646260000000 1.0
C      1  0.5412030000000  0.6108340000000  0.5099920000000 1.0
C      1  0.5272380000000  0.6060090000000  0.5349380000000 1.0
C      1  0.4807130000000  0.6053450000000  0.5362180000000 1.0
C      1  0.4642130000000  0.4592960000000  0.4640080000000 1.0
C      1  0.5086830000000  0.4546410000000  0.4462860000000 1.0
C      1  0.5494700000000  0.4613460000000  0.4727480000000 1.0
C      1  0.5516860000000  0.4596700000000  0.5148130000000 1.0
C      1  0.5126880000000  0.4580130000000  0.5512460000000 1.0
C      1  0.4714870000000  0.4614300000000  0.5526830000000 1.0
C      1  0.4604200000000  0.4493850000000  0.5029400000000 1.0
C      1  0.4534520000000  0.5330020000000  0.4215650000000 1.0
C      1  0.5356870000000  0.5313560000000  0.4117160000000 1.0
C      1  0.5858360000000  0.5329890000000  0.4725750000000 1.0
C      1  0.5757750000000  0.5313920000000  0.5522140000000 1.0
C      1  0.5072790000000  0.5266130000000  0.6085550000000 1.0
C      1  0.4339780000000  0.5309710000000  0.5637620000000 1.0
C      1  0.4047830000000  0.5364720000000  0.4894610000000 1.0
C      1  0.4900030000000  0.5558300000000  0.5460930000000 1.0
C      1  0.4571700000000  0.5513830000000  0.5087710000000 1.0
C      1  0.4630740000000  0.5558030000000  0.4818530000000 1.0
C      1  0.4939220000000  0.5619250000000  0.4563860000000 1.0
C      1  0.5330050000000  0.5547540000000  0.4748990000000 1.0
C      1  0.5459260000000  0.5585100000000  0.4998050000000 1.0
C      1  0.5179690000000  0.5554750000000  0.5411820000000 1.0
C      1  0.5471440000000  0.5881270000000  0.5261980000000 1.0
C      1  0.5041620000000  0.5928820000000  0.5450820000000 1.0
C      1  0.4558800000000  0.5933900000000  0.5376090000000 1.0
C      1  0.4459020000000  0.6007520000000  0.4919220000000 1.0
C      1  0.4779300000000  0.6014520000000  0.4521730000000 1.0
C      1  0.5154130000000  0.5867770000000  0.4474100000000 1.0
C      1  0.5496160000000  0.6002080000000  0.4850380000000 1.0
C      1  0.4637150000000  0.4464640000000  0.4341790000000 1.0
C      1  0.5270410000000  0.4404050000000  0.4280850000000 1.0
C      1  0.5769390000000  0.4466240000000  0.4816150000000 1.0
C      1  0.5590180000000  0.4481410000000  0.5427200000000 1.0
C      1  0.5080140000000  0.4406910000000  0.5749470000000 1.0
C      1  0.4413110000000  0.4525190000000  0.5493250000000 1.0
C      1  0.4354140000000  0.4457130000000  0.4886880000000 1.0
C      1  0.4992790000000  0.5652980000000  0.5017070000000 1.0
C      1  0.5030120000000  0.4076300000000  0.5091210000000 1.0
C      1  0.5059740000000  0.5408330000000  0.5025020000000 1.0
C      1  0.5028100000000  0.4588040000000  0.4990470000000 1.0
C      1  0.5050800000000  0.4359490000000  0.5019800000000 1.0
C      1  0.4934500000000  0.4889570000000  0.4974350000000 1.0
END
