TITL C-2441157-2117-728 0.0305345540726444 125000 -10421.3479335777 0 0 78 (C1) n - 1
REM
REM in /home/bkarasulu/work/CARBON/AIRSS/Generating-Clusters/ReaxFF-fromJPCA2015/Units_Real/with-SteepDescent/Higher-Symm
REM
REM
REM
REM
REM
REM ./C.cell (1df0a924f5614ab8850e4351716899ee)
REM
REM compiler GCC version 9.2.1 20190827 (Red Hat 9.2.1-1)
REM options -cpp -mtune=generic -march=x86-64 -g -O0 -fpre-include=/usr/include/finclude/math-vector-fortran.h
REM seed 889131494 650699944 -1402646942 -440919125 -1047402117 954712276 1128806039 -522551566 132664800 78165456 930188035 959146181 -8330031 -358493571 115428749 -96161246 140197599 -996661633 -1639289243 1599136679 2048071482 1817056661 329610145 -2110101133 363722939 -1266790020 680498746 1153583637 1807971048 -3488050 521084767 1454740228 685326925
REM
CELL 1.54180   50.00000   50.00000   50.00000   90.00000   90.00000   90.00000
LATT -1
SFAC C  
C      1  0.4708280000000  0.5508630000000  0.4791610000000 1.0
C      1  0.5306140000000  0.5521210000000  0.5211820000000 1.0
C      1  0.5305550000000  0.4473720000000  0.4788340000000 1.0
C      1  0.4693150000000  0.4457530000000  0.5209640000000 1.0
C      1  0.5609630000000  0.5168890000000  0.5474980000000 1.0
C      1  0.4394130000000  0.5169770000000  0.4528630000000 1.0
C      1  0.4401960000000  0.4808300000000  0.5496470000000 1.0
C      1  0.5596020000000  0.4807630000000  0.4512740000000 1.0
C      1  0.5145670000000  0.4823750000000  0.5042180000000 1.0
C      1  0.4853160000000  0.4815570000000  0.4955010000000 1.0
C      1  0.4849130000000  0.5104400000000  0.5023650000000 1.0
C      1  0.5142190000000  0.5115130000000  0.4978660000000 1.0
C      1  0.4804040000000  0.5104360000000  0.4322550000000 1.0
C      1  0.5202860000000  0.5107510000000  0.5692650000000 1.0
C      1  0.5176300000000  0.4878160000000  0.4315040000000 1.0
C      1  0.4830740000000  0.4873190000000  0.5673340000000 1.0
C      1  0.4437180000000  0.5097690000000  0.5497790000000 1.0
C      1  0.5564160000000  0.5097370000000  0.4504670000000 1.0
C      1  0.5592540000000  0.4891900000000  0.5435400000000 1.0
C      1  0.4413970000000  0.4892850000000  0.4563580000000 1.0
C      1  0.4363580000000  0.5201080000000  0.4823920000000 1.0
C      1  0.5634050000000  0.5205410000000  0.5180280000000 1.0
C      1  0.5624120000000  0.4797000000000  0.4802110000000 1.0
C      1  0.4363440000000  0.4793670000000  0.5205370000000 1.0
C      1  0.5377570000000  0.4658290000000  0.4378420000000 1.0
C      1  0.4624120000000  0.4659300000000  0.5621430000000 1.0
C      1  0.4609370000000  0.5316200000000  0.4377040000000 1.0
C      1  0.5398250000000  0.5317400000000  0.5630500000000 1.0
C      1  0.5265760000000  0.5546730000000  0.5492820000000 1.0
C      1  0.4735730000000  0.5549460000000  0.4510570000000 1.0
C      1  0.4743850000000  0.4430290000000  0.5487030000000 1.0
C      1  0.5250750000000  0.4433010000000  0.4511680000000 1.0
C      1  0.5205490000000  0.4604660000000  0.5653490000000 1.0
C      1  0.4789870000000  0.4602320000000  0.4331090000000 1.0
C      1  0.4810190000000  0.5479900000000  0.5649530000000 1.0
C      1  0.5182170000000  0.5484900000000  0.4346650000000 1.0
C      1  0.4993010000000  0.5660900000000  0.5515070000000 1.0
C      1  0.5006570000000  0.5666110000000  0.4482970000000 1.0
C      1  0.5040340000000  0.4369750000000  0.5480970000000 1.0
C      1  0.4954140000000  0.4366800000000  0.4511200000000 1.0
C      1  0.5156530000000  0.5760570000000  0.4739590000000 1.0
C      1  0.4845220000000  0.5750050000000  0.5254710000000 1.0
C      1  0.4823800000000  0.4204830000000  0.4749460000000 1.0
C      1  0.5168570000000  0.4227870000000  0.5240970000000 1.0
C      1  0.4344810000000  0.4762080000000  0.4789040000000 1.0
C      1  0.5652920000000  0.4759170000000  0.5208240000000 1.0
C      1  0.5641580000000  0.5219870000000  0.4757200000000 1.0
C      1  0.4357470000000  0.5216940000000  0.5248410000000 1.0
C      1  0.4891450000000  0.4933510000000  0.5387010000000 1.0
C      1  0.5116000000000  0.4925560000000  0.4607750000000 1.0
C      1  0.5123730000000  0.5084610000000  0.5414110000000 1.0
C      1  0.4878550000000  0.5076940000000  0.4600270000000 1.0
C      1  0.4788990000000  0.4609810000000  0.4616220000000 1.0
C      1  0.5205480000000  0.4631140000000  0.5366370000000 1.0
C      1  0.5238760000000  0.5343010000000  0.4585250000000 1.0
C      1  0.4765230000000  0.5346610000000  0.5416720000000 1.0
C      1  0.5120510000000  0.4838870000000  0.5786400000000 1.0
C      1  0.4881500000000  0.4839580000000  0.4212080000000 1.0
C      1  0.4680120000000  0.5209530000000  0.5644540000000 1.0
C      1  0.5329770000000  0.5191910000000  0.4349280000000 1.0
C      1  0.4872260000000  0.5579120000000  0.5015420000000 1.0
C      1  0.5143740000000  0.5601000000000  0.4988300000000 1.0
C      1  0.5137750000000  0.4398310000000  0.5008040000000 1.0
C      1  0.4861020000000  0.4361120000000  0.4997450000000 1.0
C      1  0.4670320000000  0.5231350000000  0.4834330000000 1.0
C      1  0.5331290000000  0.5239650000000  0.5184770000000 1.0
C      1  0.5327670000000  0.4755050000000  0.4826000000000 1.0
C      1  0.4661530000000  0.4747220000000  0.5181720000000 1.0
C      1  0.4532390000000  0.4225360000000  0.4775110000000 1.0
C      1  0.5461740000000  0.4226370000000  0.5226450000000 1.0
C      1  0.5452510000000  0.5755950000000  0.4759130000000 1.0
C      1  0.4549150000000  0.5749180000000  0.5222270000000 1.0
C      1  0.5470790000000  0.4536270000000  0.5255470000000 1.0
C      1  0.4525230000000  0.4534660000000  0.4743810000000 1.0
C      1  0.4542030000000  0.5443500000000  0.5236450000000 1.0
C      1  0.5454610000000  0.5448810000000  0.4770620000000 1.0
C      1  0.5739880000000  0.5017410000000  0.4968960000000 1.0
C      1  0.4255930000000  0.5003320000000  0.5021160000000 1.0
END
