TITL C-2441159-1093-998 0.0516660754981597 125000 -14392.0987125021 0 0 114 (C1) n - 1
REM
REM in /home/bkarasulu/work/CARBON/AIRSS/Generating-Clusters/ReaxFF-fromJPCA2015/Units_Real/with-SteepDescent/Higher-Symm
REM
REM
REM
REM
REM
REM ./C.cell (1df0a924f5614ab8850e4351716899ee)
REM
REM compiler GCC version 9.2.1 20190827 (Red Hat 9.2.1-1)
REM options -cpp -mtune=generic -march=x86-64 -g -O0 -fpre-include=/usr/include/finclude/math-vector-fortran.h
REM seed 1620672188 1171383058 -774623368 -313494903 -1079992496 -147843631 -27569558 673056377 -1658777858 -1579480778 -1328955425 -1865163594 -1396574335 1013460668 -550684059 -1478280421 1639674072 -143596993 -1848024547 1009220867 694295392 -1325853830 -824799629 2079210553 -1926157015 1410807487 -1383542696 603255497 1035341903 -1812374484 804466198 1495897549 -1289193127
REM
CELL 1.54180   50.00000   50.00000   50.00000   90.00000   90.00000   90.00000
LATT -1
SFAC C  
C      1  0.4216960000000  0.5090920000000  0.5401450000000 1.0
C      1  0.5354950000000  0.4234220000000  0.5135030000000 1.0
C      1  0.4979340000000  0.5172800000000  0.4182610000000 1.0
C      1  0.5750950000000  0.4852850000000  0.5296850000000 1.0
C      1  0.5787090000000  0.5084010000000  0.4591450000000 1.0
C      1  0.4223220000000  0.4923270000000  0.4689780000000 1.0
C      1  0.4832300000000  0.5839340000000  0.5003000000000 1.0
C      1  0.4612930000000  0.4200460000000  0.4893800000000 1.0
C      1  0.5380950000000  0.5799740000000  0.4894710000000 1.0
C      1  0.4904640000000  0.4614310000000  0.4187940000000 1.0
C      1  0.4875920000000  0.5399100000000  0.5799270000000 1.0
C      1  0.5153940000000  0.4590980000000  0.5804330000000 1.0
C      1  0.4248420000000  0.5172240000000  0.4627310000000 1.0
C      1  0.5421520000000  0.4218130000000  0.4849270000000 1.0
C      1  0.5156070000000  0.5396740000000  0.5789820000000 1.0
C      1  0.5777680000000  0.4837640000000  0.4714920000000 1.0
C      1  0.5739390000000  0.5114090000000  0.5419760000000 1.0
C      1  0.4161110000000  0.4866270000000  0.5239710000000 1.0
C      1  0.4597210000000  0.5792280000000  0.4845340000000 1.0
C      1  0.4793910000000  0.4203630000000  0.5112850000000 1.0
C      1  0.5390200000000  0.5776960000000  0.5177020000000 1.0
C      1  0.5034280000000  0.4837440000000  0.5832350000000 1.0
C      1  0.4808660000000  0.5399790000000  0.4217520000000 1.0
C      1  0.5181020000000  0.4625260000000  0.4220740000000 1.0
C      1  0.5222750000000  0.5687020000000  0.4523090000000 1.0
C      1  0.4422530000000  0.5193970000000  0.5613110000000 1.0
C      1  0.5545160000000  0.4501870000000  0.5188750000000 1.0
C      1  0.4794410000000  0.4406830000000  0.4404170000000 1.0
C      1  0.4788370000000  0.5608160000000  0.5569420000000 1.0
C      1  0.5198330000000  0.4397780000000  0.5550790000000 1.0
C      1  0.5509890000000  0.4788130000000  0.5637600000000 1.0
C      1  0.5576960000000  0.5223380000000  0.4389550000000 1.0
C      1  0.4423940000000  0.4801880000000  0.4403650000000 1.0
C      1  0.4331510000000  0.5484210000000  0.5238030000000 1.0
C      1  0.4406570000000  0.4403150000000  0.4781160000000 1.0
C      1  0.5597710000000  0.5574980000000  0.4793440000000 1.0
C      1  0.5207950000000  0.5605320000000  0.5539680000000 1.0
C      1  0.4447720000000  0.5214130000000  0.4409250000000 1.0
C      1  0.5600230000000  0.4487820000000  0.4799960000000 1.0
C      1  0.4755990000000  0.4293700000000  0.5439720000000 1.0
C      1  0.4785400000000  0.5612000000000  0.4457860000000 1.0
C      1  0.5218130000000  0.4404960000000  0.4469720000000 1.0
C      1  0.5523890000000  0.4815110000000  0.4400060000000 1.0
C      1  0.5504480000000  0.5198850000000  0.5617290000000 1.0
C      1  0.4546070000000  0.4772970000000  0.5691390000000 1.0
C      1  0.4396390000000  0.5548160000000  0.4814160000000 1.0
C      1  0.4400410000000  0.4463080000000  0.5205250000000 1.0
C      1  0.5594090000000  0.5524570000000  0.5207890000000 1.0
C      1  0.4500800000000  0.4330380000000  0.5569560000000 1.0
C      1  0.5573650000000  0.4540500000000  0.4297970000000 1.0
C      1  0.4274560000000  0.5562740000000  0.4543650000000 1.0
C      1  0.5491430000000  0.5704400000000  0.5568520000000 1.0
C      1  0.5505630000000  0.4305490000000  0.4451690000000 1.0
C      1  0.4505850000000  0.5719090000000  0.4448250000000 1.0
C      1  0.4415530000000  0.5488620000000  0.4299390000000 1.0
C      1  0.4339790000000  0.4545820000000  0.5651820000000 1.0
C      1  0.5557230000000  0.5470470000000  0.5728300000000 1.0
C      1  0.5728090000000  0.4486150000000  0.4538770000000 1.0
C      1  0.5714110000000  0.5528240000000  0.5485910000000 1.0
C      1  0.4215500000000  0.4585050000000  0.5393720000000 1.0
C      1  0.4515370000000  0.4308960000000  0.4331410000000 1.0
C      1  0.5605770000000  0.4508990000000  0.5687480000000 1.0
C      1  0.4280060000000  0.5620780000000  0.5496980000000 1.0
C      1  0.5475320000000  0.5729480000000  0.4369470000000 1.0
C      1  0.5483340000000  0.4308700000000  0.5524860000000 1.0
C      1  0.4515090000000  0.5708020000000  0.5643800000000 1.0
C      1  0.4374680000000  0.5470320000000  0.5724720000000 1.0
C      1  0.4337140000000  0.4531680000000  0.4292240000000 1.0
C      1  0.5635700000000  0.5500190000000  0.4288050000000 1.0
C      1  0.5701860000000  0.4513120000000  0.5409880000000 1.0
C      1  0.5707510000000  0.5650400000000  0.4521340000000 1.0
C      1  0.4290930000000  0.4345060000000  0.4507030000000 1.0
C      1  0.5378830000000  0.5310480000000  0.4848200000000 1.0
C      1  0.4839670000000  0.5383820000000  0.5308740000000 1.0
C      1  0.5289400000000  0.4859640000000  0.5388690000000 1.0
C      1  0.4608750000000  0.4684910000000  0.4842060000000 1.0
C      1  0.4597630000000  0.5301300000000  0.5160100000000 1.0
C      1  0.5364700000000  0.4722800000000  0.5134520000000 1.0
C      1  0.5117470000000  0.4628780000000  0.5308680000000 1.0
C      1  0.5147130000000  0.5410150000000  0.4698670000000 1.0
C      1  0.4849400000000  0.4616210000000  0.4681070000000 1.0
C      1  0.4692770000000  0.5145710000000  0.5405750000000 1.0
C      1  0.4695100000000  0.4860780000000  0.4618800000000 1.0
C      1  0.5302980000000  0.5174980000000  0.4598870000000 1.0
C      1  0.5373100000000  0.5291110000000  0.5140910000000 1.0
C      1  0.4853970000000  0.5391900000000  0.4705680000000 1.0
C      1  0.5328890000000  0.4895120000000  0.4614540000000 1.0
C      1  0.4629370000000  0.4653610000000  0.5122310000000 1.0
C      1  0.4611220000000  0.5304620000000  0.4866630000000 1.0
C      1  0.5329620000000  0.4717100000000  0.4836250000000 1.0
C      1  0.5124150000000  0.4559880000000  0.4725790000000 1.0
C      1  0.5132160000000  0.5382150000000  0.5291450000000 1.0
C      1  0.4834600000000  0.4667030000000  0.5305770000000 1.0
C      1  0.4704960000000  0.5150720000000  0.4634170000000 1.0
C      1  0.4722630000000  0.4863780000000  0.5461950000000 1.0
C      1  0.5273420000000  0.5148220000000  0.5391900000000 1.0
C      1  0.4998940000000  0.4187740000000  0.4437630000000 1.0
C      1  0.5550810000000  0.5003490000000  0.4171930000000 1.0
C      1  0.4450390000000  0.4986370000000  0.5856950000000 1.0
C      1  0.5002620000000  0.5827220000000  0.5549720000000 1.0
C      1  0.4436890000000  0.4985840000000  0.4181560000000 1.0
C      1  0.4185440000000  0.4404990000000  0.5004210000000 1.0
C      1  0.4999020000000  0.5848390000000  0.4443920000000 1.0
C      1  0.4979270000000  0.4174330000000  0.5585130000000 1.0
C      1  0.5817600000000  0.5540450000000  0.4997650000000 1.0
C      1  0.5810000000000  0.4455750000000  0.5018740000000 1.0
C      1  0.4153430000000  0.5551870000000  0.5026330000000 1.0
C      1  0.5528100000000  0.4980960000000  0.5850920000000 1.0
C      1  0.5781470000000  0.4868220000000  0.5006050000000 1.0
C      1  0.5128060000000  0.5783660000000  0.5037200000000 1.0
C      1  0.5008480000000  0.5146460000000  0.5825440000000 1.0
C      1  0.4183130000000  0.4935020000000  0.4955360000000 1.0
C      1  0.5072630000000  0.4216170000000  0.5115750000000 1.0
C      1  0.5030740000000  0.4875780000000  0.4175220000000 1.0
END
