TITL C-2441157-2117-762 0.0302255673125683 125000 -15400.3671618853 0 0 109 (C1) n - 1
REM
REM in /home/bkarasulu/work/CARBON/AIRSS/Generating-Clusters/ReaxFF-fromJPCA2015/Units_Real/with-SteepDescent/Higher-Symm
REM
REM
REM
REM
REM
REM ./C.cell (1df0a924f5614ab8850e4351716899ee)
REM
REM compiler GCC version 9.2.1 20190827 (Red Hat 9.2.1-1)
REM options -cpp -mtune=generic -march=x86-64 -g -O0 -fpre-include=/usr/include/finclude/math-vector-fortran.h
REM seed -1461736348 -1086722881 -1488913473 -1687509960 -54330246 109319245 1403339871 1167657463 348418773 -1940312282 -430800408 306426477 1937870733 -1310160242 1852924625 -1259761905 -1963477144 896016100 1400464213 -1752181426 -977738793 -557396822 67980137 1984485157 -566385836 -303405402 488520560 -839468013 641602040 -642888266 -694200152 -1948870424 143690888
REM
CELL 1.54180   50.00000   50.00000   50.00000   90.00000   90.00000   90.00000
LATT -1
SFAC C  
C      1  0.5776410000000  0.4626280000000  0.5301200000000 1.0
C      1  0.5431290000000  0.4631820000000  0.5715970000000 1.0
C      1  0.4917610000000  0.4605420000000  0.5831290000000 1.0
C      1  0.4272600000000  0.4702450000000  0.5520920000000 1.0
C      1  0.4118770000000  0.4604500000000  0.5031690000000 1.0
C      1  0.4357260000000  0.4681520000000  0.4368210000000 1.0
C      1  0.4821970000000  0.4655430000000  0.4117400000000 1.0
C      1  0.5493430000000  0.4691120000000  0.4259770000000 1.0
C      1  0.5841620000000  0.4646570000000  0.4772700000000 1.0
C      1  0.5722940000000  0.5135710000000  0.4773590000000 1.0
C      1  0.5723000000000  0.5183570000000  0.5272010000000 1.0
C      1  0.5415320000000  0.5169280000000  0.5615860000000 1.0
C      1  0.4913920000000  0.5190010000000  0.5758240000000 1.0
C      1  0.4438800000000  0.5156170000000  0.5515730000000 1.0
C      1  0.4167980000000  0.5262340000000  0.5027510000000 1.0
C      1  0.4383240000000  0.5140110000000  0.4576090000000 1.0
C      1  0.4831520000000  0.5140490000000  0.4295130000000 1.0
C      1  0.5337800000000  0.5145380000000  0.4332610000000 1.0
C      1  0.5641700000000  0.4754630000000  0.5553930000000 1.0
C      1  0.5179590000000  0.4746220000000  0.5872510000000 1.0
C      1  0.4648210000000  0.4697690000000  0.5702560000000 1.0
C      1  0.4141580000000  0.4790030000000  0.5258810000000 1.0
C      1  0.4205240000000  0.4683070000000  0.4752970000000 1.0
C      1  0.4605700000000  0.4755400000000  0.4281780000000 1.0
C      1  0.5101580000000  0.4705470000000  0.4181100000000 1.0
C      1  0.5629060000000  0.4761820000000  0.4447430000000 1.0
C      1  0.5851800000000  0.4769420000000  0.5049050000000 1.0
C      1  0.5145460000000  0.5620010000000  0.5675940000000 1.0
C      1  0.4681140000000  0.5599910000000  0.5632130000000 1.0
C      1  0.4363260000000  0.5621730000000  0.5314350000000 1.0
C      1  0.4320620000000  0.5583900000000  0.4811110000000 1.0
C      1  0.4613200000000  0.5566580000000  0.4425800000000 1.0
C      1  0.5088250000000  0.5581810000000  0.4321380000000 1.0
C      1  0.5526210000000  0.5561070000000  0.4524950000000 1.0
C      1  0.5676490000000  0.5609500000000  0.4973980000000 1.0
C      1  0.5547160000000  0.5608250000000  0.5430720000000 1.0
C      1  0.5461350000000  0.5796220000000  0.4986730000000 1.0
C      1  0.5333390000000  0.5770400000000  0.5266770000000 1.0
C      1  0.5075130000000  0.5809620000000  0.5467150000000 1.0
C      1  0.4786290000000  0.5787530000000  0.5428300000000 1.0
C      1  0.4569200000000  0.5799900000000  0.5221410000000 1.0
C      1  0.4559130000000  0.5738570000000  0.4928480000000 1.0
C      1  0.4794920000000  0.5734870000000  0.4607280000000 1.0
C      1  0.5072590000000  0.5775570000000  0.4525690000000 1.0
C      1  0.5340740000000  0.5754080000000  0.4711010000000 1.0
C      1  0.4634710000000  0.5089640000000  0.5293850000000 1.0
C      1  0.4590690000000  0.4969300000000  0.5024850000000 1.0
C      1  0.4638630000000  0.5076740000000  0.4750040000000 1.0
C      1  0.4898080000000  0.5005500000000  0.4557960000000 1.0
C      1  0.5211210000000  0.5089470000000  0.4603010000000 1.0
C      1  0.5412240000000  0.5008020000000  0.4844030000000 1.0
C      1  0.5408610000000  0.5093380000000  0.5126320000000 1.0
C      1  0.5243710000000  0.5010450000000  0.5402620000000 1.0
C      1  0.4963970000000  0.5111570000000  0.5467330000000 1.0
C      1  0.5225880000000  0.4719560000000  0.5353770000000 1.0
C      1  0.4960840000000  0.4715690000000  0.5256810000000 1.0
C      1  0.4733130000000  0.4572420000000  0.5232940000000 1.0
C      1  0.4607380000000  0.4695450000000  0.5028960000000 1.0
C      1  0.4704640000000  0.4596160000000  0.4788730000000 1.0
C      1  0.4924540000000  0.4739550000000  0.4679790000000 1.0
C      1  0.5166770000000  0.4615600000000  0.4662850000000 1.0
C      1  0.5318080000000  0.4734180000000  0.4870970000000 1.0
C      1  0.5358350000000  0.4585650000000  0.5133760000000 1.0
C      1  0.4438950000000  0.5451180000000  0.5541850000000 1.0
C      1  0.4202410000000  0.5527880000000  0.5069710000000 1.0
C      1  0.4380420000000  0.5433950000000  0.4556710000000 1.0
C      1  0.4825180000000  0.5437290000000  0.4279760000000 1.0
C      1  0.5357060000000  0.5435530000000  0.4321390000000 1.0
C      1  0.5693020000000  0.5445860000000  0.4721890000000 1.0
C      1  0.5720520000000  0.5486160000000  0.5244080000000 1.0
C      1  0.5400170000000  0.5460580000000  0.5632610000000 1.0
C      1  0.4905550000000  0.5488720000000  0.5778750000000 1.0
C      1  0.4231540000000  0.4896650000000  0.4536150000000 1.0
C      1  0.4707040000000  0.4953630000000  0.4132220000000 1.0
C      1  0.5319870000000  0.4903750000000  0.4167000000000 1.0
C      1  0.5800810000000  0.4891760000000  0.4604270000000 1.0
C      1  0.5843840000000  0.5051070000000  0.5036550000000 1.0
C      1  0.5660360000000  0.5042250000000  0.5546390000000 1.0
C      1  0.5054170000000  0.4988120000000  0.5880810000000 1.0
C      1  0.4425540000000  0.4908860000000  0.5670290000000 1.0
C      1  0.4144580000000  0.5015950000000  0.5109380000000 1.0
C      1  0.5412040000000  0.4283420000000  0.4767270000000 1.0
C      1  0.5421560000000  0.4294910000000  0.5095830000000 1.0
C      1  0.5243030000000  0.4235370000000  0.5389480000000 1.0
C      1  0.4954900000000  0.4234920000000  0.5444310000000 1.0
C      1  0.4666330000000  0.4325390000000  0.5322010000000 1.0
C      1  0.4535870000000  0.4251740000000  0.5051270000000 1.0
C      1  0.4610410000000  0.4329710000000  0.4736840000000 1.0
C      1  0.4865780000000  0.4276390000000  0.4553890000000 1.0
C      1  0.5183260000000  0.4351340000000  0.4576970000000 1.0
C      1  0.5286960000000  0.5483360000000  0.4824260000000 1.0
C      1  0.5343050000000  0.5363580000000  0.5060810000000 1.0
C      1  0.5195510000000  0.5505980000000  0.5236170000000 1.0
C      1  0.4974850000000  0.5365010000000  0.5340820000000 1.0
C      1  0.4726690000000  0.5361560000000  0.5238490000000 1.0
C      1  0.4661750000000  0.5475150000000  0.5003420000000 1.0
C      1  0.4721570000000  0.5330660000000  0.4807370000000 1.0
C      1  0.4885530000000  0.5466080000000  0.4684470000000 1.0
C      1  0.5126960000000  0.5358360000000  0.4678680000000 1.0
C      1  0.4986750000000  0.4375820000000  0.5677570000000 1.0
C      1  0.4495940000000  0.4515510000000  0.5546620000000 1.0
C      1  0.4308660000000  0.4391090000000  0.5062050000000 1.0
C      1  0.4357020000000  0.4502010000000  0.4594930000000 1.0
C      1  0.4797060000000  0.4404600000000  0.4320680000000 1.0
C      1  0.5282200000000  0.4509050000000  0.4296840000000 1.0
C      1  0.5627350000000  0.4450200000000  0.4739720000000 1.0
C      1  0.5712120000000  0.4362020000000  0.5196710000000 1.0
C      1  0.5381520000000  0.4401480000000  0.5569140000000 1.0
C      1  0.5017930000000  0.4867230000000  0.4999240000000 1.0
END
