TITL C-2441162-9305-524 0.0267471704448669 125000 -6625.63208302338 0 0 56 (Th) n - 1
REM
REM in /home/bkarasulu/work/CARBON/AIRSS/Generating-Clusters/ReaxFF-fromJPCA2015/Units_Real/with-SteepDescent/Higher-Symm
REM
REM
REM
REM
REM
REM ./C.cell (1df0a924f5614ab8850e4351716899ee)
REM
REM compiler GCC version 9.2.1 20190827 (Red Hat 9.2.1-1)
REM options -cpp -mtune=generic -march=x86-64 -g -O0 -fpre-include=/usr/include/finclude/math-vector-fortran.h
REM seed 1383779859 -591312305 -2129371750 1747649584 480016989 405492330 -1844670524 306117469 686477026 1599209848 -226493984 490863091 197881464 1896724773 89847327 794137604 -453415506 -2058647320 -1166163528 2049427545 897132969 -415353585 -228012551 1043366575 1348658307 -1313760865 -975362894 -1371271542 -1236453294 -1230773137 -426457266 601721460 2057392649
REM
CELL 1.54180   50.00000   50.00000   50.00000   90.00000   90.00000   90.00000
LATT -1
SFAC C  
C      1  0.5151390000000  0.5407860000000  0.4436670000000 1.0
C      1  0.5395770000000  0.4436490000000  0.5157430000000 1.0
C      1  0.4425600000000  0.5160000000000  0.5403210000000 1.0
C      1  0.4842520000000  0.4609580000000  0.4436670000000 1.0
C      1  0.5151390000000  0.4609580000000  0.5574670000000 1.0
C      1  0.4842520000000  0.5407860000000  0.5574670000000 1.0
C      1  0.4598140000000  0.5580960000000  0.5157430000000 1.0
C      1  0.5395770000000  0.5580960000000  0.4853920000000 1.0
C      1  0.4598140000000  0.4436490000000  0.4853920000000 1.0
C      1  0.5568300000000  0.4857440000000  0.5403210000000 1.0
C      1  0.4425600000000  0.4857440000000  0.4608140000000 1.0
C      1  0.5568300000000  0.5160000000000  0.4608140000000 1.0
C      1  0.5151390000000  0.5407860000000  0.5574670000000 1.0
C      1  0.5395770000000  0.4436490000000  0.4853920000000 1.0
C      1  0.4425600000000  0.5160000000000  0.4608140000000 1.0
C      1  0.4842520000000  0.4609580000000  0.5574670000000 1.0
C      1  0.5151390000000  0.4609580000000  0.4436670000000 1.0
C      1  0.4842520000000  0.5407860000000  0.4436670000000 1.0
C      1  0.4598140000000  0.5580960000000  0.4853920000000 1.0
C      1  0.5395770000000  0.5580960000000  0.5157430000000 1.0
C      1  0.4598140000000  0.4436490000000  0.5157430000000 1.0
C      1  0.5568300000000  0.4857440000000  0.4608140000000 1.0
C      1  0.4425600000000  0.4857440000000  0.5403210000000 1.0
C      1  0.5568300000000  0.5160000000000  0.5403210000000 1.0
C      1  0.4856940000000  0.4557170000000  0.5141780000000 1.0
C      1  0.4545610000000  0.5145630000000  0.4866560000000 1.0
C      1  0.5135200000000  0.4870540000000  0.4550440000000 1.0
C      1  0.5136970000000  0.5460280000000  0.5141780000000 1.0
C      1  0.4856940000000  0.5460280000000  0.4869570000000 1.0
C      1  0.5136970000000  0.4557170000000  0.4869570000000 1.0
C      1  0.5448290000000  0.4871820000000  0.4866560000000 1.0
C      1  0.4545610000000  0.4871820000000  0.5144780000000 1.0
C      1  0.5448290000000  0.5145630000000  0.5144780000000 1.0
C      1  0.4858710000000  0.5146900000000  0.4550440000000 1.0
C      1  0.5135200000000  0.5146900000000  0.5460910000000 1.0
C      1  0.4858710000000  0.4870540000000  0.5460910000000 1.0
C      1  0.4856940000000  0.4557170000000  0.4869570000000 1.0
C      1  0.4545610000000  0.5145630000000  0.5144790000000 1.0
C      1  0.5135200000000  0.4870540000000  0.5460910000000 1.0
C      1  0.5136970000000  0.5460280000000  0.4869570000000 1.0
C      1  0.4856940000000  0.5460280000000  0.5141780000000 1.0
C      1  0.5136970000000  0.4557170000000  0.5141780000000 1.0
C      1  0.5448290000000  0.4871820000000  0.5144790000000 1.0
C      1  0.4545610000000  0.4871820000000  0.4866560000000 1.0
C      1  0.5448290000000  0.5145630000000  0.4866560000000 1.0
C      1  0.4858710000000  0.5146900000000  0.5460910000000 1.0
C      1  0.5135200000000  0.5146900000000  0.4550440000000 1.0
C      1  0.4858710000000  0.4870540000000  0.4550440000000 1.0
C      1  0.5412080000000  0.5423520000000  0.4594040000000 1.0
C      1  0.5412080000000  0.4593920000000  0.5417310000000 1.0
C      1  0.4581820000000  0.5423530000000  0.5417310000000 1.0
C      1  0.5412080000000  0.4593920000000  0.4594040000000 1.0
C      1  0.4581820000000  0.5423530000000  0.4594040000000 1.0
C      1  0.4581830000000  0.4593920000000  0.5417310000000 1.0
C      1  0.4581830000000  0.4593920000000  0.4594040000000 1.0
C      1  0.5412080000000  0.5423520000000  0.5417310000000 1.0
END
