TITL C-2441154-10-266 0.200021020001316 125000 -24633.7721606162 0 0 194 (C1) n - 1
REM
REM in /home/bkarasulu/work/CARBON/AIRSS/Generating-Clusters/ReaxFF-fromJPCA2015/Units_Real/with-SteepDescent/Higher-Symm
REM
REM
REM
REM
REM
REM ./C.cell (1df0a924f5614ab8850e4351716899ee)
REM
REM compiler GCC version 9.2.1 20190827 (Red Hat 9.2.1-1)
REM options -cpp -mtune=generic -march=x86-64 -g -O0 -fpre-include=/usr/include/finclude/math-vector-fortran.h
REM seed 290042565 1027169558 1059946767 -1652032931 740482456 287907050 -867666852 852792642 -171608271 -1484282795 -423624426 528844326 1398605857 -1895246201 -1351686176 -976261306 -738610475 -637279585 1415024798 -1596841460 -1671085397 656309529 1099752636 -882454222 1036504930 492324374 -852195874 1333259914 -1272087698 1905266966 920636050 -2138684895 -780956891
REM
CELL 1.54180   50.00000   50.00000   50.00000   90.00000   90.00000   90.00000
LATT -1
SFAC C  
C      1  0.5568540000000  0.5456170000000  0.4391280000000 1.0
C      1  0.4431300000000  0.5438990000000  0.5608740000000 1.0
C      1  0.4499340000000  0.5410240000000  0.4379490000000 1.0
C      1  0.5576670000000  0.5450700000000  0.5612900000000 1.0
C      1  0.5923220000000  0.4439330000000  0.5144130000000 1.0
C      1  0.4057890000000  0.4435770000000  0.4829770000000 1.0
C      1  0.4157490000000  0.4451530000000  0.5152240000000 1.0
C      1  0.5930920000000  0.4434630000000  0.4849010000000 1.0
C      1  0.5421370000000  0.4570770000000  0.5155450000000 1.0
C      1  0.4563600000000  0.4566140000000  0.4867410000000 1.0
C      1  0.4440990000000  0.4533350000000  0.5119610000000 1.0
C      1  0.5521460000000  0.4503340000000  0.4895580000000 1.0
C      1  0.4717080000000  0.5706080000000  0.5143590000000 1.0
C      1  0.5268470000000  0.5707860000000  0.4840240000000 1.0
C      1  0.5273570000000  0.5709550000000  0.5149130000000 1.0
C      1  0.4731730000000  0.5700090000000  0.4847160000000 1.0
C      1  0.4850250000000  0.5958430000000  0.4796660000000 1.0
C      1  0.5139320000000  0.5959400000000  0.5216760000000 1.0
C      1  0.5132080000000  0.5962760000000  0.4792710000000 1.0
C      1  0.4858780000000  0.5960300000000  0.5200050000000 1.0
C      1  0.4059140000000  0.5022460000000  0.4853780000000 1.0
C      1  0.6005810000000  0.4977450000000  0.5135220000000 1.0
C      1  0.6007720000000  0.4977470000000  0.4857220000000 1.0
C      1  0.3994950000000  0.4987710000000  0.5141780000000 1.0
C      1  0.5520310000000  0.4994550000000  0.5175840000000 1.0
C      1  0.4497540000000  0.4965500000000  0.4871400000000 1.0
C      1  0.4502270000000  0.4969660000000  0.5197970000000 1.0
C      1  0.5525280000000  0.4972920000000  0.4830230000000 1.0
C      1  0.5549040000000  0.5441070000000  0.5905130000000 1.0
C      1  0.4443990000000  0.5435750000000  0.4088680000000 1.0
C      1  0.4446800000000  0.5419970000000  0.5906720000000 1.0
C      1  0.5543420000000  0.5444170000000  0.4104440000000 1.0
C      1  0.5169020000000  0.5163020000000  0.6143390000000 1.0
C      1  0.4816650000000  0.5222860000000  0.3934050000000 1.0
C      1  0.4847070000000  0.5225580000000  0.6036410000000 1.0
C      1  0.5198190000000  0.5179200000000  0.3853990000000 1.0
C      1  0.4874960000000  0.5705020000000  0.4167470000000 1.0
C      1  0.5156750000000  0.5683240000000  0.5775270000000 1.0
C      1  0.5176960000000  0.5713860000000  0.4212820000000 1.0
C      1  0.4861890000000  0.5687540000000  0.5810960000000 1.0
C      1  0.4861290000000  0.4941440000000  0.3976010000000 1.0
C      1  0.5174410000000  0.4899340000000  0.6079680000000 1.0
C      1  0.5132400000000  0.4944430000000  0.3969990000000 1.0
C      1  0.4903290000000  0.4951280000000  0.5934130000000 1.0
C      1  0.4371970000000  0.5370270000000  0.4846700000000 1.0
C      1  0.5613830000000  0.5404530000000  0.5141930000000 1.0
C      1  0.5616800000000  0.5411070000000  0.4866710000000 1.0
C      1  0.4386990000000  0.5409530000000  0.5121190000000 1.0
C      1  0.4444130000000  0.5839270000000  0.5131590000000 1.0
C      1  0.5535110000000  0.5847810000000  0.4858060000000 1.0
C      1  0.5539030000000  0.5854280000000  0.5139990000000 1.0
C      1  0.4427400000000  0.5844190000000  0.4847790000000 1.0
C      1  0.4871470000000  0.5390410000000  0.5799830000000 1.0
C      1  0.5153960000000  0.5440610000000  0.4321220000000 1.0
C      1  0.5138870000000  0.5409610000000  0.5661720000000 1.0
C      1  0.4901960000000  0.5409840000000  0.4163690000000 1.0
C      1  0.5850940000000  0.5109050000000  0.4185320000000 1.0
C      1  0.4145690000000  0.5098570000000  0.5818000000000 1.0
C      1  0.4149440000000  0.5112080000000  0.4191760000000 1.0
C      1  0.5843920000000  0.5099230000000  0.5818680000000 1.0
C      1  0.5463330000000  0.5216860000000  0.3935080000000 1.0
C      1  0.4549780000000  0.5203370000000  0.6058540000000 1.0
C      1  0.4520850000000  0.5216670000000  0.3922190000000 1.0
C      1  0.5451050000000  0.5217840000000  0.6069330000000 1.0
C      1  0.5119520000000  0.4330450000000  0.4731830000000 1.0
C      1  0.4916190000000  0.4345620000000  0.5229720000000 1.0
C      1  0.4840910000000  0.4247550000000  0.4697240000000 1.0
C      1  0.5137100000000  0.4185990000000  0.5317700000000 1.0
C      1  0.5929050000000  0.4990710000000  0.4435410000000 1.0
C      1  0.4059610000000  0.4993950000000  0.5565110000000 1.0
C      1  0.4057680000000  0.5034220000000  0.4450780000000 1.0
C      1  0.5929850000000  0.4986310000000  0.5566240000000 1.0
C      1  0.4481730000000  0.4089590000000  0.5137360000000 1.0
C      1  0.5553880000000  0.4219880000000  0.4877560000000 1.0
C      1  0.5527200000000  0.4069970000000  0.5129620000000 1.0
C      1  0.4401230000000  0.4113620000000  0.4868200000000 1.0
C      1  0.5243370000000  0.4951640000000  0.4724310000000 1.0
C      1  0.4773620000000  0.5006420000000  0.5259210000000 1.0
C      1  0.4729600000000  0.5016510000000  0.4748430000000 1.0
C      1  0.5250760000000  0.5007120000000  0.5255860000000 1.0
C      1  0.4468780000000  0.5688690000000  0.4465180000000 1.0
C      1  0.5574860000000  0.5731420000000  0.5540480000000 1.0
C      1  0.5578030000000  0.5737630000000  0.4470170000000 1.0
C      1  0.4436200000000  0.5713370000000  0.5536340000000 1.0
C      1  0.4199470000000  0.4750790000000  0.5503060000000 1.0
C      1  0.5798720000000  0.4739710000000  0.4507360000000 1.0
C      1  0.5791150000000  0.4741810000000  0.5496070000000 1.0
C      1  0.4193770000000  0.4775650000000  0.4513990000000 1.0
C      1  0.5872470000000  0.5534390000000  0.5151750000000 1.0
C      1  0.4108560000000  0.5490620000000  0.4803340000000 1.0
C      1  0.4123760000000  0.5523770000000  0.5150810000000 1.0
C      1  0.5879200000000  0.5540060000000  0.4848820000000 1.0
C      1  0.5588130000000  0.4140940000000  0.4600060000000 1.0
C      1  0.4413860000000  0.4134380000000  0.5426230000000 1.0
C      1  0.4392740000000  0.4126890000000  0.4602230000000 1.0
C      1  0.5596850000000  0.4139160000000  0.5394670000000 1.0
C      1  0.3955870000000  0.4701290000000  0.5138570000000 1.0
C      1  0.6079330000000  0.4687970000000  0.4850440000000 1.0
C      1  0.6079410000000  0.4689080000000  0.5142330000000 1.0
C      1  0.3944090000000  0.4693860000000  0.4855000000000 1.0
C      1  0.5358740000000  0.4857710000000  0.5685110000000 1.0
C      1  0.4737390000000  0.4731350000000  0.4095910000000 1.0
C      1  0.4719180000000  0.4729590000000  0.5958420000000 1.0
C      1  0.5281570000000  0.4850360000000  0.4217600000000 1.0
C      1  0.4673070000000  0.4211400000000  0.5547060000000 1.0
C      1  0.5307710000000  0.4195780000000  0.4486630000000 1.0
C      1  0.5313110000000  0.4163430000000  0.5547580000000 1.0
C      1  0.4679820000000  0.4184410000000  0.4459850000000 1.0
C      1  0.4774740000000  0.5167780000000  0.5494950000000 1.0
C      1  0.5212560000000  0.5052730000000  0.4434100000000 1.0
C      1  0.5228360000000  0.5069280000000  0.5556880000000 1.0
C      1  0.4703250000000  0.5143330000000  0.4471590000000 1.0
C      1  0.4447330000000  0.4728450000000  0.5974510000000 1.0
C      1  0.5519350000000  0.4748570000000  0.4080710000000 1.0
C      1  0.5454690000000  0.4777690000000  0.5951020000000 1.0
C      1  0.4465570000000  0.4736990000000  0.4045040000000 1.0
C      1  0.4206780000000  0.5373280000000  0.5770010000000 1.0
C      1  0.5780350000000  0.5378680000000  0.4229510000000 1.0
C      1  0.5783390000000  0.5368000000000  0.5773260000000 1.0
C      1  0.4237210000000  0.5370380000000  0.4265010000000 1.0
C      1  0.4842160000000  0.5453850000000  0.5330090000000 1.0
C      1  0.5127190000000  0.5468530000000  0.4634040000000 1.0
C      1  0.5139490000000  0.5470780000000  0.5339190000000 1.0
C      1  0.4835410000000  0.5470230000000  0.4691840000000 1.0
C      1  0.4245240000000  0.5738960000000  0.5312960000000 1.0
C      1  0.5754930000000  0.5762350000000  0.4696720000000 1.0
C      1  0.5742740000000  0.5761860000000  0.5311160000000 1.0
C      1  0.4254040000000  0.5720140000000  0.4661750000000 1.0
C      1  0.5635820000000  0.5208010000000  0.5327460000000 1.0
C      1  0.4327200000000  0.5119030000000  0.4782600000000 1.0
C      1  0.4364520000000  0.5214140000000  0.5333100000000 1.0
C      1  0.5630040000000  0.5204770000000  0.4666930000000 1.0
C      1  0.5834260000000  0.4488010000000  0.4362470000000 1.0
C      1  0.4172150000000  0.4493470000000  0.5638930000000 1.0
C      1  0.4164450000000  0.4522770000000  0.4372060000000 1.0
C      1  0.5789050000000  0.4493190000000  0.5649590000000 1.0
C      1  0.5332580000000  0.5864300000000  0.5630020000000 1.0
C      1  0.4697140000000  0.5836500000000  0.4362690000000 1.0
C      1  0.4681120000000  0.5833360000000  0.5629500000000 1.0
C      1  0.5341770000000  0.5886890000000  0.4380890000000 1.0
C      1  0.4845480000000  0.4643120000000  0.4466480000000 1.0
C      1  0.5195660000000  0.4630910000000  0.5621040000000 1.0
C      1  0.5149950000000  0.4621230000000  0.4346730000000 1.0
C      1  0.4872030000000  0.4680640000000  0.5514790000000 1.0
C      1  0.5115190000000  0.4491340000000  0.5880890000000 1.0
C      1  0.4854540000000  0.4461990000000  0.4045400000000 1.0
C      1  0.4841390000000  0.4475680000000  0.5949510000000 1.0
C      1  0.5137750000000  0.4469410000000  0.4093860000000 1.0
C      1  0.5805840000000  0.4326680000000  0.5402750000000 1.0
C      1  0.4164290000000  0.4315100000000  0.4586130000000 1.0
C      1  0.4181890000000  0.4303590000000  0.5420600000000 1.0
C      1  0.5830580000000  0.4302740000000  0.4588970000000 1.0
C      1  0.5158900000000  0.4067990000000  0.4871200000000 1.0
C      1  0.4775230000000  0.4103560000000  0.5149540000000 1.0
C      1  0.4876760000000  0.4034180000000  0.4883520000000 1.0
C      1  0.5251550000000  0.4019120000000  0.5125680000000 1.0
C      1  0.5141580000000  0.6036850000000  0.5489460000000 1.0
C      1  0.4848340000000  0.6039160000000  0.4514290000000 1.0
C      1  0.4846370000000  0.6031350000000  0.5484370000000 1.0
C      1  0.5145290000000  0.6049600000000  0.4520270000000 1.0
C      1  0.4826770000000  0.4713010000000  0.4763170000000 1.0
C      1  0.5166570000000  0.4715230000000  0.5123000000000 1.0
C      1  0.5115800000000  0.4677090000000  0.4832820000000 1.0
C      1  0.4899570000000  0.4636120000000  0.5227680000000 1.0
C      1  0.4867500000000  0.5228200000000  0.5125850000000 1.0
C      1  0.5158200000000  0.5219040000000  0.4833580000000 1.0
C      1  0.5156180000000  0.5235470000000  0.5131530000000 1.0
C      1  0.4861160000000  0.5231040000000  0.4853790000000 1.0
C      1  0.4405630000000  0.4512800000000  0.4213220000000 1.0
C      1  0.5557640000000  0.4502510000000  0.5818380000000 1.0
C      1  0.5583690000000  0.4505250000000  0.4215320000000 1.0
C      1  0.4424470000000  0.4512310000000  0.5787740000000 1.0
C      1  0.5131570000000  0.4200400000000  0.4206000000000 1.0
C      1  0.4832660000000  0.4211320000000  0.5801510000000 1.0
C      1  0.4846650000000  0.4200880000000  0.4181700000000 1.0
C      1  0.5125060000000  0.4214860000000  0.5807520000000 1.0
C      1  0.5601910000000  0.4748510000000  0.5285200000000 1.0
C      1  0.4400040000000  0.4743570000000  0.4712510000000 1.0
C      1  0.4431840000000  0.4731110000000  0.5327800000000 1.0
C      1  0.5616810000000  0.4715640000000  0.4728310000000 1.0
C      1  0.5391660000000  0.4435720000000  0.5601580000000 1.0
C      1  0.4625650000000  0.4470000000000  0.4400110000000 1.0
C      1  0.4633950000000  0.4500870000000  0.5571600000000 1.0
C      1  0.5379210000000  0.4468130000000  0.4415130000000 1.0
C      1  0.5648490000000  0.4992350000000  0.4016510000000 1.0
C      1  0.4360810000000  0.4997490000000  0.5983270000000 1.0
C      1  0.4349700000000  0.4998320000000  0.4012830000000 1.0
C      1  0.5637590000000  0.5006050000000  0.5996470000000 1.0
C      1  0.5925200000000  0.5174440000000  0.4661790000000 1.0
C      1  0.4063300000000  0.5185260000000  0.5339920000000 1.0
C      1  0.3979710000000  0.5229250000000  0.4655900000000 1.0
C      1  0.5929870000000  0.5169150000000  0.5338230000000 1.0
C      1  0.4941920000000  0.4972720000000  0.5630290000000 1.0
C      1  0.4952880000000  0.5093300000000  0.4440250000000 1.0
END
