TITL C-2441156-4686-1006 0.0948281059452316 125000 -21610.8154745394 0 0 161 (C1) n - 1
REM
REM in /home/bkarasulu/work/CARBON/AIRSS/Generating-Clusters/ReaxFF-fromJPCA2015/Units_Real/with-SteepDescent/Higher-Symm
REM
REM
REM
REM
REM
REM ./C.cell (1df0a924f5614ab8850e4351716899ee)
REM
REM compiler GCC version 9.2.1 20190827 (Red Hat 9.2.1-1)
REM options -cpp -mtune=generic -march=x86-64 -g -O0 -fpre-include=/usr/include/finclude/math-vector-fortran.h
REM seed -194012928 1013004850 1811383129 1259425017 -382179933 -1395510304 -1177987781 919420496 1844853397 -1174000668 2093663758 2016791593 -1077736204 -613403718 413135691 1699089949 -2036759419 804407504 1030438043 -1241331870 -1679144113 719785515 -1577002321 825531944 142958128 158235990 -1115229324 1862748499 -728618849 2084082329 -1090909817 850199969 -28685425
REM
CELL 1.54180   50.00000   50.00000   50.00000   90.00000   90.00000   90.00000
LATT -1
SFAC C  
C      1  0.4435590000000  0.4750150000000  0.5749100000000 1.0
C      1  0.4424810000000  0.4237000000000  0.5268570000000 1.0
C      1  0.4432640000000  0.4335550000000  0.4565190000000 1.0
C      1  0.4425340000000  0.4920680000000  0.4217550000000 1.0
C      1  0.4434290000000  0.5571790000000  0.4461200000000 1.0
C      1  0.4426020000000  0.5776870000000  0.5075820000000 1.0
C      1  0.4486340000000  0.5318280000000  0.5568020000000 1.0
C      1  0.5609160000000  0.5593540000000  0.4453990000000 1.0
C      1  0.5600190000000  0.5799340000000  0.5116820000000 1.0
C      1  0.5694940000000  0.5363950000000  0.5708240000000 1.0
C      1  0.5596320000000  0.4704810000000  0.5747820000000 1.0
C      1  0.5589020000000  0.4233110000000  0.5238680000000 1.0
C      1  0.5649050000000  0.4355010000000  0.4517920000000 1.0
C      1  0.5672780000000  0.4966230000000  0.4208970000000 1.0
C      1  0.5286390000000  0.5970080000000  0.5052840000000 1.0
C      1  0.5242770000000  0.5486690000000  0.5696760000000 1.0
C      1  0.5285730000000  0.4738150000000  0.5924550000000 1.0
C      1  0.5280360000000  0.4103010000000  0.5355820000000 1.0
C      1  0.5276220000000  0.4183170000000  0.4547580000000 1.0
C      1  0.5205960000000  0.4800620000000  0.4129840000000 1.0
C      1  0.5291520000000  0.5653630000000  0.4289300000000 1.0
C      1  0.4914890000000  0.4410100000000  0.5318620000000 1.0
C      1  0.4895680000000  0.4406640000000  0.4772010000000 1.0
C      1  0.5024580000000  0.4791110000000  0.4365850000000 1.0
C      1  0.4907270000000  0.5376800000000  0.4459050000000 1.0
C      1  0.4910970000000  0.5664130000000  0.4949200000000 1.0
C      1  0.4899250000000  0.5427450000000  0.5491360000000 1.0
C      1  0.4892850000000  0.4902950000000  0.5663600000000 1.0
C      1  0.4212640000000  0.4915240000000  0.4382180000000 1.0
C      1  0.4222310000000  0.5425800000000  0.4576170000000 1.0
C      1  0.4208590000000  0.5606710000000  0.5070270000000 1.0
C      1  0.4211950000000  0.5323590000000  0.5523570000000 1.0
C      1  0.4206860000000  0.4805210000000  0.5589770000000 1.0
C      1  0.4210380000000  0.4412080000000  0.5227220000000 1.0
C      1  0.4238410000000  0.4446340000000  0.4687020000000 1.0
C      1  0.4571450000000  0.4681500000000  0.4184460000000 1.0
C      1  0.4560410000000  0.5414990000000  0.4250430000000 1.0
C      1  0.4550850000000  0.5898320000000  0.4844640000000 1.0
C      1  0.4547680000000  0.5609010000000  0.5549630000000 1.0
C      1  0.4555550000000  0.4947470000000  0.5924740000000 1.0
C      1  0.4565260000000  0.4299220000000  0.5517240000000 1.0
C      1  0.4518650000000  0.4154390000000  0.4750410000000 1.0
C      1  0.5480200000000  0.4461760000000  0.4301530000000 1.0
C      1  0.5469340000000  0.5167630000000  0.4182350000000 1.0
C      1  0.5455140000000  0.5743810000000  0.4658180000000 1.0
C      1  0.5464270000000  0.5765180000000  0.5375140000000 1.0
C      1  0.5500240000000  0.5182140000000  0.5825730000000 1.0
C      1  0.5460520000000  0.4470550000000  0.5653410000000 1.0
C      1  0.5454320000000  0.4168660000000  0.4977430000000 1.0
C      1  0.5276470000000  0.5280480000000  0.5451550000000 1.0
C      1  0.5226380000000  0.4809650000000  0.5449560000000 1.0
C      1  0.5220550000000  0.4568120000000  0.5096680000000 1.0
C      1  0.5275940000000  0.4462950000000  0.4654170000000 1.0
C      1  0.5311830000000  0.4895730000000  0.4639510000000 1.0
C      1  0.5297110000000  0.5325890000000  0.4667770000000 1.0
C      1  0.5255860000000  0.5514940000000  0.5108170000000 1.0
C      1  0.5478420000000  0.5344800000000  0.5089240000000 1.0
C      1  0.5493740000000  0.5153520000000  0.5303020000000 1.0
C      1  0.5459950000000  0.4866350000000  0.5279090000000 1.0
C      1  0.5479470000000  0.4685560000000  0.5049650000000 1.0
C      1  0.5442400000000  0.4677860000000  0.4759340000000 1.0
C      1  0.5487800000000  0.5107510000000  0.4619360000000 1.0
C      1  0.5536340000000  0.5303100000000  0.4820500000000 1.0
C      1  0.5090690000000  0.4003400000000  0.4675220000000 1.0
C      1  0.5057560000000  0.4584840000000  0.4001380000000 1.0
C      1  0.5129200000000  0.5514550000000  0.4109670000000 1.0
C      1  0.5108400000000  0.6052980000000  0.4863330000000 1.0
C      1  0.5107040000000  0.5736410000000  0.5692700000000 1.0
C      1  0.5118300000000  0.4912070000000  0.6046290000000 1.0
C      1  0.5126290000000  0.4131480000000  0.5582160000000 1.0
C      1  0.4609970000000  0.5718360000000  0.5289880000000 1.0
C      1  0.4580170000000  0.5226070000000  0.5867720000000 1.0
C      1  0.4622450000000  0.4575900000000  0.5603360000000 1.0
C      1  0.4579750000000  0.4142810000000  0.5038920000000 1.0
C      1  0.4622390000000  0.4507890000000  0.4420560000000 1.0
C      1  0.4564460000000  0.5131490000000  0.4323900000000 1.0
C      1  0.4572610000000  0.5791100000000  0.4582630000000 1.0
C      1  0.4521100000000  0.4728940000000  0.5031470000000 1.0
C      1  0.4611150000000  0.4766950000000  0.4753450000000 1.0
C      1  0.4597670000000  0.5052930000000  0.4619580000000 1.0
C      1  0.4592940000000  0.5211940000000  0.4835780000000 1.0
C      1  0.4639240000000  0.5308940000000  0.5095920000000 1.0
C      1  0.4573750000000  0.5123420000000  0.5312520000000 1.0
C      1  0.4628410000000  0.4839340000000  0.5285190000000 1.0
C      1  0.5734560000000  0.4485200000000  0.5596130000000 1.0
C      1  0.5736980000000  0.4217760000000  0.4961550000000 1.0
C      1  0.5742920000000  0.4561400000000  0.4334350000000 1.0
C      1  0.5738240000000  0.5244240000000  0.4244800000000 1.0
C      1  0.5731860000000  0.5721080000000  0.4698640000000 1.0
C      1  0.5733900000000  0.5693980000000  0.5364140000000 1.0
C      1  0.5755550000000  0.5105390000000  0.5790900000000 1.0
C      1  0.5101870000000  0.4515630000000  0.5898360000000 1.0
C      1  0.5089350000000  0.3983720000000  0.5169570000000 1.0
C      1  0.5082700000000  0.4218710000000  0.4315650000000 1.0
C      1  0.5124430000000  0.5032020000000  0.3953490000000 1.0
C      1  0.5128090000000  0.5856130000000  0.4402650000000 1.0
C      1  0.5100620000000  0.5999880000000  0.5272190000000 1.0
C      1  0.5097170000000  0.5388020000000  0.5932990000000 1.0
C      1  0.3991630000000  0.4689600000000  0.4972450000000 1.0
C      1  0.3950580000000  0.4813650000000  0.4727360000000 1.0
C      1  0.3930780000000  0.5096430000000  0.4693440000000 1.0
C      1  0.3934750000000  0.5292830000000  0.4894180000000 1.0
C      1  0.3913070000000  0.5282980000000  0.5174640000000 1.0
C      1  0.3922360000000  0.5042060000000  0.5321320000000 1.0
C      1  0.3928500000000  0.4772110000000  0.5230420000000 1.0
C      1  0.4099320000000  0.5465680000000  0.5299160000000 1.0
C      1  0.4104380000000  0.5067140000000  0.5533060000000 1.0
C      1  0.4103550000000  0.4616590000000  0.5397060000000 1.0
C      1  0.4246610000000  0.4548490000000  0.4978090000000 1.0
C      1  0.4141320000000  0.4692800000000  0.4553090000000 1.0
C      1  0.4112830000000  0.5169460000000  0.4488550000000 1.0
C      1  0.4120350000000  0.5486730000000  0.4832550000000 1.0
C      1  0.5030850000000  0.4973410000000  0.4690410000000 1.0
C      1  0.5057620000000  0.5221300000000  0.4802760000000 1.0
C      1  0.4931460000000  0.5254460000000  0.5046980000000 1.0
C      1  0.5080190000000  0.5166070000000  0.5250230000000 1.0
C      1  0.4967350000000  0.4919810000000  0.5281060000000 1.0
C      1  0.5028670000000  0.4773060000000  0.5064390000000 1.0
C      1  0.4880070000000  0.4815080000000  0.4846980000000 1.0
C      1  0.5024570000000  0.5585980000000  0.5240130000000 1.0
C      1  0.4895440000000  0.5164040000000  0.5593210000000 1.0
C      1  0.5029160000000  0.4607060000000  0.5500850000000 1.0
C      1  0.5015210000000  0.4377920000000  0.5036560000000 1.0
C      1  0.5030980000000  0.4577280000000  0.4569100000000 1.0
C      1  0.4972800000000  0.5122350000000  0.4332410000000 1.0
C      1  0.4934970000000  0.5587320000000  0.4678330000000 1.0
C      1  0.5809370000000  0.5425180000000  0.5447350000000 1.0
C      1  0.5785260000000  0.4894580000000  0.5613860000000 1.0
C      1  0.5776010000000  0.4465140000000  0.5309450000000 1.0
C      1  0.5797000000000  0.4428830000000  0.4769740000000 1.0
C      1  0.5811850000000  0.4830480000000  0.4414410000000 1.0
C      1  0.5801860000000  0.5364750000000  0.4494780000000 1.0
C      1  0.5784150000000  0.5617710000000  0.4958940000000 1.0
C      1  0.5252400000000  0.4310280000000  0.5768170000000 1.0
C      1  0.5233710000000  0.3975200000000  0.4919660000000 1.0
C      1  0.5240110000000  0.4389470000000  0.4136500000000 1.0
C      1  0.5267550000000  0.5281490000000  0.4004530000000 1.0
C      1  0.5266650000000  0.5974230000000  0.4630530000000 1.0
C      1  0.5242400000000  0.5899840000000  0.5501680000000 1.0
C      1  0.5270160000000  0.5153650000000  0.6009050000000 1.0
C      1  0.5910120000000  0.5208510000000  0.4718980000000 1.0
C      1  0.5897780000000  0.5346120000000  0.4983940000000 1.0
C      1  0.5899260000000  0.5223370000000  0.5253870000000 1.0
C      1  0.5883950000000  0.4940140000000  0.5340120000000 1.0
C      1  0.5887910000000  0.4701060000000  0.5169210000000 1.0
C      1  0.5890020000000  0.4691390000000  0.4871070000000 1.0
C      1  0.5897740000000  0.4913820000000  0.4678460000000 1.0
C      1  0.4807660000000  0.5972870000000  0.4963020000000 1.0
C      1  0.4800590000000  0.5610830000000  0.5711260000000 1.0
C      1  0.4814690000000  0.4814750000000  0.5952220000000 1.0
C      1  0.4816990000000  0.4138640000000  0.5462780000000 1.0
C      1  0.4797340000000  0.4135880000000  0.4628080000000 1.0
C      1  0.4801910000000  0.4733540000000  0.4021790000000 1.0
C      1  0.4824880000000  0.5555250000000  0.4225660000000 1.0
C      1  0.4802040000000  0.4279230000000  0.4370230000000 1.0
C      1  0.4853870000000  0.5034780000000  0.4069990000000 1.0
C      1  0.4831890000000  0.5781230000000  0.4433880000000 1.0
C      1  0.4807560000000  0.5935480000000  0.5251670000000 1.0
C      1  0.4797050000000  0.5400860000000  0.5936620000000 1.0
C      1  0.4809660000000  0.4540230000000  0.5843180000000 1.0
C      1  0.4799270000000  0.4027640000000  0.5186070000000 1.0
END
