TITL C-2441166-8118-616 0.00188477936216406 125000 -4359.39538218089 0 0 32 (C1) n - 1
REM
REM in /home/bkarasulu/work/CARBON/AIRSS/Generating-Clusters/ReaxFF-fromJPCA2015/Units_Real/with-SteepDescent/Higher-Symm
REM
REM
REM
REM
REM
REM ./C.cell (1df0a924f5614ab8850e4351716899ee)
REM
REM compiler GCC version 9.2.1 20190827 (Red Hat 9.2.1-1)
REM options -cpp -mtune=generic -march=x86-64 -g -O0 -fpre-include=/usr/include/finclude/math-vector-fortran.h
REM seed 765568142 -344646275 1814747113 -476282404 -318911289 -1440039998 1212309841 935204252 1387303330 -1717113 1947828443 -2014001935 -40065229 988483121 617855794 -129536944 -1429764096 2122146158 173849818 -2113476385 -1758189410 270804388 -967005886 -203532347 -598269999 673478687 -1865900036 -1052099249 -741863125 -1510061532 479165934 1209872821 2007397071
REM
CELL 1.54180   50.00000   50.00000   50.00000   90.00000   90.00000   90.00000
LATT -1
SFAC C  
C      1  0.4678070000000  0.4815970000000  0.5509880000000 1.0
C      1  0.4683660000000  0.4581540000000  0.4724510000000 1.0
C      1  0.4658720000000  0.5486300000000  0.4796630000000 1.0
C      1  0.5390750000000  0.5365580000000  0.4936440000000 1.0
C      1  0.5315630000000  0.4853240000000  0.5366540000000 1.0
C      1  0.5368440000000  0.4794140000000  0.4641080000000 1.0
C      1  0.5308280000000  0.4857700000000  0.5069440000000 1.0
C      1  0.5515440000000  0.5025380000000  0.4546010000000 1.0
C      1  0.5496060000000  0.5315950000000  0.5206340000000 1.0
C      1  0.4295510000000  0.4919850000000  0.5152090000000 1.0
C      1  0.4309840000000  0.4888160000000  0.4849870000000 1.0
C      1  0.4193850000000  0.5109300000000  0.4974590000000 1.0
C      1  0.5102440000000  0.5404980000000  0.4957730000000 1.0
C      1  0.5019630000000  0.4789290000000  0.5375570000000 1.0
C      1  0.5106450000000  0.4929820000000  0.4654530000000 1.0
C      1  0.5003860000000  0.4540790000000  0.5148610000000 1.0
C      1  0.5054050000000  0.5195790000000  0.4529840000000 1.0
C      1  0.5014240000000  0.5339270000000  0.5251280000000 1.0
C      1  0.5277490000000  0.5363650000000  0.5395060000000 1.0
C      1  0.5237150000000  0.4458550000000  0.5013850000000 1.0
C      1  0.5331270000000  0.5235420000000  0.4448660000000 1.0
C      1  0.4595630000000  0.4837270000000  0.4775230000000 1.0
C      1  0.4696600000000  0.5281910000000  0.4993800000000 1.0
C      1  0.4576550000000  0.4897930000000  0.5267520000000 1.0
C      1  0.4957360000000  0.5411560000000  0.4705380000000 1.0
C      1  0.4955520000000  0.5075900000000  0.5360570000000 1.0
C      1  0.4851920000000  0.4516940000000  0.4913760000000 1.0
C      1  0.5507400000000  0.5291250000000  0.4674310000000 1.0
C      1  0.5432920000000  0.5115540000000  0.5417890000000 1.0
C      1  0.5418350000000  0.4640370000000  0.4890440000000 1.0
C      1  0.5058760000000  0.4936080000000  0.4935480000000 1.0
C      1  0.4761190000000  0.4989700000000  0.4994830000000 1.0
END
