TITL C-2441154-10-1053 0.110924318777955 125000 -22107.6807223387 0 0 168 (C1) n - 1
REM
REM in /home/bkarasulu/work/CARBON/AIRSS/Generating-Clusters/ReaxFF-fromJPCA2015/Units_Real/with-SteepDescent/Higher-Symm
REM
REM
REM
REM
REM
REM ./C.cell (1df0a924f5614ab8850e4351716899ee)
REM
REM compiler GCC version 9.2.1 20190827 (Red Hat 9.2.1-1)
REM options -cpp -mtune=generic -march=x86-64 -g -O0 -fpre-include=/usr/include/finclude/math-vector-fortran.h
REM seed 1507674741 -2040216089 -766704542 -1469586104 -1239661881 529575488 -1286670173 539879392 2137539050 -602338669 2042347839 -1300479749 1393922054 1510303652 479995821 -485538849 -882077084 -904103742 271623574 1206584913 1628512116 1811187082 -775203607 820610703 -337721767 -1762943503 -147214393 -1913765222 -490212335 -2011646686 -1180902891 -1746770285 -1058699637
REM
CELL 1.54180   50.00000   50.00000   50.00000   90.00000   90.00000   90.00000
LATT -1
SFAC C  
C      1  0.5680330000000  0.4787320000000  0.4627900000000 1.0
C      1  0.4565580000000  0.4694650000000  0.4598580000000 1.0
C      1  0.4909130000000  0.5570460000000  0.4574420000000 1.0
C      1  0.5601600000000  0.5247200000000  0.5463910000000 1.0
C      1  0.4582790000000  0.5316030000000  0.5379870000000 1.0
C      1  0.4913180000000  0.4511880000000  0.5402270000000 1.0
C      1  0.5051420000000  0.6035280000000  0.4810010000000 1.0
C      1  0.5826590000000  0.4566140000000  0.4759770000000 1.0
C      1  0.4148250000000  0.4515680000000  0.4747690000000 1.0
C      1  0.4926590000000  0.4010400000000  0.5250350000000 1.0
C      1  0.5885530000000  0.5527780000000  0.5191850000000 1.0
C      1  0.4137110000000  0.5465090000000  0.5267660000000 1.0
C      1  0.4489740000000  0.5703220000000  0.5477780000000 1.0
C      1  0.5820420000000  0.5042960000000  0.5419850000000 1.0
C      1  0.4645510000000  0.4207420000000  0.5490170000000 1.0
C      1  0.4486930000000  0.4302020000000  0.4518560000000 1.0
C      1  0.6065070000000  0.5008960000000  0.4470260000000 1.0
C      1  0.4574840000000  0.5789540000000  0.4483620000000 1.0
C      1  0.4890030000000  0.4107080000000  0.5633660000000 1.0
C      1  0.4253350000000  0.5524790000000  0.5525350000000 1.0
C      1  0.5717290000000  0.5420430000000  0.5673540000000 1.0
C      1  0.4840300000000  0.5783430000000  0.4371930000000 1.0
C      1  0.4245600000000  0.4474620000000  0.4471640000000 1.0
C      1  0.5708890000000  0.4646400000000  0.4366750000000 1.0
C      1  0.4679670000000  0.4579390000000  0.4089840000000 1.0
C      1  0.4694190000000  0.5382830000000  0.4058960000000 1.0
C      1  0.5481360000000  0.5049810000000  0.4092250000000 1.0
C      1  0.4678060000000  0.5441780000000  0.5954520000000 1.0
C      1  0.4708650000000  0.4603280000000  0.5920010000000 1.0
C      1  0.5463750000000  0.4970150000000  0.5833330000000 1.0
C      1  0.4645920000000  0.4444120000000  0.4719330000000 1.0
C      1  0.4671250000000  0.5666800000000  0.4739170000000 1.0
C      1  0.5706820000000  0.5057280000000  0.4741490000000 1.0
C      1  0.4656200000000  0.5579280000000  0.5270730000000 1.0
C      1  0.4693470000000  0.4397360000000  0.5264560000000 1.0
C      1  0.5758630000000  0.4896440000000  0.5185720000000 1.0
C      1  0.6036380000000  0.4605750000000  0.4948250000000 1.0
C      1  0.4143970000000  0.4297250000000  0.4940490000000 1.0
C      1  0.4740270000000  0.5951690000000  0.4903140000000 1.0
C      1  0.6075560000000  0.5425490000000  0.5108830000000 1.0
C      1  0.4125840000000  0.5675360000000  0.5068920000000 1.0
C      1  0.4753430000000  0.3907750000000  0.5060980000000 1.0
C      1  0.5345420000000  0.4625850000000  0.5329720000000 1.0
C      1  0.4539360000000  0.4824600000000  0.5332170000000 1.0
C      1  0.5151010000000  0.5434250000000  0.5296110000000 1.0
C      1  0.5250350000000  0.5351610000000  0.4732390000000 1.0
C      1  0.4552430000000  0.5187550000000  0.4657120000000 1.0
C      1  0.5142610000000  0.4539180000000  0.4687970000000 1.0
C      1  0.5414290000000  0.4801950000000  0.3975330000000 1.0
C      1  0.4647390000000  0.4817640000000  0.3932690000000 1.0
C      1  0.4949590000000  0.5486300000000  0.3983460000000 1.0
C      1  0.5441170000000  0.5189260000000  0.6019860000000 1.0
C      1  0.4679310000000  0.5180800000000  0.6053370000000 1.0
C      1  0.4963000000000  0.4505350000000  0.6005260000000 1.0
C      1  0.5005150000000  0.4771970000000  0.5065760000000 1.0
C      1  0.4760910000000  0.5245190000000  0.5028960000000 1.0
C      1  0.5355000000000  0.5091220000000  0.5089140000000 1.0
C      1  0.5007960000000  0.5263630000000  0.4899080000000 1.0
C      1  0.4744010000000  0.4772100000000  0.4957160000000 1.0
C      1  0.5259420000000  0.4859840000000  0.4936110000000 1.0
C      1  0.5343500000000  0.4256430000000  0.4394760000000 1.0
C      1  0.4236400000000  0.4979370000000  0.4379780000000 1.0
C      1  0.5412410000000  0.5669580000000  0.4384510000000 1.0
C      1  0.5300840000000  0.5781670000000  0.5652990000000 1.0
C      1  0.4254630000000  0.5030300000000  0.5631280000000 1.0
C      1  0.5394560000000  0.4294440000000  0.5613580000000 1.0
C      1  0.4866410000000  0.4008770000000  0.4526720000000 1.0
C      1  0.4222360000000  0.5586540000000  0.4543310000000 1.0
C      1  0.5808190000000  0.5478550000000  0.4441820000000 1.0
C      1  0.4883640000000  0.5957200000000  0.5453180000000 1.0
C      1  0.4240310000000  0.4420230000000  0.5445190000000 1.0
C      1  0.5759630000000  0.4565050000000  0.5605550000000 1.0
C      1  0.4915710000000  0.6147730000000  0.5038930000000 1.0
C      1  0.6040000000000  0.4502990000000  0.5205050000000 1.0
C      1  0.3969260000000  0.4418380000000  0.5138320000000 1.0
C      1  0.4982630000000  0.3825100000000  0.4883610000000 1.0
C      1  0.6035160000000  0.5413440000000  0.4826980000000 1.0
C      1  0.3953740000000  0.5588010000000  0.4849860000000 1.0
C      1  0.5610410000000  0.4410300000000  0.5122480000000 1.0
C      1  0.4125240000000  0.4847350000000  0.5126040000000 1.0
C      1  0.5144640000000  0.5804910000000  0.5138300000000 1.0
C      1  0.5568160000000  0.5572360000000  0.4884640000000 1.0
C      1  0.4235060000000  0.5273190000000  0.4894620000000 1.0
C      1  0.5113390000000  0.4212210000000  0.4913150000000 1.0
C      1  0.4796560000000  0.4832890000000  0.4685700000000 1.0
C      1  0.4942190000000  0.5081260000000  0.4671940000000 1.0
C      1  0.5218870000000  0.4940670000000  0.4616690000000 1.0
C      1  0.4816820000000  0.5197020000000  0.5319460000000 1.0
C      1  0.4973750000000  0.4946190000000  0.5313610000000 1.0
C      1  0.5264150000000  0.5047000000000  0.5367450000000 1.0
C      1  0.4425820000000  0.5445360000000  0.4141350000000 1.0
C      1  0.5685090000000  0.5236410000000  0.4139760000000 1.0
C      1  0.4840380000000  0.4336260000000  0.4162010000000 1.0
C      1  0.4442210000000  0.4545910000000  0.5831310000000 1.0
C      1  0.5728460000000  0.4932830000000  0.5851690000000 1.0
C      1  0.4823720000000  0.5667410000000  0.5844840000000 1.0
C      1  0.5892610000000  0.5216180000000  0.4337490000000 1.0
C      1  0.4698460000000  0.4174440000000  0.4350830000000 1.0
C      1  0.4381060000000  0.5653160000000  0.4331090000000 1.0
C      1  0.5884830000000  0.4838820000000  0.5646830000000 1.0
C      1  0.4698200000000  0.5829410000000  0.5643020000000 1.0
C      1  0.4421550000000  0.4341180000000  0.5633020000000 1.0
C      1  0.4783670000000  0.5251400000000  0.4501220000000 1.0
C      1  0.5293370000000  0.5185450000000  0.4491330000000 1.0
C      1  0.5079570000000  0.4726230000000  0.4509890000000 1.0
C      1  0.4802980000000  0.4773930000000  0.5477390000000 1.0
C      1  0.5291220000000  0.4808100000000  0.5510280000000 1.0
C      1  0.4997530000000  0.5340960000000  0.5497250000000 1.0
C      1  0.4401600000000  0.4835780000000  0.5782970000000 1.0
C      1  0.5112160000000  0.5646590000000  0.5830210000000 1.0
C      1  0.5520000000000  0.4504240000000  0.5754090000000 1.0
C      1  0.4387090000000  0.5164140000000  0.4216220000000 1.0
C      1  0.5127900000000  0.4354780000000  0.4212330000000 1.0
C      1  0.5603210000000  0.5496080000000  0.4246150000000 1.0
C      1  0.5107500000000  0.4642040000000  0.4245140000000 1.0
C      1  0.4689120000000  0.5149250000000  0.4234870000000 1.0
C      1  0.5283240000000  0.5216460000000  0.4210460000000 1.0
C      1  0.5099900000000  0.5358920000000  0.5760860000000 1.0
C      1  0.4704790000000  0.4851390000000  0.5766390000000 1.0
C      1  0.5296480000000  0.4733650000000  0.5791410000000 1.0
C      1  0.5129780000000  0.4817120000000  0.4021320000000 1.0
C      1  0.4892610000000  0.4989180000000  0.3981690000000 1.0
C      1  0.5073840000000  0.5224690000000  0.4008440000000 1.0
C      1  0.5143620000000  0.5173210000000  0.5978890000000 1.0
C      1  0.4910260000000  0.5002380000000  0.5996580000000 1.0
C      1  0.5085380000000  0.4768050000000  0.5999080000000 1.0
C      1  0.5557190000000  0.5656670000000  0.5738120000000 1.0
C      1  0.5190790000000  0.4119310000000  0.5707210000000 1.0
C      1  0.4254270000000  0.5301880000000  0.5723360000000 1.0
C      1  0.5584360000000  0.4386860000000  0.4283730000000 1.0
C      1  0.5224220000000  0.5816490000000  0.4246730000000 1.0
C      1  0.4232830000000  0.4705820000000  0.4285960000000 1.0
C      1  0.5807370000000  0.5572490000000  0.4719000000000 1.0
C      1  0.5118140000000  0.4016740000000  0.4689440000000 1.0
C      1  0.4065310000000  0.5371250000000  0.4676690000000 1.0
C      1  0.5802170000000  0.4417710000000  0.5343370000000 1.0
C      1  0.5171360000000  0.5907110000000  0.5418870000000 1.0
C      1  0.4068570000000  0.4633720000000  0.5318110000000 1.0
C      1  0.5523490000000  0.5260240000000  0.4905090000000 1.0
C      1  0.4929400000000  0.4431070000000  0.4843120000000 1.0
C      1  0.4536120000000  0.5374080000000  0.4876610000000 1.0
C      1  0.5527600000000  0.4699300000000  0.5118820000000 1.0
C      1  0.4948330000000  0.5586110000000  0.5150100000000 1.0
C      1  0.4555130000000  0.4624490000000  0.5131040000000 1.0
C      1  0.4410290000000  0.4687890000000  0.4050120000000 1.0
C      1  0.4987390000000  0.5756770000000  0.4115290000000 1.0
C      1  0.5596890000000  0.4609510000000  0.4094000000000 1.0
C      1  0.4438200000000  0.5303510000000  0.5951210000000 1.0
C      1  0.4992880000000  0.4235570000000  0.5881760000000 1.0
C      1  0.5587220000000  0.5433390000000  0.5933170000000 1.0
C      1  0.5154470000000  0.4160030000000  0.5192110000000 1.0
C      1  0.4135590000000  0.5174830000000  0.5152340000000 1.0
C      1  0.5617470000000  0.5632040000000  0.5167910000000 1.0
C      1  0.5260710000000  0.5842550000000  0.4860260000000 1.0
C      1  0.4178450000000  0.4782340000000  0.4859580000000 1.0
C      1  0.5621290000000  0.4367830000000  0.4834860000000 1.0
C      1  0.4731830000000  0.5988050000000  0.5205600000000 1.0
C      1  0.6028480000000  0.4798530000000  0.5156170000000 1.0
C      1  0.4193590000000  0.4249390000000  0.5226220000000 1.0
C      1  0.4727600000000  0.3888260000000  0.4754010000000 1.0
C      1  0.5984060000000  0.5122230000000  0.4741440000000 1.0
C      1  0.4188880000000  0.5750910000000  0.4782200000000 1.0
C      1  0.5383890000000  0.4382040000000  0.4658560000000 1.0
C      1  0.4372840000000  0.4937580000000  0.4648050000000 1.0
C      1  0.5232460000000  0.5625170000000  0.4647240000000 1.0
C      1  0.5443140000000  0.5453270000000  0.5317180000000 1.0
C      1  0.4392110000000  0.5085310000000  0.5358770000000 1.0
C      1  0.5187970000000  0.4392270000000  0.5369760000000 1.0
END
