TITL C-2441159-1093-817 0.127598159712 125000 -23296.8485785374 0 0 179 (C1) n - 1
REM
REM in /home/bkarasulu/work/CARBON/AIRSS/Generating-Clusters/ReaxFF-fromJPCA2015/Units_Real/with-SteepDescent/Higher-Symm
REM
REM
REM
REM
REM
REM ./C.cell (1df0a924f5614ab8850e4351716899ee)
REM
REM compiler GCC version 9.2.1 20190827 (Red Hat 9.2.1-1)
REM options -cpp -mtune=generic -march=x86-64 -g -O0 -fpre-include=/usr/include/finclude/math-vector-fortran.h
REM seed 1638918016 -1156375846 724500379 -787360347 1516815599 2023262237 -231769894 -432548273 2123903315 866532260 499012240 1779440712 1005658027 -2144932066 466800316 817181114 -371231498 1830505284 515916272 -1747467973 1794963285 -1768658232 -1573623940 407524622 -1810460777 -1537227097 -933723335 1724643240 -1559734770 -1021508005 -2044558751 1625622038 -610295907
REM
CELL 1.54180   50.00000   50.00000   50.00000   90.00000   90.00000   90.00000
LATT -1
SFAC C  
C      1  0.5818290000000  0.4334390000000  0.4910480000000 1.0
C      1  0.4097660000000  0.5661380000000  0.5011290000000 1.0
C      1  0.4115380000000  0.4336730000000  0.4923430000000 1.0
C      1  0.5891310000000  0.5637300000000  0.4921510000000 1.0
C      1  0.4051300000000  0.4866640000000  0.4940050000000 1.0
C      1  0.5967900000000  0.5141700000000  0.4948120000000 1.0
C      1  0.5964540000000  0.4861500000000  0.4961720000000 1.0
C      1  0.4058380000000  0.5128290000000  0.4810370000000 1.0
C      1  0.4216970000000  0.5131040000000  0.5489610000000 1.0
C      1  0.5775040000000  0.4867570000000  0.5478910000000 1.0
C      1  0.5779840000000  0.5146750000000  0.5484050000000 1.0
C      1  0.4208470000000  0.4849570000000  0.5501760000000 1.0
C      1  0.5958550000000  0.5382080000000  0.4762020000000 1.0
C      1  0.4085610000000  0.4637790000000  0.4755370000000 1.0
C      1  0.4071250000000  0.5425110000000  0.4839870000000 1.0
C      1  0.5951140000000  0.4680570000000  0.4733150000000 1.0
C      1  0.4509910000000  0.4968270000000  0.4673610000000 1.0
C      1  0.5401600000000  0.5148060000000  0.4434280000000 1.0
C      1  0.5480010000000  0.4977560000000  0.4624030000000 1.0
C      1  0.4485220000000  0.5171550000000  0.4512050000000 1.0
C      1  0.5810380000000  0.5235100000000  0.5195370000000 1.0
C      1  0.4179420000000  0.4760020000000  0.5192560000000 1.0
C      1  0.4190750000000  0.5223790000000  0.5201900000000 1.0
C      1  0.5792390000000  0.4752490000000  0.5192670000000 1.0
C      1  0.4243660000000  0.4485190000000  0.5670990000000 1.0
C      1  0.5734380000000  0.5497720000000  0.5676290000000 1.0
C      1  0.5745880000000  0.4507240000000  0.5657590000000 1.0
C      1  0.4278600000000  0.5504390000000  0.5642260000000 1.0
C      1  0.4077020000000  0.5070130000000  0.4502890000000 1.0
C      1  0.5891910000000  0.4854870000000  0.4496820000000 1.0
C      1  0.5892560000000  0.5136650000000  0.4498830000000 1.0
C      1  0.4108300000000  0.4801900000000  0.4464280000000 1.0
C      1  0.5237270000000  0.4052910000000  0.4570080000000 1.0
C      1  0.4681540000000  0.5982460000000  0.4550150000000 1.0
C      1  0.4702380000000  0.3966500000000  0.4628190000000 1.0
C      1  0.5311110000000  0.5978310000000  0.4639370000000 1.0
C      1  0.4734020000000  0.5960100000000  0.5058300000000 1.0
C      1  0.5200950000000  0.3997050000000  0.5092510000000 1.0
C      1  0.5291280000000  0.5997210000000  0.5057450000000 1.0
C      1  0.4783240000000  0.3989450000000  0.5097220000000 1.0
C      1  0.4216150000000  0.5684310000000  0.5403080000000 1.0
C      1  0.5780970000000  0.4321480000000  0.5432710000000 1.0
C      1  0.5805080000000  0.5678090000000  0.5454500000000 1.0
C      1  0.4203900000000  0.4307760000000  0.5437200000000 1.0
C      1  0.4812720000000  0.5193190000000  0.4029290000000 1.0
C      1  0.5272920000000  0.4954310000000  0.4035020000000 1.0
C      1  0.5093220000000  0.5156860000000  0.4031300000000 1.0
C      1  0.4769010000000  0.4906950000000  0.4074100000000 1.0
C      1  0.4058590000000  0.5334840000000  0.5710220000000 1.0
C      1  0.5956150000000  0.4693270000000  0.5696180000000 1.0
C      1  0.5973260000000  0.5338460000000  0.5669820000000 1.0
C      1  0.4031860000000  0.4674150000000  0.5711760000000 1.0
C      1  0.5191880000000  0.4446890000000  0.5212020000000 1.0
C      1  0.4827330000000  0.5491660000000  0.5230840000000 1.0
C      1  0.4785520000000  0.4585790000000  0.5236760000000 1.0
C      1  0.5224200000000  0.5414050000000  0.5261490000000 1.0
C      1  0.4463030000000  0.4849640000000  0.5135770000000 1.0
C      1  0.5545290000000  0.5131740000000  0.5113730000000 1.0
C      1  0.5501170000000  0.4852910000000  0.5108100000000 1.0
C      1  0.4424180000000  0.5122580000000  0.5081720000000 1.0
C      1  0.4232050000000  0.4450700000000  0.5172040000000 1.0
C      1  0.5765910000000  0.5542380000000  0.5177860000000 1.0
C      1  0.5775170000000  0.4452630000000  0.5173070000000 1.0
C      1  0.4271380000000  0.5518060000000  0.5189450000000 1.0
C      1  0.4376910000000  0.5432230000000  0.4515090000000 1.0
C      1  0.5649310000000  0.4483160000000  0.4470980000000 1.0
C      1  0.5535630000000  0.5504640000000  0.4528090000000 1.0
C      1  0.4443380000000  0.4494830000000  0.4475800000000 1.0
C      1  0.5401160000000  0.4854310000000  0.5887390000000 1.0
C      1  0.4610500000000  0.5148150000000  0.5853130000000 1.0
C      1  0.4616670000000  0.4862230000000  0.5871420000000 1.0
C      1  0.5391020000000  0.5138330000000  0.5893470000000 1.0
C      1  0.4910320000000  0.4717840000000  0.4856770000000 1.0
C      1  0.5097220000000  0.5228710000000  0.4861660000000 1.0
C      1  0.5173650000000  0.4728070000000  0.4712330000000 1.0
C      1  0.4835270000000  0.5195180000000  0.4773640000000 1.0
C      1  0.5532600000000  0.5252930000000  0.5640470000000 1.0
C      1  0.4458570000000  0.4734690000000  0.5633380000000 1.0
C      1  0.4468820000000  0.5260150000000  0.5622230000000 1.0
C      1  0.5526020000000  0.4765090000000  0.5631470000000 1.0
C      1  0.4581720000000  0.4429190000000  0.5113160000000 1.0
C      1  0.5449820000000  0.5525630000000  0.5121800000000 1.0
C      1  0.5440240000000  0.4419810000000  0.5099410000000 1.0
C      1  0.4588760000000  0.5527210000000  0.5095810000000 1.0
C      1  0.4621530000000  0.4246290000000  0.5481930000000 1.0
C      1  0.5368440000000  0.5775670000000  0.5450920000000 1.0
C      1  0.5414360000000  0.4193240000000  0.5595890000000 1.0
C      1  0.4668490000000  0.5876080000000  0.5487670000000 1.0
C      1  0.5664260000000  0.5384160000000  0.4716060000000 1.0
C      1  0.4358740000000  0.4567730000000  0.4724500000000 1.0
C      1  0.4350160000000  0.5488840000000  0.4763140000000 1.0
C      1  0.5713200000000  0.4535690000000  0.4734280000000 1.0
C      1  0.4851460000000  0.5591250000000  0.4699390000000 1.0
C      1  0.5170940000000  0.4433030000000  0.4687410000000 1.0
C      1  0.5121040000000  0.5501290000000  0.4755920000000 1.0
C      1  0.4882810000000  0.4448940000000  0.4725580000000 1.0
C      1  0.5258720000000  0.5759730000000  0.5717170000000 1.0
C      1  0.4729360000000  0.4264660000000  0.5747080000000 1.0
C      1  0.4747100000000  0.5665930000000  0.5823390000000 1.0
C      1  0.5277080000000  0.4342130000000  0.5785940000000 1.0
C      1  0.4222360000000  0.5115940000000  0.4214120000000 1.0
C      1  0.5733260000000  0.4863990000000  0.4234430000000 1.0
C      1  0.5753610000000  0.5154310000000  0.4240350000000 1.0
C      1  0.4276320000000  0.4832230000000  0.4213430000000 1.0
C      1  0.4889950000000  0.5910850000000  0.4381820000000 1.0
C      1  0.5048580000000  0.4179900000000  0.4360250000000 1.0
C      1  0.5157340000000  0.5919020000000  0.4372060000000 1.0
C      1  0.4772300000000  0.4094720000000  0.4378490000000 1.0
C      1  0.5111160000000  0.4177780000000  0.5311770000000 1.0
C      1  0.4868030000000  0.5833990000000  0.5277910000000 1.0
C      1  0.4839640000000  0.4100630000000  0.5365560000000 1.0
C      1  0.5140830000000  0.5934780000000  0.5346030000000 1.0
C      1  0.4870770000000  0.5471520000000  0.5769650000000 1.0
C      1  0.5118590000000  0.4561130000000  0.5702810000000 1.0
C      1  0.5154360000000  0.5475740000000  0.5747060000000 1.0
C      1  0.4835230000000  0.4534120000000  0.5767820000000 1.0
C      1  0.5592980000000  0.4115640000000  0.5393820000000 1.0
C      1  0.4404150000000  0.5895880000000  0.5362440000000 1.0
C      1  0.4393710000000  0.4102510000000  0.5387970000000 1.0
C      1  0.5624550000000  0.5882450000000  0.5363550000000 1.0
C      1  0.5177010000000  0.4081260000000  0.5642680000000 1.0
C      1  0.4800990000000  0.5905760000000  0.5724880000000 1.0
C      1  0.4901610000000  0.4046300000000  0.5677940000000 1.0
C      1  0.5070900000000  0.5964890000000  0.5655750000000 1.0
C      1  0.4861770000000  0.4736690000000  0.5968630000000 1.0
C      1  0.5152470000000  0.5275120000000  0.5972250000000 1.0
C      1  0.5157950000000  0.4699060000000  0.5955600000000 1.0
C      1  0.4852030000000  0.5300040000000  0.5965550000000 1.0
C      1  0.4423690000000  0.4053980000000  0.4615120000000 1.0
C      1  0.5582790000000  0.5887990000000  0.4589080000000 1.0
C      1  0.5527750000000  0.4045500000000  0.4621770000000 1.0
C      1  0.4417380000000  0.5865340000000  0.4571130000000 1.0
C      1  0.5115940000000  0.5176540000000  0.5138080000000 1.0
C      1  0.4954030000000  0.4813880000000  0.5125650000000 1.0
C      1  0.4847930000000  0.5188750000000  0.5237280000000 1.0
C      1  0.5218690000000  0.4741960000000  0.5232580000000 1.0
C      1  0.5099470000000  0.4791570000000  0.4419110000000 1.0
C      1  0.4886390000000  0.5204850000000  0.4492070000000 1.0
C      1  0.4821110000000  0.4837800000000  0.4364010000000 1.0
C      1  0.5132340000000  0.5075320000000  0.4419480000000 1.0
C      1  0.5259730000000  0.5515360000000  0.4514830000000 1.0
C      1  0.4712500000000  0.4586450000000  0.4462690000000 1.0
C      1  0.4791520000000  0.5477120000000  0.4440800000000 1.0
C      1  0.5382670000000  0.4417080000000  0.4413530000000 1.0
C      1  0.4407440000000  0.5669220000000  0.4355170000000 1.0
C      1  0.5603830000000  0.4217140000000  0.4404830000000 1.0
C      1  0.5618100000000  0.5719040000000  0.4347580000000 1.0
C      1  0.4490000000000  0.4221750000000  0.4377170000000 1.0
C      1  0.4452860000000  0.5950910000000  0.5083010000000 1.0
C      1  0.5497200000000  0.4020810000000  0.5123650000000 1.0
C      1  0.5572230000000  0.5961630000000  0.5084440000000 1.0
C      1  0.4493960000000  0.4060730000000  0.5110510000000 1.0
C      1  0.4571570000000  0.5302880000000  0.4905090000000 1.0
C      1  0.5481600000000  0.4780310000000  0.4817660000000 1.0
C      1  0.5481050000000  0.5323250000000  0.4915860000000 1.0
C      1  0.4539360000000  0.4758250000000  0.4848760000000 1.0
C      1  0.5652360000000  0.4095570000000  0.4884120000000 1.0
C      1  0.4295480000000  0.5836100000000  0.4853840000000 1.0
C      1  0.4304280000000  0.4124590000000  0.4874940000000 1.0
C      1  0.5722980000000  0.5857360000000  0.4849100000000 1.0
C      1  0.4613170000000  0.5507100000000  0.4205950000000 1.0
C      1  0.5300000000000  0.4532920000000  0.4139950000000 1.0
C      1  0.5444020000000  0.5571740000000  0.4156040000000 1.0
C      1  0.4714180000000  0.4501140000000  0.4174800000000 1.0
C      1  0.5250990000000  0.5280890000000  0.5521880000000 1.0
C      1  0.4636890000000  0.4799760000000  0.5405320000000 1.0
C      1  0.4794810000000  0.5048370000000  0.5485260000000 1.0
C      1  0.5240210000000  0.4795290000000  0.5509730000000 1.0
C      1  0.4495640000000  0.5238140000000  0.4172780000000 1.0
C      1  0.5472390000000  0.4770690000000  0.4105020000000 1.0
C      1  0.5488900000000  0.5280450000000  0.4160630000000 1.0
C      1  0.4541920000000  0.4724160000000  0.4094180000000 1.0
C      1  0.4851580000000  0.5901390000000  0.4810000000000 1.0
C      1  0.5125610000000  0.4058830000000  0.4825150000000 1.0
C      1  0.5140290000000  0.5937630000000  0.4846530000000 1.0
C      1  0.4852870000000  0.4102270000000  0.4836710000000 1.0
C      1  0.5033990000000  0.4439900000000  0.4218560000000 1.0
C      1  0.5174580000000  0.5644300000000  0.4262610000000 1.0
C      1  0.5075210000000  0.5037370000000  0.5546030000000 1.0
END
