TITL C-2441166-8118-685 0.0486655896284269 125000 -18357.9400672771 0 0 130 (C1) n - 1
REM
REM in /home/bkarasulu/work/CARBON/AIRSS/Generating-Clusters/ReaxFF-fromJPCA2015/Units_Real/with-SteepDescent/Higher-Symm
REM
REM
REM
REM
REM
REM ./C.cell (1df0a924f5614ab8850e4351716899ee)
REM
REM compiler GCC version 9.2.1 20190827 (Red Hat 9.2.1-1)
REM options -cpp -mtune=generic -march=x86-64 -g -O0 -fpre-include=/usr/include/finclude/math-vector-fortran.h
REM seed -587568249 -595096490 -1292800054 1877552985 780096967 -1073077533 270557849 -1210654621 87572497 -1468666756 104830468 -1265368313 657058281 -2057430612 420774699 146804399 -1986482397 -1007495762 -623805845 -690244499 2064733896 1585199034 -920572113 23586329 2093243747 -287897606 211241771 2078978723 1247113020 228122473 2114125857 -620145655 1438761964
REM
CELL 1.54180   50.00000   50.00000   50.00000   90.00000   90.00000   90.00000
LATT -1
SFAC C  
C      1  0.4538360000000  0.4854320000000  0.4166190000000 1.0
C      1  0.4547760000000  0.4155970000000  0.4880720000000 1.0
C      1  0.4542950000000  0.4629160000000  0.5756610000000 1.0
C      1  0.4547180000000  0.5607530000000  0.5587500000000 1.0
C      1  0.4553970000000  0.5765690000000  0.4603230000000 1.0
C      1  0.4539990000000  0.5145950000000  0.4168310000000 1.0
C      1  0.4548180000000  0.5842080000000  0.4883400000000 1.0
C      1  0.4539850000000  0.5379520000000  0.5768970000000 1.0
C      1  0.4547730000000  0.4397930000000  0.5579970000000 1.0
C      1  0.4553390000000  0.4233460000000  0.4601420000000 1.0
C      1  0.4782640000000  0.5852730000000  0.4442780000000 1.0
C      1  0.4765660000000  0.4736090000000  0.4022260000000 1.0
C      1  0.4780560000000  0.4008560000000  0.4972110000000 1.0
C      1  0.4773400000000  0.4646010000000  0.5938960000000 1.0
C      1  0.4785970000000  0.5783820000000  0.5599730000000 1.0
C      1  0.4782870000000  0.4147740000000  0.4442420000000 1.0
C      1  0.4768180000000  0.5262770000000  0.4026000000000 1.0
C      1  0.4781110000000  0.5990610000000  0.4972600000000 1.0
C      1  0.4772910000000  0.5358560000000  0.5945850000000 1.0
C      1  0.4784880000000  0.4219980000000  0.5597500000000 1.0
C      1  0.5711730000000  0.5490120000000  0.4617450000000 1.0
C      1  0.5693370000000  0.4726410000000  0.4405910000000 1.0
C      1  0.5685790000000  0.4359310000000  0.4999610000000 1.0
C      1  0.5655950000000  0.4860140000000  0.5653100000000 1.0
C      1  0.5704760000000  0.5561250000000  0.5283650000000 1.0
C      1  0.5713530000000  0.4513480000000  0.4618130000000 1.0
C      1  0.5694520000000  0.5275300000000  0.4409490000000 1.0
C      1  0.5682780000000  0.5633310000000  0.4999940000000 1.0
C      1  0.5633630000000  0.5142090000000  0.5643840000000 1.0
C      1  0.5713730000000  0.4432770000000  0.5281740000000 1.0
C      1  0.4359310000000  0.5577170000000  0.4490440000000 1.0
C      1  0.4367310000000  0.4674020000000  0.4322360000000 1.0
C      1  0.4367350000000  0.4270210000000  0.5078280000000 1.0
C      1  0.4365190000000  0.4855210000000  0.5706020000000 1.0
C      1  0.4364450000000  0.5635920000000  0.5358970000000 1.0
C      1  0.4357680000000  0.4421060000000  0.4487400000000 1.0
C      1  0.4369250000000  0.5324720000000  0.4325510000000 1.0
C      1  0.4370360000000  0.5723720000000  0.5080680000000 1.0
C      1  0.4371160000000  0.5145720000000  0.5713930000000 1.0
C      1  0.4361270000000  0.4362850000000  0.5355610000000 1.0
C      1  0.4223870000000  0.4602450000000  0.5277350000000 1.0
C      1  0.4393040000000  0.5197390000000  0.5434820000000 1.0
C      1  0.4329770000000  0.5440690000000  0.4991340000000 1.0
C      1  0.4296330000000  0.5191460000000  0.4565050000000 1.0
C      1  0.4227660000000  0.4572140000000  0.4697330000000 1.0
C      1  0.4247340000000  0.5385090000000  0.5284040000000 1.0
C      1  0.4333680000000  0.4810150000000  0.5425270000000 1.0
C      1  0.4324150000000  0.4551390000000  0.4985330000000 1.0
C      1  0.4297550000000  0.4807590000000  0.4564050000000 1.0
C      1  0.4227820000000  0.5426250000000  0.4699140000000 1.0
C      1  0.4568380000000  0.5127100000000  0.4631800000000 1.0
C      1  0.4762370000000  0.4681010000000  0.4759000000000 1.0
C      1  0.4757200000000  0.4668950000000  0.5219010000000 1.0
C      1  0.4692720000000  0.5139660000000  0.5396290000000 1.0
C      1  0.4622650000000  0.5392230000000  0.4992210000000 1.0
C      1  0.4575660000000  0.4866940000000  0.4633460000000 1.0
C      1  0.4758270000000  0.5310740000000  0.4757030000000 1.0
C      1  0.4771700000000  0.5345540000000  0.5214730000000 1.0
C      1  0.4602280000000  0.4868160000000  0.5348840000000 1.0
C      1  0.4620720000000  0.4591050000000  0.4987770000000 1.0
C      1  0.5419820000000  0.5715470000000  0.4266000000000 1.0
C      1  0.5375810000000  0.4509820000000  0.4110870000000 1.0
C      1  0.5372750000000  0.4010030000000  0.5168310000000 1.0
C      1  0.5397910000000  0.4861220000000  0.6059690000000 1.0
C      1  0.5417550000000  0.5934620000000  0.5435060000000 1.0
C      1  0.5421560000000  0.4282370000000  0.4265130000000 1.0
C      1  0.5375750000000  0.5489660000000  0.4111710000000 1.0
C      1  0.5373920000000  0.5990040000000  0.5166980000000 1.0
C      1  0.5394870000000  0.5137200000000  0.6065230000000 1.0
C      1  0.5417190000000  0.4067910000000  0.5435630000000 1.0
C      1  0.5035710000000  0.4667400000000  0.5218400000000 1.0
C      1  0.5109400000000  0.5139280000000  0.5400580000000 1.0
C      1  0.5171810000000  0.5454960000000  0.4977700000000 1.0
C      1  0.5172420000000  0.5152710000000  0.4537030000000 1.0
C      1  0.5046470000000  0.4681240000000  0.4748790000000 1.0
C      1  0.5037870000000  0.5344850000000  0.5213370000000 1.0
C      1  0.5160730000000  0.4864070000000  0.5379440000000 1.0
C      1  0.5170600000000  0.4543700000000  0.4983760000000 1.0
C      1  0.5175330000000  0.4843130000000  0.4539160000000 1.0
C      1  0.5043340000000  0.5313680000000  0.4746060000000 1.0
C      1  0.5574980000000  0.5307270000000  0.5247070000000 1.0
C      1  0.5606230000000  0.5287660000000  0.4794220000000 1.0
C      1  0.5496430000000  0.4855430000000  0.4602680000000 1.0
C      1  0.5479810000000  0.4622620000000  0.4999060000000 1.0
C      1  0.5466420000000  0.4848950000000  0.5413800000000 1.0
C      1  0.5601430000000  0.4692160000000  0.5235140000000 1.0
C      1  0.5603800000000  0.4711930000000  0.4795420000000 1.0
C      1  0.5495320000000  0.5143340000000  0.4600400000000 1.0
C      1  0.5469420000000  0.5375800000000  0.4999450000000 1.0
C      1  0.5440890000000  0.5153070000000  0.5425370000000 1.0
C      1  0.5035110000000  0.5459180000000  0.5859530000000 1.0
C      1  0.5028890000000  0.5945900000000  0.4842230000000 1.0
C      1  0.5025650000000  0.5136750000000  0.4037190000000 1.0
C      1  0.5042000000000  0.4113580000000  0.4574690000000 1.0
C      1  0.5048040000000  0.4330560000000  0.5681140000000 1.0
C      1  0.5036490000000  0.4545810000000  0.5855090000000 1.0
C      1  0.5028260000000  0.4053510000000  0.4842030000000 1.0
C      1  0.5027050000000  0.4865550000000  0.4034290000000 1.0
C      1  0.5041900000000  0.5887280000000  0.4574460000000 1.0
C      1  0.5048670000000  0.5673030000000  0.5683750000000 1.0
C      1  0.4792400000000  0.4261350000000  0.4180820000000 1.0
C      1  0.4785960000000  0.3953170000000  0.5484550000000 1.0
C      1  0.4789210000000  0.5113660000000  0.6087260000000 1.0
C      1  0.4785150000000  0.6033140000000  0.5255240000000 1.0
C      1  0.4786020000000  0.5544010000000  0.4058900000000 1.0
C      1  0.4792440000000  0.5738220000000  0.4181460000000 1.0
C      1  0.4787110000000  0.6049850000000  0.5484640000000 1.0
C      1  0.4789870000000  0.4883540000000  0.6093220000000 1.0
C      1  0.4784330000000  0.3968020000000  0.5254980000000 1.0
C      1  0.4784720000000  0.4454040000000  0.4055930000000 1.0
C      1  0.5221830000000  0.4191810000000  0.4993260000000 1.0
C      1  0.5266270000000  0.4704580000000  0.5879040000000 1.0
C      1  0.5289470000000  0.5716680000000  0.5543230000000 1.0
C      1  0.5273440000000  0.5745870000000  0.4492140000000 1.0
C      1  0.5224060000000  0.4743370000000  0.4211610000000 1.0
C      1  0.5224010000000  0.5806950000000  0.4990980000000 1.0
C      1  0.5261620000000  0.5297770000000  0.5884500000000 1.0
C      1  0.5288670000000  0.4287870000000  0.5539550000000 1.0
C      1  0.5274270000000  0.4254050000000  0.4493830000000 1.0
C      1  0.5222910000000  0.5255320000000  0.4210990000000 1.0
C      1  0.5528510000000  0.5867850000000  0.4959890000000 1.0
C      1  0.5533990000000  0.5265140000000  0.4175450000000 1.0
C      1  0.5553640000000  0.4280870000000  0.4514340000000 1.0
C      1  0.5571490000000  0.4294120000000  0.5500440000000 1.0
C      1  0.5546540000000  0.5292790000000  0.5873530000000 1.0
C      1  0.5528020000000  0.4127880000000  0.4959330000000 1.0
C      1  0.5536830000000  0.4736460000000  0.4171960000000 1.0
C      1  0.5556360000000  0.5717690000000  0.4515420000000 1.0
C      1  0.5571940000000  0.5709060000000  0.5502010000000 1.0
C      1  0.5547500000000  0.4712920000000  0.5873160000000 1.0
END
