TITL C-2441169-1362-86 0.034635068313537 125000 -7939.6752840313 0 0 65 (C1) n - 1
REM
REM in /home/bkarasulu/work/CARBON/AIRSS/Generating-Clusters/ReaxFF-fromJPCA2015/Units_Real/with-SteepDescent/Higher-Symm
REM
REM
REM
REM
REM
REM ./C.cell (1df0a924f5614ab8850e4351716899ee)
REM
REM compiler GCC version 9.2.1 20190827 (Red Hat 9.2.1-1)
REM options -cpp -mtune=generic -march=x86-64 -g -O0 -fpre-include=/usr/include/finclude/math-vector-fortran.h
REM seed 1827729231 -1541011993 -890807666 -1041268729 -797742313 597354639 710474066 -1002647442 537406361 -2090442266 -724532044 -1329097348 -1929741563 1681889507 -2080562607 1638266811 -1585455079 -1652113483 1834536704 -1116433722 -1866578142 73049849 1528012052 -850256503 973968770 -1907118209 -1420056298 -1968321506 1750487492 1829810956 519562201 -989650494 -2053285635
REM
CELL 1.54180   50.00000   50.00000   50.00000   90.00000   90.00000   90.00000
LATT -1
SFAC C  
C      1  0.4459560000000  0.5189400000000  0.4815190000000 1.0
C      1  0.4418140000000  0.4811750000000  0.5201340000000 1.0
C      1  0.5559080000000  0.5172570000000  0.4813220000000 1.0
C      1  0.5576790000000  0.4802300000000  0.5196450000000 1.0
C      1  0.5438530000000  0.5197980000000  0.5580040000000 1.0
C      1  0.5438650000000  0.4799920000000  0.4421360000000 1.0
C      1  0.4547500000000  0.5192320000000  0.5582440000000 1.0
C      1  0.4545320000000  0.4807080000000  0.4425210000000 1.0
C      1  0.4846650000000  0.5593260000000  0.5431690000000 1.0
C      1  0.4851990000000  0.4409490000000  0.4593300000000 1.0
C      1  0.5131300000000  0.5579300000000  0.5394800000000 1.0
C      1  0.5136290000000  0.4409850000000  0.4582370000000 1.0
C      1  0.5397410000000  0.4535320000000  0.4558840000000 1.0
C      1  0.5392940000000  0.5457880000000  0.5445280000000 1.0
C      1  0.4588820000000  0.4537430000000  0.4545790000000 1.0
C      1  0.4586140000000  0.5464310000000  0.5463270000000 1.0
C      1  0.4838650000000  0.5549980000000  0.4624320000000 1.0
C      1  0.4820220000000  0.4504310000000  0.5406310000000 1.0
C      1  0.5127130000000  0.5482220000000  0.4638250000000 1.0
C      1  0.5118260000000  0.4536180000000  0.5386850000000 1.0
C      1  0.5507390000000  0.5341820000000  0.5202250000000 1.0
C      1  0.5511600000000  0.4647720000000  0.4806330000000 1.0
C      1  0.4465910000000  0.5368680000000  0.5213840000000 1.0
C      1  0.4490420000000  0.4639570000000  0.4801540000000 1.0
C      1  0.4863650000000  0.5471890000000  0.5125900000000 1.0
C      1  0.4867650000000  0.4547230000000  0.4886120000000 1.0
C      1  0.5131330000000  0.5439970000000  0.5115410000000 1.0
C      1  0.5133160000000  0.4574530000000  0.4906930000000 1.0
C      1  0.4380200000000  0.5033230000000  0.4548260000000 1.0
C      1  0.4458140000000  0.4910830000000  0.5499580000000 1.0
C      1  0.5570930000000  0.5061770000000  0.4499350000000 1.0
C      1  0.5572270000000  0.4927050000000  0.5493850000000 1.0
C      1  0.4698300000000  0.5326740000000  0.4475820000000 1.0
C      1  0.4630610000000  0.4684310000000  0.5561600000000 1.0
C      1  0.5391710000000  0.5268340000000  0.4416750000000 1.0
C      1  0.5408820000000  0.4717910000000  0.5600840000000 1.0
C      1  0.4450430000000  0.5466220000000  0.4929450000000 1.0
C      1  0.4469540000000  0.4527840000000  0.5071890000000 1.0
C      1  0.5517600000000  0.5474360000000  0.4942720000000 1.0
C      1  0.5512530000000  0.4525950000000  0.5073500000000 1.0
C      1  0.5827950000000  0.4751750000000  0.5215760000000 1.0
C      1  0.5818020000000  0.5235710000000  0.4793890000000 1.0
C      1  0.4165450000000  0.4780730000000  0.5211320000000 1.0
C      1  0.4218910000000  0.5174520000000  0.4731320000000 1.0
C      1  0.4729920000000  0.4432350000000  0.5141980000000 1.0
C      1  0.4713480000000  0.5584740000000  0.4881480000000 1.0
C      1  0.5243720000000  0.4442920000000  0.5140830000000 1.0
C      1  0.5249880000000  0.5563500000000  0.4886850000000 1.0
C      1  0.5208760000000  0.5064860000000  0.5544100000000 1.0
C      1  0.5205210000000  0.4914940000000  0.4538780000000 1.0
C      1  0.4810970000000  0.5085060000000  0.5532150000000 1.0
C      1  0.4788530000000  0.4898170000000  0.4457840000000 1.0
C      1  0.5289050000000  0.4831430000000  0.4850890000000 1.0
C      1  0.5301680000000  0.5127150000000  0.5080940000000 1.0
C      1  0.4728010000000  0.4811320000000  0.4843650000000 1.0
C      1  0.4712890000000  0.5228750000000  0.5154160000000 1.0
C      1  0.5114690000000  0.4879830000000  0.4247160000000 1.0
C      1  0.5112620000000  0.5106620000000  0.5791770000000 1.0
C      1  0.4870410000000  0.4882900000000  0.4195410000000 1.0
C      1  0.4865840000000  0.5101760000000  0.5805250000000 1.0
C      1  0.5123830000000  0.5190700000000  0.4629980000000 1.0
C      1  0.5160900000000  0.4836930000000  0.5363700000000 1.0
C      1  0.4843960000000  0.5106230000000  0.4628500000000 1.0
C      1  0.4891670000000  0.4916000000000  0.5316580000000 1.0
C      1  0.4813780000000  0.4985030000000  0.5050750000000 1.0
END
