TITL C-2441168-9922-774 0.00765838019071442 125000 -11269.9570183888 0 0 77 (C1) n - 1
REM
REM in /home/bkarasulu/work/CARBON/AIRSS/Generating-Clusters/ReaxFF-fromJPCA2015/Units_Real/with-SteepDescent/Higher-Symm
REM
REM
REM
REM
REM
REM ./C.cell (1df0a924f5614ab8850e4351716899ee)
REM
REM compiler GCC version 9.2.1 20190827 (Red Hat 9.2.1-1)
REM options -cpp -mtune=generic -march=x86-64 -g -O0 -fpre-include=/usr/include/finclude/math-vector-fortran.h
REM seed -1849195532 267965145 1081558118 -838672142 -1951133422 309569218 -1775495306 1494791715 -1008390305 -522850218 -1490859003 2078981196 -790016706 638551526 -562586014 1327551118 817090095 867884990 560850003 136945656 -371006994 -2007564817 -1916912238 -673941132 1837311385 -1350606227 -1802035700 -216130244 -767324334 1604991350 -564141221 725486676 -6250606
REM
CELL 1.54180   50.00000   50.00000   50.00000   90.00000   90.00000   90.00000
LATT -1
SFAC C  
C      1  0.5325800000000  0.5641430000000  0.5574800000000 1.0
C      1  0.5608590000000  0.5388850000000  0.4505270000000 1.0
C      1  0.5589140000000  0.4477000000000  0.4597270000000 1.0
C      1  0.5385220000000  0.4449680000000  0.5590730000000 1.0
C      1  0.4688180000000  0.5631560000000  0.4411480000000 1.0
C      1  0.4417220000000  0.5407990000000  0.5506590000000 1.0
C      1  0.4690560000000  0.4352520000000  0.5595080000000 1.0
C      1  0.4642990000000  0.4500330000000  0.4309040000000 1.0
C      1  0.5484600000000  0.5567170000000  0.4963600000000 1.0
C      1  0.5466750000000  0.4922050000000  0.4414410000000 1.0
C      1  0.5463530000000  0.4415780000000  0.5052470000000 1.0
C      1  0.5487090000000  0.5070670000000  0.5519520000000 1.0
C      1  0.4539880000000  0.5562400000000  0.5036420000000 1.0
C      1  0.4551690000000  0.4929930000000  0.5539490000000 1.0
C      1  0.4531130000000  0.4490680000000  0.4966490000000 1.0
C      1  0.4537010000000  0.5047320000000  0.4509130000000 1.0
C      1  0.4406350000000  0.5138640000000  0.5431000000000 1.0
C      1  0.4401870000000  0.5393660000000  0.4854120000000 1.0
C      1  0.4394440000000  0.4843450000000  0.4635540000000 1.0
C      1  0.4394760000000  0.4624550000000  0.5173750000000 1.0
C      1  0.5617000000000  0.5111910000000  0.4556690000000 1.0
C      1  0.5627010000000  0.5397320000000  0.5151590000000 1.0
C      1  0.5631770000000  0.4853450000000  0.5411230000000 1.0
C      1  0.5613330000000  0.4555020000000  0.4863600000000 1.0
C      1  0.5095830000000  0.4378430000000  0.4484110000000 1.0
C      1  0.5113250000000  0.4531140000000  0.5621910000000 1.0
C      1  0.5066250000000  0.5696330000000  0.5487040000000 1.0
C      1  0.5130870000000  0.5504540000000  0.4387620000000 1.0
C      1  0.4946150000000  0.4346520000000  0.5478760000000 1.0
C      1  0.4923770000000  0.4512020000000  0.4293490000000 1.0
C      1  0.4947540000000  0.5684590000000  0.4507520000000 1.0
C      1  0.4896000000000  0.5510840000000  0.5623330000000 1.0
C      1  0.5784150000000  0.5177380000000  0.5051350000000 1.0
C      1  0.5769140000000  0.5037390000000  0.4791070000000 1.0
C      1  0.5768550000000  0.4782730000000  0.4931750000000 1.0
C      1  0.5787470000000  0.4916490000000  0.5184620000000 1.0
C      1  0.4223030000000  0.5196480000000  0.4947860000000 1.0
C      1  0.4215360000000  0.5077700000000  0.5216420000000 1.0
C      1  0.4211590000000  0.4814550000000  0.5089210000000 1.0
C      1  0.4213950000000  0.4935730000000  0.4834790000000 1.0
C      1  0.5221780000000  0.5041700000000  0.5611650000000 1.0
C      1  0.5212680000000  0.5645960000000  0.4983330000000 1.0
C      1  0.5200620000000  0.4980620000000  0.4357790000000 1.0
C      1  0.5204310000000  0.4345690000000  0.5033400000000 1.0
C      1  0.4791640000000  0.5029040000000  0.4399340000000 1.0
C      1  0.4803870000000  0.5637310000000  0.5001960000000 1.0
C      1  0.4813380000000  0.4973890000000  0.5629680000000 1.0
C      1  0.4795440000000  0.4387230000000  0.4972960000000 1.0
C      1  0.5035030000000  0.5212030000000  0.4459870000000 1.0
C      1  0.5022740000000  0.4447280000000  0.4777740000000 1.0
C      1  0.5049920000000  0.4817000000000  0.5543620000000 1.0
C      1  0.5021260000000  0.5606140000000  0.5197100000000 1.0
C      1  0.4981030000000  0.5217760000000  0.5587460000000 1.0
C      1  0.4975520000000  0.4443880000000  0.5185590000000 1.0
C      1  0.4974240000000  0.4808350000000  0.4432600000000 1.0
C      1  0.4993230000000  0.5570250000000  0.4795770000000 1.0
C      1  0.4469230000000  0.5603490000000  0.5313370000000 1.0
C      1  0.4456630000000  0.5323830000000  0.4571020000000 1.0
C      1  0.4451200000000  0.4552310000000  0.4681780000000 1.0
C      1  0.4459950000000  0.4666990000000  0.5458350000000 1.0
C      1  0.5558060000000  0.5585180000000  0.4687180000000 1.0
C      1  0.5590720000000  0.5340570000000  0.5442190000000 1.0
C      1  0.5602500000000  0.4587780000000  0.5484890000000 1.0
C      1  0.5536310000000  0.4652400000000  0.4392540000000 1.0
C      1  0.5402740000000  0.5572320000000  0.4445660000000 1.0
C      1  0.5373300000000  0.4411570000000  0.4423130000000 1.0
C      1  0.5497300000000  0.4366900000000  0.5326220000000 1.0
C      1  0.5537660000000  0.5558870000000  0.5621300000000 1.0
C      1  0.4626920000000  0.5584480000000  0.5560800000000 1.0
C      1  0.4479620000000  0.4442030000000  0.5637900000000 1.0
C      1  0.4610300000000  0.4394820000000  0.4516020000000 1.0
C      1  0.4481450000000  0.5531980000000  0.4375480000000 1.0
C      1  0.5026460000000  0.5241610000000  0.4773640000000 1.0
C      1  0.5025550000000  0.4799520000000  0.5187140000000 1.0
C      1  0.5010870000000  0.4754450000000  0.4754160000000 1.0
C      1  0.4997220000000  0.5270420000000  0.5253920000000 1.0
C      1  0.4990440000000  0.5052840000000  0.5038820000000 1.0
END
