TITL C-2441162-9305-115 0.144769427536204 125000 -25841.9869856667 0 0 199 (C1) n - 1
REM
REM in /home/bkarasulu/work/CARBON/AIRSS/Generating-Clusters/ReaxFF-fromJPCA2015/Units_Real/with-SteepDescent/Higher-Symm
REM
REM
REM
REM
REM
REM ./C.cell (1df0a924f5614ab8850e4351716899ee)
REM
REM compiler GCC version 9.2.1 20190827 (Red Hat 9.2.1-1)
REM options -cpp -mtune=generic -march=x86-64 -g -O0 -fpre-include=/usr/include/finclude/math-vector-fortran.h
REM seed 1150012829 1255368967 733421712 61623687 -921021517 566563956 1732698709 21433952 -1457119201 -554490024 -142858642 1158578352 1196664585 1808030039 -1666599233 -2057064347 -1593014417 -365413903 1876449832 -1833829692 -548168677 2096680383 -1109281506 604084199 447376139 1596599649 1604370870 -9778408 -1485296439 382742809 891886885 295449962 -1043946346
REM
CELL 1.54180   50.00000   50.00000   50.00000   90.00000   90.00000   90.00000
LATT -1
SFAC C  
C      1  0.4925970000000  0.6027890000000  0.4589300000000 1.0
C      1  0.4775400000000  0.3991120000000  0.4586890000000 1.0
C      1  0.4783530000000  0.5387460000000  0.6051200000000 1.0
C      1  0.4837910000000  0.4658600000000  0.6039450000000 1.0
C      1  0.4855680000000  0.3970060000000  0.4870940000000 1.0
C      1  0.4937700000000  0.6078000000000  0.4884320000000 1.0
C      1  0.4991760000000  0.3997850000000  0.5321310000000 1.0
C      1  0.4955150000000  0.5992550000000  0.5355150000000 1.0
C      1  0.4157430000000  0.4515530000000  0.5270220000000 1.0
C      1  0.4162460000000  0.5453390000000  0.5281290000000 1.0
C      1  0.4745990000000  0.5817330000000  0.4642800000000 1.0
C      1  0.4836280000000  0.4355720000000  0.4402320000000 1.0
C      1  0.5877920000000  0.5457380000000  0.5406390000000 1.0
C      1  0.5874560000000  0.4522280000000  0.5365350000000 1.0
C      1  0.4739820000000  0.5772310000000  0.5368240000000 1.0
C      1  0.4661670000000  0.4280770000000  0.5384390000000 1.0
C      1  0.5293280000000  0.4239590000000  0.5441150000000 1.0
C      1  0.5293720000000  0.5759460000000  0.5475700000000 1.0
C      1  0.4686520000000  0.4498740000000  0.5856930000000 1.0
C      1  0.4665640000000  0.5559560000000  0.5871760000000 1.0
C      1  0.5334580000000  0.5410920000000  0.4701050000000 1.0
C      1  0.5176170000000  0.4638330000000  0.4637580000000 1.0
C      1  0.5616810000000  0.4544730000000  0.4134770000000 1.0
C      1  0.5565780000000  0.5445770000000  0.4127650000000 1.0
C      1  0.5862620000000  0.5251990000000  0.4436850000000 1.0
C      1  0.5914070000000  0.4775240000000  0.4402600000000 1.0
C      1  0.4673320000000  0.5298140000000  0.4607230000000 1.0
C      1  0.4572860000000  0.4661600000000  0.4588990000000 1.0
C      1  0.5314200000000  0.4119540000000  0.5042550000000 1.0
C      1  0.5338950000000  0.5877860000000  0.5028960000000 1.0
C      1  0.5706020000000  0.5241800000000  0.4879250000000 1.0
C      1  0.5701330000000  0.4709790000000  0.4771140000000 1.0
C      1  0.4100580000000  0.5357660000000  0.4996110000000 1.0
C      1  0.4123900000000  0.4643360000000  0.5012860000000 1.0
C      1  0.4291760000000  0.5458520000000  0.4275250000000 1.0
C      1  0.4329660000000  0.4506860000000  0.4254570000000 1.0
C      1  0.5439550000000  0.5640870000000  0.5842550000000 1.0
C      1  0.5431940000000  0.4415690000000  0.5789200000000 1.0
C      1  0.4234110000000  0.4593420000000  0.4531310000000 1.0
C      1  0.4105960000000  0.5432180000000  0.4500340000000 1.0
C      1  0.4812580000000  0.5789700000000  0.4925390000000 1.0
C      1  0.4861090000000  0.4260470000000  0.4886020000000 1.0
C      1  0.4681630000000  0.4488990000000  0.4800990000000 1.0
C      1  0.4629350000000  0.5433780000000  0.4857930000000 1.0
C      1  0.4916360000000  0.4582810000000  0.5338810000000 1.0
C      1  0.4821430000000  0.5471370000000  0.5405040000000 1.0
C      1  0.5821840000000  0.5673320000000  0.4670230000000 1.0
C      1  0.5786680000000  0.4339930000000  0.4605340000000 1.0
C      1  0.5158710000000  0.4384680000000  0.5902950000000 1.0
C      1  0.5163160000000  0.5622380000000  0.5963130000000 1.0
C      1  0.5222730000000  0.5684790000000  0.4660940000000 1.0
C      1  0.5207590000000  0.4296640000000  0.4613480000000 1.0
C      1  0.5097710000000  0.5838320000000  0.4453510000000 1.0
C      1  0.5017300000000  0.4138320000000  0.4440830000000 1.0
C      1  0.5036150000000  0.4451890000000  0.4025290000000 1.0
C      1  0.5004330000000  0.5524270000000  0.4047860000000 1.0
C      1  0.6003040000000  0.5310700000000  0.4883610000000 1.0
C      1  0.6001740000000  0.4668060000000  0.4847130000000 1.0
C      1  0.4391140000000  0.4574480000000  0.5733070000000 1.0
C      1  0.4383280000000  0.5489820000000  0.5708500000000 1.0
C      1  0.5823830000000  0.5699610000000  0.4973780000000 1.0
C      1  0.5815810000000  0.4273940000000  0.4932670000000 1.0
C      1  0.5135600000000  0.4625560000000  0.6055040000000 1.0
C      1  0.5071060000000  0.5372620000000  0.6114300000000 1.0
C      1  0.5366240000000  0.4782170000000  0.5968390000000 1.0
C      1  0.5149260000000  0.5233340000000  0.5822770000000 1.0
C      1  0.5461410000000  0.5668160000000  0.4275380000000 1.0
C      1  0.5342480000000  0.4343060000000  0.4376840000000 1.0
C      1  0.5642180000000  0.4175380000000  0.5141400000000 1.0
C      1  0.5626930000000  0.5799910000000  0.5157030000000 1.0
C      1  0.5987310000000  0.5443070000000  0.4610950000000 1.0
C      1  0.5989430000000  0.4540540000000  0.4572770000000 1.0
C      1  0.5365760000000  0.4511810000000  0.5355810000000 1.0
C      1  0.5342420000000  0.5469690000000  0.5461650000000 1.0
C      1  0.5315550000000  0.5321220000000  0.4989770000000 1.0
C      1  0.5478960000000  0.4525120000000  0.4839800000000 1.0
C      1  0.4244690000000  0.4815370000000  0.5840610000000 1.0
C      1  0.4239460000000  0.5237790000000  0.5795580000000 1.0
C      1  0.4322270000000  0.4199750000000  0.4755070000000 1.0
C      1  0.4308990000000  0.5755550000000  0.4776480000000 1.0
C      1  0.5454240000000  0.5228510000000  0.5880490000000 1.0
C      1  0.5641670000000  0.4862550000000  0.5949230000000 1.0
C      1  0.5177210000000  0.5706600000000  0.4204430000000 1.0
C      1  0.5208940000000  0.4269700000000  0.4182630000000 1.0
C      1  0.5097920000000  0.5247470000000  0.4657220000000 1.0
C      1  0.5052640000000  0.4780380000000  0.4888540000000 1.0
C      1  0.5708510000000  0.5719170000000  0.5419370000000 1.0
C      1  0.5725950000000  0.4266700000000  0.5406690000000 1.0
C      1  0.4814850000000  0.5360240000000  0.5118960000000 1.0
C      1  0.4588490000000  0.4614310000000  0.5016170000000 1.0
C      1  0.4002440000000  0.4781240000000  0.4485330000000 1.0
C      1  0.3951350000000  0.5190700000000  0.4468030000000 1.0
C      1  0.5950710000000  0.4487990000000  0.5080840000000 1.0
C      1  0.5967970000000  0.5495880000000  0.5120880000000 1.0
C      1  0.5022670000000  0.4156890000000  0.5541600000000 1.0
C      1  0.5056120000000  0.5873620000000  0.5596310000000 1.0
C      1  0.4744930000000  0.4782020000000  0.4376040000000 1.0
C      1  0.4805090000000  0.5289520000000  0.4338870000000 1.0
C      1  0.4549340000000  0.4074760000000  0.5199180000000 1.0
C      1  0.4547810000000  0.5857290000000  0.5142650000000 1.0
C      1  0.5600590000000  0.5239480000000  0.4589350000000 1.0
C      1  0.5655580000000  0.4809930000000  0.4515230000000 1.0
C      1  0.5073760000000  0.3919460000000  0.5066560000000 1.0
C      1  0.5101010000000  0.6096640000000  0.5120200000000 1.0
C      1  0.5553660000000  0.5301380000000  0.5168930000000 1.0
C      1  0.5461710000000  0.4619600000000  0.5107570000000 1.0
C      1  0.4100770000000  0.5559980000000  0.4765950000000 1.0
C      1  0.4160360000000  0.4440400000000  0.4785660000000 1.0
C      1  0.5902140000000  0.5206650000000  0.5563650000000 1.0
C      1  0.5944320000000  0.4758940000000  0.5528540000000 1.0
C      1  0.4709740000000  0.5499200000000  0.4075450000000 1.0
C      1  0.4749790000000  0.4474120000000  0.4032740000000 1.0
C      1  0.4470270000000  0.5862940000000  0.5408310000000 1.0
C      1  0.4403260000000  0.4160480000000  0.5447730000000 1.0
C      1  0.4923550000000  0.5711710000000  0.5820370000000 1.0
C      1  0.4899330000000  0.4319580000000  0.5780820000000 1.0
C      1  0.4352760000000  0.5216370000000  0.4084360000000 1.0
C      1  0.4345840000000  0.4709420000000  0.4048180000000 1.0
C      1  0.5414250000000  0.5888140000000  0.4734580000000 1.0
C      1  0.5437350000000  0.4225790000000  0.4787830000000 1.0
C      1  0.5117380000000  0.5267590000000  0.3975160000000 1.0
C      1  0.5137980000000  0.4726370000000  0.3975210000000 1.0
C      1  0.5590820000000  0.5774380000000  0.4526790000000 1.0
C      1  0.5589480000000  0.4333640000000  0.4340940000000 1.0
C      1  0.5528090000000  0.4205120000000  0.5617050000000 1.0
C      1  0.5526880000000  0.5819020000000  0.5628000000000 1.0
C      1  0.5828580000000  0.4745940000000  0.4126940000000 1.0
C      1  0.5803460000000  0.5272880000000  0.4154570000000 1.0
C      1  0.4618940000000  0.4714600000000  0.3944240000000 1.0
C      1  0.4604580000000  0.5246820000000  0.3959750000000 1.0
C      1  0.5083080000000  0.5352140000000  0.5532810000000 1.0
C      1  0.4958160000000  0.4778990000000  0.5523990000000 1.0
C      1  0.4529070000000  0.4125970000000  0.4526130000000 1.0
C      1  0.4502840000000  0.5776630000000  0.4539350000000 1.0
C      1  0.4623930000000  0.4547160000000  0.5292710000000 1.0
C      1  0.4385750000000  0.5305420000000  0.5348650000000 1.0
C      1  0.5373550000000  0.5253900000000  0.4060480000000 1.0
C      1  0.5397090000000  0.4722640000000  0.4075710000000 1.0
C      1  0.5016560000000  0.5421050000000  0.4459090000000 1.0
C      1  0.4965330000000  0.4596420000000  0.4440770000000 1.0
C      1  0.4265210000000  0.5663140000000  0.5447010000000 1.0
C      1  0.4235840000000  0.4395890000000  0.5508410000000 1.0
C      1  0.4328330000000  0.5757790000000  0.5046960000000 1.0
C      1  0.4364790000000  0.4178860000000  0.5022640000000 1.0
C      1  0.4383980000000  0.4794060000000  0.4942740000000 1.0
C      1  0.4378990000000  0.5274220000000  0.4878120000000 1.0
C      1  0.5089080000000  0.5699320000000  0.5039980000000 1.0
C      1  0.5090730000000  0.4321280000000  0.5033380000000 1.0
C      1  0.4499220000000  0.5637870000000  0.4287530000000 1.0
C      1  0.4543170000000  0.4302950000000  0.4283460000000 1.0
C      1  0.5455310000000  0.4635290000000  0.5590270000000 1.0
C      1  0.5559740000000  0.5404120000000  0.5676250000000 1.0
C      1  0.5085010000000  0.5448600000000  0.5090620000000 1.0
C      1  0.5049380000000  0.4584310000000  0.5101780000000 1.0
C      1  0.4492340000000  0.4736630000000  0.5484310000000 1.0
C      1  0.4590930000000  0.5343260000000  0.5542770000000 1.0
C      1  0.3877690000000  0.4978600000000  0.4646590000000 1.0
C      1  0.4382220000000  0.5034710000000  0.4690520000000 1.0
C      1  0.5014550000000  0.4993100000000  0.3919060000000 1.0
C      1  0.5144680000000  0.4990060000000  0.5515990000000 1.0
C      1  0.5458670000000  0.5005570000000  0.4460900000000 1.0
C      1  0.6054230000000  0.5005110000000  0.5382970000000 1.0
C      1  0.5929220000000  0.4960230000000  0.5124540000000 1.0
C      1  0.5262900000000  0.5119450000000  0.6249870000000 1.0
C      1  0.5469920000000  0.5000490000000  0.4142410000000 1.0
C      1  0.5240380000000  0.5050790000000  0.5276100000000 1.0
C      1  0.5243340000000  0.5010370000000  0.5014400000000 1.0
C      1  0.4667480000000  0.5023500000000  0.4680020000000 1.0
C      1  0.4354150000000  0.5082520000000  0.5262280000000 1.0
C      1  0.4703540000000  0.5086770000000  0.5707940000000 1.0
C      1  0.5521710000000  0.5079330000000  0.5361070000000 1.0
C      1  0.5743800000000  0.5010390000000  0.4051020000000 1.0
C      1  0.5417390000000  0.4920710000000  0.5592780000000 1.0
C      1  0.4268970000000  0.4887720000000  0.5398330000000 1.0
C      1  0.4412140000000  0.5016970000000  0.4385810000000 1.0
C      1  0.4016870000000  0.5026370000000  0.5017830000000 1.0
C      1  0.4735850000000  0.4995960000000  0.3902680000000 1.0
C      1  0.4572090000000  0.5095920000000  0.6204040000000 1.0
C      1  0.3783210000000  0.4976720000000  0.4915920000000 1.0
C      1  0.4491410000000  0.5032460000000  0.5068300000000 1.0
C      1  0.6145220000000  0.4988080000000  0.4928700000000 1.0
C      1  0.4785090000000  0.5061120000000  0.5142000000000 1.0
C      1  0.4824160000000  0.4957710000000  0.6125190000000 1.0
C      1  0.6329210000000  0.5004340000000  0.5153130000000 1.0
C      1  0.4925970000000  0.5006110000000  0.4337000000000 1.0
C      1  0.4724910000000  0.4920710000000  0.5466300000000 1.0
C      1  0.5464100000000  0.4884060000000  0.5016800000000 1.0
C      1  0.5157980000000  0.4994620000000  0.4509900000000 1.0
C      1  0.4867950000000  0.5003040000000  0.4867250000000 1.0
C      1  0.5821950000000  0.4942640000000  0.5718160000000 1.0
C      1  0.3988970000000  0.4920570000000  0.5443940000000 1.0
C      1  0.3833610000000  0.5003340000000  0.5213960000000 1.0
C      1  0.5531290000000  0.5105220000000  0.6141200000000 1.0
C      1  0.4057930000000  0.4980440000000  0.4286220000000 1.0
C      1  0.4936430000000  0.5055460000000  0.5871970000000 1.0
C      1  0.5700070000000  0.4973290000000  0.4951840000000 1.0
C      1  0.4065480000000  0.5010080000000  0.5712050000000 1.0
C      1  0.4204740000000  0.4971970000000  0.4038150000000 1.0
C      1  0.4435000000000  0.5039070000000  0.5901730000000 1.0
END
