TITL C-2441164-471-1316 0.105789438545413 125000 -14384.7309052698 0 0 116 (C1) n - 1
REM
REM in /home/bkarasulu/work/CARBON/AIRSS/Generating-Clusters/ReaxFF-fromJPCA2015/Units_Real/with-SteepDescent/Higher-Symm
REM
REM
REM
REM
REM
REM ./C.cell (1df0a924f5614ab8850e4351716899ee)
REM
REM compiler GCC version 9.2.1 20190827 (Red Hat 9.2.1-1)
REM options -cpp -mtune=generic -march=x86-64 -g -O0 -fpre-include=/usr/include/finclude/math-vector-fortran.h
REM seed -398228 -679701631 1610193540 298558671 -999351656 -1351003470 633398378 2086759090 -1579141615 2127675692 1354440943 1737159221 -187433730 -476981679 806464343 344718752 1624273611 2002752972 564573314 -105208339 420348131 -1381822002 1009980389 -545475875 -2006672441 118948183 1099314943 37122543 -492647726 528708976 826067684 1877434011 -2106836340
REM
CELL 1.54180   50.00000   50.00000   50.00000   90.00000   90.00000   90.00000
LATT -1
SFAC C  
C      1  0.4568220000000  0.5061000000000  0.5000560000000 1.0
C      1  0.5765370000000  0.5271250000000  0.5052130000000 1.0
C      1  0.4649260000000  0.5409390000000  0.5591560000000 1.0
C      1  0.5499370000000  0.4963210000000  0.5547880000000 1.0
C      1  0.4695640000000  0.4145210000000  0.4996000000000 1.0
C      1  0.5633760000000  0.5555420000000  0.4654410000000 1.0
C      1  0.5581490000000  0.5217430000000  0.4230280000000 1.0
C      1  0.4663670000000  0.4653650000000  0.5484560000000 1.0
C      1  0.5004970000000  0.5632410000000  0.5619380000000 1.0
C      1  0.4989050000000  0.5344000000000  0.5221720000000 1.0
C      1  0.5169870000000  0.4203140000000  0.4916000000000 1.0
C      1  0.4533450000000  0.5240140000000  0.4361020000000 1.0
C      1  0.5010640000000  0.5488020000000  0.5805510000000 1.0
C      1  0.5146040000000  0.4211250000000  0.4635710000000 1.0
C      1  0.5192300000000  0.4879060000000  0.5291510000000 1.0
C      1  0.4412310000000  0.5514200000000  0.5186470000000 1.0
C      1  0.4813090000000  0.4263350000000  0.5505170000000 1.0
C      1  0.4128380000000  0.4742840000000  0.5008110000000 1.0
C      1  0.5344460000000  0.5710560000000  0.5340200000000 1.0
C      1  0.5854450000000  0.4779000000000  0.4979170000000 1.0
C      1  0.4889700000000  0.4096250000000  0.4640250000000 1.0
C      1  0.4877180000000  0.5676610000000  0.4399880000000 1.0
C      1  0.4429740000000  0.4736340000000  0.5665330000000 1.0
C      1  0.5472160000000  0.4704200000000  0.4256590000000 1.0
C      1  0.5682500000000  0.5455820000000  0.5256200000000 1.0
C      1  0.4524200000000  0.4693440000000  0.4354620000000 1.0
C      1  0.5560460000000  0.4453840000000  0.4900180000000 1.0
C      1  0.4279680000000  0.5453430000000  0.4925450000000 1.0
C      1  0.5097720000000  0.5826980000000  0.5451150000000 1.0
C      1  0.4675830000000  0.5027930000000  0.5276600000000 1.0
C      1  0.5325620000000  0.4848860000000  0.5751310000000 1.0
C      1  0.4947690000000  0.5068520000000  0.4045640000000 1.0
C      1  0.5087490000000  0.5682570000000  0.4763680000000 1.0
C      1  0.4724220000000  0.4868420000000  0.4302310000000 1.0
C      1  0.5765110000000  0.4537080000000  0.5098110000000 1.0
C      1  0.5143800000000  0.4622720000000  0.5391970000000 1.0
C      1  0.5634480000000  0.4574830000000  0.4605030000000 1.0
C      1  0.4644180000000  0.4852710000000  0.4804050000000 1.0
C      1  0.4670260000000  0.5101960000000  0.4138930000000 1.0
C      1  0.4483240000000  0.5015780000000  0.5761860000000 1.0
C      1  0.4960100000000  0.4174520000000  0.5121580000000 1.0
C      1  0.4996520000000  0.5229570000000  0.5886710000000 1.0
C      1  0.4982600000000  0.4398350000000  0.5303570000000 1.0
C      1  0.5384410000000  0.5409900000000  0.4157390000000 1.0
C      1  0.5562740000000  0.5157700000000  0.4510170000000 1.0
C      1  0.5113860000000  0.5735900000000  0.5058010000000 1.0
C      1  0.5470060000000  0.4962860000000  0.4285360000000 1.0
C      1  0.4386320000000  0.5194080000000  0.4815890000000 1.0
C      1  0.4687430000000  0.4468560000000  0.4353350000000 1.0
C      1  0.5042320000000  0.5196340000000  0.4603010000000 1.0
C      1  0.4657110000000  0.5472610000000  0.4515490000000 1.0
C      1  0.4926860000000  0.4456090000000  0.5730340000000 1.0
C      1  0.4873820000000  0.5260780000000  0.4964750000000 1.0
C      1  0.4806510000000  0.5819010000000  0.5339570000000 1.0
C      1  0.5374780000000  0.4674940000000  0.4953320000000 1.0
C      1  0.5801920000000  0.5084560000000  0.4629060000000 1.0
C      1  0.4728610000000  0.4238900000000  0.4745220000000 1.0
C      1  0.5423860000000  0.5411270000000  0.5413390000000 1.0
C      1  0.5780320000000  0.4996410000000  0.5155810000000 1.0
C      1  0.5159740000000  0.5660900000000  0.4360380000000 1.0
C      1  0.4252620000000  0.4816970000000  0.5286960000000 1.0
C      1  0.4541560000000  0.4304790000000  0.4570180000000 1.0
C      1  0.4471830000000  0.5590320000000  0.4726480000000 1.0
C      1  0.4841700000000  0.4852490000000  0.5596900000000 1.0
C      1  0.5157270000000  0.4475350000000  0.4495520000000 1.0
C      1  0.4919930000000  0.4883620000000  0.5154550000000 1.0
C      1  0.4803160000000  0.5245400000000  0.5414910000000 1.0
C      1  0.4230010000000  0.4596190000000  0.4773640000000 1.0
C      1  0.5461980000000  0.5285750000000  0.5690110000000 1.0
C      1  0.5202250000000  0.4861620000000  0.4811550000000 1.0
C      1  0.5796580000000  0.5335300000000  0.4770420000000 1.0
C      1  0.4852930000000  0.4936290000000  0.4566860000000 1.0
C      1  0.5005520000000  0.4695960000000  0.4661930000000 1.0
C      1  0.4640040000000  0.5690670000000  0.5135510000000 1.0
C      1  0.4210890000000  0.4653440000000  0.5506760000000 1.0
C      1  0.4403060000000  0.5274260000000  0.5668790000000 1.0
C      1  0.5653600000000  0.4614830000000  0.5357980000000 1.0
C      1  0.4403690000000  0.4792170000000  0.4593440000000 1.0
C      1  0.4885970000000  0.4707240000000  0.5847110000000 1.0
C      1  0.4643100000000  0.5779790000000  0.4842430000000 1.0
C      1  0.5502350000000  0.5621940000000  0.4904140000000 1.0
C      1  0.4368110000000  0.5094380000000  0.4544240000000 1.0
C      1  0.5425710000000  0.5570980000000  0.4427740000000 1.0
C      1  0.5442710000000  0.4819200000000  0.5177640000000 1.0
C      1  0.4784290000000  0.4665010000000  0.4981680000000 1.0
C      1  0.5017000000000  0.5024920000000  0.4959760000000 1.0
C      1  0.5210140000000  0.5021810000000  0.4332580000000 1.0
C      1  0.5703890000000  0.5127580000000  0.5639730000000 1.0
C      1  0.4921150000000  0.5416070000000  0.4720480000000 1.0
C      1  0.4053710000000  0.5211060000000  0.5050480000000 1.0
C      1  0.4164140000000  0.5110720000000  0.5299160000000 1.0
C      1  0.5249320000000  0.5117270000000  0.5810060000000 1.0
C      1  0.5781410000000  0.4925540000000  0.5441910000000 1.0
C      1  0.5419560000000  0.4216440000000  0.5035450000000 1.0
C      1  0.4863890000000  0.5823540000000  0.4645620000000 1.0
C      1  0.4359900000000  0.4352240000000  0.4799830000000 1.0
C      1  0.5313860000000  0.5200880000000  0.4702840000000 1.0
C      1  0.5438680000000  0.4534560000000  0.4431160000000 1.0
C      1  0.5425340000000  0.4255660000000  0.5307290000000 1.0
C      1  0.4765740000000  0.5025670000000  0.5821450000000 1.0
C      1  0.4023570000000  0.4973580000000  0.4909430000000 1.0
C      1  0.5262720000000  0.5258340000000  0.5201770000000 1.0
C      1  0.4539610000000  0.4227360000000  0.5409950000000 1.0
C      1  0.5157750000000  0.5985580000000  0.4965370000000 1.0
C      1  0.4293290000000  0.5350190000000  0.5404400000000 1.0
C      1  0.4611030000000  0.4579780000000  0.5197720000000 1.0
C      1  0.5360270000000  0.5364720000000  0.4942410000000 1.0
C      1  0.5085830000000  0.4811200000000  0.4157790000000 1.0
C      1  0.5480870000000  0.4417810000000  0.5517380000000 1.0
C      1  0.4735310000000  0.5683090000000  0.5587630000000 1.0
C      1  0.4956070000000  0.4558800000000  0.4254980000000 1.0
C      1  0.5785080000000  0.4806940000000  0.4704470000000 1.0
C      1  0.5587870000000  0.5711360000000  0.5171060000000 1.0
C      1  0.4478650000000  0.4318140000000  0.5107610000000 1.0
C      1  0.5240170000000  0.4574310000000  0.5666840000000 1.0
C      1  0.5122380000000  0.5264860000000  0.4177060000000 1.0
END
