TITL C-2441156-4686-950 0.00917268712025045 125000 -10406.0975600326 0 0 75 (C1) n - 1
REM
REM in /home/bkarasulu/work/CARBON/AIRSS/Generating-Clusters/ReaxFF-fromJPCA2015/Units_Real/with-SteepDescent/Higher-Symm
REM
REM
REM
REM
REM
REM ./C.cell (1df0a924f5614ab8850e4351716899ee)
REM
REM compiler GCC version 9.2.1 20190827 (Red Hat 9.2.1-1)
REM options -cpp -mtune=generic -march=x86-64 -g -O0 -fpre-include=/usr/include/finclude/math-vector-fortran.h
REM seed -582756472 -641173397 977749364 504871120 1907115645 2113719030 -1043338555 -885244628 -374116829 1289539418 -2066439199 1389460881 -931092464 -125714740 118756084 -38390375 -95152600 1663335531 -95595957 -1988638984 -1789087123 252805562 520661484 -1648956894 1398430223 188950515 1403437628 -659463079 -99535702 -521282876 -647676492 1709995285 -1494381736
REM
CELL 1.54180   50.00000   50.00000   50.00000   90.00000   90.00000   90.00000
LATT -1
SFAC C  
C      1  0.4573850000000  0.4728320000000  0.5226210000000 1.0
C      1  0.4638590000000  0.5276340000000  0.4862860000000 1.0
C      1  0.4636140000000  0.5271340000000  0.5135970000000 1.0
C      1  0.4559890000000  0.4753070000000  0.4787480000000 1.0
C      1  0.5503580000000  0.5212640000000  0.4506110000000 1.0
C      1  0.5510370000000  0.4777330000000  0.5499430000000 1.0
C      1  0.5504880000000  0.4781490000000  0.4509270000000 1.0
C      1  0.5510370000000  0.5213250000000  0.5507370000000 1.0
C      1  0.5088510000000  0.4388390000000  0.4497270000000 1.0
C      1  0.5097560000000  0.5643380000000  0.5516860000000 1.0
C      1  0.5097740000000  0.5648880000000  0.4493980000000 1.0
C      1  0.5092950000000  0.4372090000000  0.5505990000000 1.0
C      1  0.4877030000000  0.5496920000000  0.4366790000000 1.0
C      1  0.4859440000000  0.4511250000000  0.5626220000000 1.0
C      1  0.4861330000000  0.4535010000000  0.4387970000000 1.0
C      1  0.4874300000000  0.5468490000000  0.5587710000000 1.0
C      1  0.4428230000000  0.5241190000000  0.5498790000000 1.0
C      1  0.4440350000000  0.4731310000000  0.4515120000000 1.0
C      1  0.4410090000000  0.4683860000000  0.5460660000000 1.0
C      1  0.4456900000000  0.5213610000000  0.4470820000000 1.0
C      1  0.4667480000000  0.4436810000000  0.5233620000000 1.0
C      1  0.4625050000000  0.5646790000000  0.4732540000000 1.0
C      1  0.4620110000000  0.5654280000000  0.5233510000000 1.0
C      1  0.4637690000000  0.4445400000000  0.4781920000000 1.0
C      1  0.5251700000000  0.4322750000000  0.5266440000000 1.0
C      1  0.5250840000000  0.5678720000000  0.4729890000000 1.0
C      1  0.5262970000000  0.5682570000000  0.5286100000000 1.0
C      1  0.5250280000000  0.4327460000000  0.4738820000000 1.0
C      1  0.5244170000000  0.5426470000000  0.4585370000000 1.0
C      1  0.5271340000000  0.4565240000000  0.5428650000000 1.0
C      1  0.5261410000000  0.4575980000000  0.4593960000000 1.0
C      1  0.5265400000000  0.5432650000000  0.5437880000000 1.0
C      1  0.4930860000000  0.5232350000000  0.4296610000000 1.0
C      1  0.4909030000000  0.4781460000000  0.5708710000000 1.0
C      1  0.4839790000000  0.4827350000000  0.4313110000000 1.0
C      1  0.4870240000000  0.5197560000000  0.5720670000000 1.0
C      1  0.4262910000000  0.5130000000000  0.4656500000000 1.0
C      1  0.4192540000000  0.4836470000000  0.5314400000000 1.0
C      1  0.4203270000000  0.4892510000000  0.4775050000000 1.0
C      1  0.4229270000000  0.5124780000000  0.5307790000000 1.0
C      1  0.5054780000000  0.5264450000000  0.5274140000000 1.0
C      1  0.5102390000000  0.4747070000000  0.4760570000000 1.0
C      1  0.5111410000000  0.4743270000000  0.5267550000000 1.0
C      1  0.5069760000000  0.5261050000000  0.4769030000000 1.0
C      1  0.5664060000000  0.5227670000000  0.5262240000000 1.0
C      1  0.5649940000000  0.4758020000000  0.4759640000000 1.0
C      1  0.5652560000000  0.4755500000000  0.5247350000000 1.0
C      1  0.5664080000000  0.5230920000000  0.4743000000000 1.0
C      1  0.4596360000000  0.4472340000000  0.4487680000000 1.0
C      1  0.4601300000000  0.5500600000000  0.5472030000000 1.0
C      1  0.4608150000000  0.5481960000000  0.4502290000000 1.0
C      1  0.4585760000000  0.4450580000000  0.5521700000000 1.0
C      1  0.4642070000000  0.5070060000000  0.5592090000000 1.0
C      1  0.4576850000000  0.4954740000000  0.4378890000000 1.0
C      1  0.5198780000000  0.5013370000000  0.5246200000000 1.0
C      1  0.5205290000000  0.5010690000000  0.4780350000000 1.0
C      1  0.5081870000000  0.4991950000000  0.5740870000000 1.0
C      1  0.5070600000000  0.5006700000000  0.4270370000000 1.0
C      1  0.5797290000000  0.4991420000000  0.5149330000000 1.0
C      1  0.5794740000000  0.4995430000000  0.4855910000000 1.0
C      1  0.5559990000000  0.4609440000000  0.5002710000000 1.0
C      1  0.5525980000000  0.5326600000000  0.5002290000000 1.0
C      1  0.4593420000000  0.4287910000000  0.5001980000000 1.0
C      1  0.4627250000000  0.5684320000000  0.4983910000000 1.0
C      1  0.5382280000000  0.4995670000000  0.4371950000000 1.0
C      1  0.5390480000000  0.4993600000000  0.5639090000000 1.0
C      1  0.5055370000000  0.5393840000000  0.5016520000000 1.0
C      1  0.4994880000000  0.4677760000000  0.5015390000000 1.0
C      1  0.5358150000000  0.4400330000000  0.5002730000000 1.0
C      1  0.5281420000000  0.5586690000000  0.5007370000000 1.0
C      1  0.4698280000000  0.5000900000000  0.5273190000000 1.0
C      1  0.4719940000000  0.5002470000000  0.4799710000000 1.0
C      1  0.4253620000000  0.4969170000000  0.5048870000000 1.0
C      1  0.4855640000000  0.4923230000000  0.5034090000000 1.0
C      1  0.5369500000000  0.5070110000000  0.5016060000000 1.0
END
