TITL C-2441154-10-617 0.131519457311934 125000 -23909.089682579 0 0 181 (C1) n - 1
REM
REM in /home/bkarasulu/work/CARBON/AIRSS/Generating-Clusters/ReaxFF-fromJPCA2015/Units_Real/with-SteepDescent/Higher-Symm
REM
REM
REM
REM
REM
REM ./C.cell (1df0a924f5614ab8850e4351716899ee)
REM
REM compiler GCC version 9.2.1 20190827 (Red Hat 9.2.1-1)
REM options -cpp -mtune=generic -march=x86-64 -g -O0 -fpre-include=/usr/include/finclude/math-vector-fortran.h
REM seed 2109790127 -1302557995 871799214 -650251818 343825932 -2049456289 -889150973 -601705021 -1774982194 -893425199 -345806760 170943454 -204223989 -356388521 1688008232 339529555 133798033 -1113539909 773657525 -852831517 -319006278 -350703375 194703458 -1216844718 -300910435 531609032 815540811 -1897159961 317548044 -1846480262 -1206013917 -399659263 -628373790
REM
CELL 1.54180   50.00000   50.00000   50.00000   90.00000   90.00000   90.00000
LATT -1
SFAC C  
C      1  0.5145730000000  0.4281910000000  0.4429020000000 1.0
C      1  0.4966360000000  0.5279770000000  0.5687350000000 1.0
C      1  0.5283220000000  0.4038500000000  0.4584590000000 1.0
C      1  0.4819630000000  0.5699230000000  0.5833430000000 1.0
C      1  0.5557450000000  0.5411350000000  0.5775330000000 1.0
C      1  0.4679620000000  0.4126190000000  0.4876920000000 1.0
C      1  0.4589110000000  0.4807050000000  0.5930130000000 1.0
C      1  0.5691680000000  0.4234630000000  0.4747990000000 1.0
C      1  0.5093330000000  0.6074440000000  0.5297370000000 1.0
C      1  0.5658710000000  0.4977500000000  0.5289130000000 1.0
C      1  0.5719550000000  0.4319530000000  0.5411430000000 1.0
C      1  0.4634590000000  0.5866640000000  0.5417390000000 1.0
C      1  0.4394050000000  0.4171410000000  0.4509400000000 1.0
C      1  0.4741150000000  0.4661490000000  0.5407900000000 1.0
C      1  0.3994460000000  0.4965990000000  0.4802460000000 1.0
C      1  0.5352010000000  0.5119230000000  0.5527460000000 1.0
C      1  0.5558430000000  0.4122300000000  0.4514430000000 1.0
C      1  0.5833950000000  0.4689360000000  0.4613680000000 1.0
C      1  0.4309330000000  0.4884570000000  0.5838040000000 1.0
C      1  0.5140040000000  0.3942800000000  0.5105210000000 1.0
C      1  0.4551070000000  0.5841410000000  0.5139700000000 1.0
C      1  0.4027520000000  0.5333390000000  0.4852630000000 1.0
C      1  0.5082670000000  0.4763440000000  0.5787870000000 1.0
C      1  0.4694130000000  0.5454640000000  0.4206760000000 1.0
C      1  0.4869640000000  0.4964090000000  0.4172550000000 1.0
C      1  0.4173400000000  0.5466530000000  0.4648820000000 1.0
C      1  0.4481690000000  0.4208030000000  0.5619210000000 1.0
C      1  0.5160010000000  0.4488210000000  0.5867300000000 1.0
C      1  0.5485450000000  0.5393500000000  0.4177700000000 1.0
C      1  0.4228310000000  0.4976070000000  0.5145450000000 1.0
C      1  0.4278150000000  0.5038030000000  0.4729340000000 1.0
C      1  0.5360650000000  0.6026440000000  0.4902830000000 1.0
C      1  0.4894120000000  0.4368670000000  0.5831970000000 1.0
C      1  0.5261980000000  0.4313810000000  0.4158620000000 1.0
C      1  0.5531040000000  0.4980060000000  0.4035600000000 1.0
C      1  0.5511780000000  0.4566860000000  0.4354550000000 1.0
C      1  0.5272750000000  0.4783110000000  0.5094900000000 1.0
C      1  0.5130450000000  0.4828860000000  0.4449880000000 1.0
C      1  0.4665790000000  0.4137180000000  0.4585130000000 1.0
C      1  0.4924990000000  0.5513290000000  0.4038760000000 1.0
C      1  0.4949890000000  0.4127350000000  0.5695270000000 1.0
C      1  0.3947300000000  0.5012770000000  0.5101680000000 1.0
C      1  0.4124070000000  0.5062170000000  0.4373350000000 1.0
C      1  0.4647630000000  0.5262590000000  0.5952780000000 1.0
C      1  0.4569830000000  0.5318780000000  0.4998420000000 1.0
C      1  0.5640090000000  0.5582470000000  0.4752950000000 1.0
C      1  0.4895590000000  0.5987880000000  0.5493280000000 1.0
C      1  0.4637070000000  0.5946920000000  0.4727920000000 1.0
C      1  0.5522830000000  0.5214280000000  0.5326200000000 1.0
C      1  0.5647710000000  0.5494860000000  0.5292850000000 1.0
C      1  0.5531190000000  0.4286340000000  0.4268300000000 1.0
C      1  0.5452900000000  0.4836050000000  0.5497460000000 1.0
C      1  0.5877470000000  0.4591730000000  0.5051370000000 1.0
C      1  0.5010730000000  0.4399170000000  0.5243810000000 1.0
C      1  0.5228220000000  0.4394700000000  0.5422070000000 1.0
C      1  0.5095460000000  0.6073030000000  0.4615870000000 1.0
C      1  0.4183150000000  0.5441730000000  0.5071310000000 1.0
C      1  0.6042150000000  0.5358700000000  0.4894430000000 1.0
C      1  0.4420000000000  0.4619940000000  0.4583970000000 1.0
C      1  0.5782220000000  0.4979390000000  0.4204580000000 1.0
C      1  0.5588730000000  0.5991570000000  0.5080750000000 1.0
C      1  0.4917250000000  0.4696160000000  0.4065830000000 1.0
C      1  0.5008130000000  0.5613940000000  0.5364500000000 1.0
C      1  0.5294820000000  0.4765750000000  0.4669020000000 1.0
C      1  0.4232720000000  0.4209390000000  0.4751680000000 1.0
C      1  0.4717760000000  0.4450830000000  0.4919600000000 1.0
C      1  0.4722320000000  0.4662440000000  0.5108360000000 1.0
C      1  0.5065690000000  0.4930710000000  0.6025510000000 1.0
C      1  0.5343450000000  0.5262150000000  0.5896010000000 1.0
C      1  0.4408980000000  0.5489260000000  0.5728190000000 1.0
C      1  0.4913620000000  0.4663170000000  0.4549770000000 1.0
C      1  0.4896840000000  0.5723850000000  0.4429050000000 1.0
C      1  0.4210090000000  0.4503050000000  0.4744800000000 1.0
C      1  0.5483070000000  0.4724590000000  0.5771190000000 1.0
C      1  0.4590210000000  0.5694130000000  0.5655260000000 1.0
C      1  0.4632430000000  0.5893370000000  0.4455920000000 1.0
C      1  0.5048380000000  0.5802710000000  0.4656110000000 1.0
C      1  0.3997650000000  0.5317500000000  0.4294510000000 1.0
C      1  0.5145070000000  0.5523160000000  0.4760390000000 1.0
C      1  0.5933690000000  0.4983480000000  0.5174960000000 1.0
C      1  0.5099910000000  0.5409150000000  0.5905100000000 1.0
C      1  0.5338290000000  0.4002790000000  0.5327220000000 1.0
C      1  0.4892600000000  0.5523580000000  0.4895250000000 1.0
C      1  0.4004180000000  0.4669230000000  0.4854250000000 1.0
C      1  0.5933190000000  0.5632440000000  0.4861560000000 1.0
C      1  0.4702860000000  0.5209930000000  0.5668380000000 1.0
C      1  0.4352080000000  0.5166600000000  0.4993920000000 1.0
C      1  0.4644100000000  0.5475290000000  0.4759550000000 1.0
C      1  0.4241760000000  0.4468360000000  0.5240000000000 1.0
C      1  0.4855510000000  0.4006270000000  0.5080370000000 1.0
C      1  0.4504790000000  0.5122990000000  0.3999770000000 1.0
C      1  0.4430790000000  0.4244560000000  0.5215200000000 1.0
C      1  0.4756440000000  0.5979900000000  0.4967160000000 1.0
C      1  0.5164950000000  0.4507000000000  0.5017610000000 1.0
C      1  0.5343040000000  0.5034370000000  0.6046580000000 1.0
C      1  0.5706070000000  0.5360260000000  0.4358710000000 1.0
C      1  0.4712530000000  0.4060400000000  0.5540810000000 1.0
C      1  0.4437970000000  0.5374040000000  0.4121580000000 1.0
C      1  0.3997910000000  0.4830960000000  0.5555520000000 1.0
C      1  0.5069840000000  0.4897520000000  0.5259750000000 1.0
C      1  0.6029580000000  0.5257610000000  0.5176750000000 1.0
C      1  0.4834840000000  0.4312570000000  0.4430410000000 1.0
C      1  0.4261820000000  0.5253260000000  0.5430010000000 1.0
C      1  0.5583130000000  0.5338580000000  0.4615010000000 1.0
C      1  0.5595500000000  0.4921020000000  0.5951590000000 1.0
C      1  0.4387150000000  0.4449020000000  0.5717010000000 1.0
C      1  0.4964600000000  0.4814350000000  0.5520540000000 1.0
C      1  0.4776270000000  0.5000030000000  0.6035180000000 1.0
C      1  0.5560910000000  0.5458120000000  0.5003110000000 1.0
C      1  0.4795630000000  0.5106460000000  0.3927440000000 1.0
C      1  0.5892120000000  0.5362750000000  0.5409300000000 1.0
C      1  0.5649580000000  0.4480690000000  0.5768640000000 1.0
C      1  0.4383440000000  0.4104890000000  0.4973410000000 1.0
C      1  0.5376130000000  0.5629970000000  0.5713550000000 1.0
C      1  0.4841240000000  0.5286620000000  0.5045410000000 1.0
C      1  0.4655340000000  0.4583910000000  0.4085620000000 1.0
C      1  0.5187580000000  0.4559390000000  0.4013650000000 1.0
C      1  0.5182680000000  0.5101950000000  0.4391980000000 1.0
C      1  0.6010210000000  0.4938190000000  0.4885550000000 1.0
C      1  0.5376270000000  0.4764030000000  0.4012250000000 1.0
C      1  0.5395170000000  0.4334760000000  0.5793780000000 1.0
C      1  0.4919380000000  0.5059730000000  0.4825710000000 1.0
C      1  0.5183670000000  0.3988540000000  0.4835040000000 1.0
C      1  0.5220070000000  0.5686100000000  0.5204430000000 1.0
C      1  0.5567410000000  0.5116900000000  0.4799610000000 1.0
C      1  0.4638630000000  0.4529220000000  0.5847740000000 1.0
C      1  0.5096480000000  0.5220800000000  0.5481830000000 1.0
C      1  0.5034930000000  0.5266730000000  0.3951160000000 1.0
C      1  0.4733240000000  0.4905930000000  0.4626580000000 1.0
C      1  0.5798400000000  0.4958370000000  0.5733020000000 1.0
C      1  0.5518400000000  0.5719620000000  0.5494290000000 1.0
C      1  0.4255560000000  0.5730120000000  0.4725040000000 1.0
C      1  0.5035590000000  0.5760120000000  0.5642290000000 1.0
C      1  0.5383110000000  0.5829310000000  0.4422660000000 1.0
C      1  0.4163150000000  0.5061090000000  0.5641180000000 1.0
C      1  0.4532030000000  0.5138130000000  0.5448320000000 1.0
C      1  0.4317720000000  0.5697470000000  0.5014910000000 1.0
C      1  0.5909110000000  0.4535760000000  0.5353600000000 1.0
C      1  0.5784310000000  0.5245040000000  0.5651510000000 1.0
C      1  0.5342500000000  0.4952540000000  0.4876680000000 1.0
C      1  0.5297470000000  0.5187690000000  0.4116600000000 1.0
C      1  0.5838590000000  0.4675890000000  0.5602630000000 1.0
C      1  0.5049570000000  0.5245960000000  0.4601260000000 1.0
C      1  0.4377060000000  0.4337570000000  0.4269550000000 1.0
C      1  0.4953970000000  0.5346740000000  0.5291640000000 1.0
C      1  0.4754650000000  0.4189970000000  0.5270280000000 1.0
C      1  0.5751330000000  0.4890990000000  0.4785460000000 1.0
C      1  0.5383030000000  0.5920750000000  0.5313190000000 1.0
C      1  0.5877890000000  0.4458460000000  0.4783620000000 1.0
C      1  0.3887390000000  0.4787080000000  0.5283950000000 1.0
C      1  0.5505050000000  0.4280870000000  0.4975540000000 1.0
C      1  0.4886830000000  0.4889820000000  0.5054120000000 1.0
C      1  0.4197440000000  0.5543380000000  0.5540220000000 1.0
C      1  0.5058680000000  0.6061720000000  0.5021120000000 1.0
C      1  0.5347830000000  0.4497850000000  0.4573080000000 1.0
C      1  0.4668430000000  0.5028910000000  0.4366540000000 1.0
C      1  0.6032910000000  0.5157200000000  0.4680830000000 1.0
C      1  0.4255300000000  0.5485110000000  0.4333740000000 1.0
C      1  0.4775480000000  0.5403310000000  0.4492620000000 1.0
C      1  0.4367440000000  0.5782080000000  0.4460940000000 1.0
C      1  0.5710930000000  0.4766350000000  0.4373060000000 1.0
C      1  0.5913180000000  0.5160460000000  0.4400220000000 1.0
C      1  0.5581690000000  0.4547370000000  0.5075480000000 1.0
C      1  0.5242750000000  0.4136930000000  0.5591370000000 1.0
C      1  0.5571020000000  0.4128600000000  0.5228370000000 1.0
C      1  0.4968940000000  0.4509970000000  0.4794230000000 1.0
C      1  0.5480290000000  0.5877510000000  0.4674460000000 1.0
C      1  0.4331810000000  0.4747980000000  0.5260490000000 1.0
C      1  0.5816870000000  0.5833180000000  0.5017450000000 1.0
C      1  0.5482480000000  0.4522400000000  0.5352050000000 1.0
C      1  0.3982690000000  0.4562400000000  0.5125310000000 1.0
C      1  0.4838360000000  0.5477930000000  0.6021120000000 1.0
C      1  0.4408240000000  0.4968390000000  0.4232480000000 1.0
C      1  0.5068630000000  0.5700570000000  0.4201150000000 1.0
C      1  0.5341460000000  0.5628180000000  0.4233440000000 1.0
C      1  0.4482990000000  0.4843940000000  0.4731550000000 1.0
C      1  0.4657250000000  0.4319900000000  0.4193040000000 1.0
C      1  0.5297020000000  0.5502710000000  0.5009470000000 1.0
C      1  0.4529560000000  0.4853960000000  0.5425990000000 1.0
C      1  0.4157810000000  0.4659200000000  0.5739740000000 1.0
C      1  0.4403580000000  0.4633820000000  0.4291030000000 1.0
END
