TITL C-2441161-5029-25 -1.1513260013101e-08 125000 -868.099695502553 0 0 7 (C2v) n - 1
REM
REM in /home/bkarasulu/work/CARBON/AIRSS/Generating-Clusters/ReaxFF-fromJPCA2015/Units_Real/with-SteepDescent/Higher-Symm
REM
REM
REM
REM
REM
REM ./C.cell (1df0a924f5614ab8850e4351716899ee)
REM
REM compiler GCC version 9.2.1 20190827 (Red Hat 9.2.1-1)
REM options -cpp -mtune=generic -march=x86-64 -g -O0 -fpre-include=/usr/include/finclude/math-vector-fortran.h
REM seed -1744244509 -1128677605 -1853160650 1281488459 -744984504 -163520301 1536615548 1220835240 634908052 -1911096850 -410748843 -1296869317 1826769743 873854247 1898005755 100032720 1095781549 779644144 -278617774 -279198487 -1550845052 2081871624 -1542845448 2131473633 -133779939 1685877767 1492101438 -697369087 1578587344 -1338199119 407438355 69391198 -205053884
REM
CELL 1.54180   50.00000   50.00000   50.00000   90.00000   90.00000   90.00000
LATT -1
SFAC C  
C      1  0.4992960000000  0.4776780000000  0.4927600000000 1.0
C      1  0.4992820000000  0.4950950000000  0.4652730000000 1.0
C      1  0.4992820000000  0.5346150000000  0.5047920000000 1.0
C      1  0.4992960000000  0.5071280000000  0.5222100000000 1.0
C      1  0.4778380000000  0.4875720000000  0.5123160000000 1.0
C      1  0.5207590000000  0.4875850000000  0.5123030000000 1.0
C      1  0.4992800000000  0.5183070000000  0.4815800000000 1.0
END
