TITL C-2441161-5029-897 0.0670544044592312 125000 -26642.608413526 0 0 190 (C1) n - 1
REM
REM in /home/bkarasulu/work/CARBON/AIRSS/Generating-Clusters/ReaxFF-fromJPCA2015/Units_Real/with-SteepDescent/Higher-Symm
REM
REM
REM
REM
REM
REM ./C.cell (1df0a924f5614ab8850e4351716899ee)
REM
REM compiler GCC version 9.2.1 20190827 (Red Hat 9.2.1-1)
REM options -cpp -mtune=generic -march=x86-64 -g -O0 -fpre-include=/usr/include/finclude/math-vector-fortran.h
REM seed 1829910940 -2003287608 -1662012307 -1911062636 -589683510 -2038219102 1742074959 -858041726 -1547872986 -823324822 -1409126278 -890866946 262817158 -397397993 -1877590485 -760160808 1477913393 1584092383 -1054872712 1507370364 -521558168 1432911365 -1669180348 1582552357 -1513744774 389003031 -1129715713 1162498098 1864487283 85874035 399350830 -814305081 -1202482340
REM
CELL 1.54180   50.00000   50.00000   50.00000   90.00000   90.00000   90.00000
LATT -1
SFAC C  
C      1  0.5387900000000  0.4101130000000  0.4504810000000 1.0
C      1  0.5969550000000  0.5111530000000  0.4511350000000 1.0
C      1  0.5209520000000  0.5949420000000  0.4529550000000 1.0
C      1  0.4155780000000  0.5498160000000  0.4527990000000 1.0
C      1  0.4295840000000  0.4350780000000  0.4545890000000 1.0
C      1  0.5111150000000  0.4853180000000  0.4844920000000 1.0
C      1  0.5194130000000  0.5165670000000  0.4798280000000 1.0
C      1  0.4982180000000  0.5249170000000  0.4960930000000 1.0
C      1  0.4743970000000  0.5136620000000  0.4851440000000 1.0
C      1  0.4821590000000  0.4880500000000  0.4794430000000 1.0
C      1  0.5713640000000  0.4704340000000  0.5666140000000 1.0
C      1  0.5517840000000  0.5601880000000  0.5662880000000 1.0
C      1  0.4587250000000  0.5664090000000  0.5650920000000 1.0
C      1  0.4254990000000  0.4833310000000  0.5660420000000 1.0
C      1  0.4943120000000  0.4253170000000  0.5633750000000 1.0
C      1  0.5665020000000  0.5084740000000  0.5790240000000 1.0
C      1  0.5129810000000  0.5659470000000  0.5831720000000 1.0
C      1  0.4420380000000  0.5334400000000  0.5810410000000 1.0
C      1  0.4498120000000  0.4542180000000  0.5808230000000 1.0
C      1  0.5272580000000  0.4389720000000  0.5820700000000 1.0
C      1  0.4616430000000  0.5197300000000  0.4592430000000 1.0
C      1  0.4695220000000  0.4700860000000  0.4614330000000 1.0
C      1  0.5191440000000  0.4626160000000  0.4653860000000 1.0
C      1  0.5528460000000  0.5016560000000  0.4576570000000 1.0
C      1  0.5122060000000  0.5378490000000  0.4613800000000 1.0
C      1  0.5060150000000  0.4762800000000  0.6101850000000 1.0
C      1  0.5255530000000  0.4979050000000  0.6077300000000 1.0
C      1  0.5093030000000  0.5219990000000  0.6105210000000 1.0
C      1  0.4806890000000  0.5162540000000  0.6085150000000 1.0
C      1  0.4788750000000  0.4871360000000  0.6105930000000 1.0
C      1  0.5820840000000  0.4199590000000  0.5478190000000 1.0
C      1  0.6022120000000  0.5541060000000  0.5390500000000 1.0
C      1  0.4820330000000  0.6080560000000  0.5485870000000 1.0
C      1  0.3836480000000  0.5092430000000  0.5434410000000 1.0
C      1  0.4503960000000  0.4012510000000  0.5471630000000 1.0
C      1  0.5995170000000  0.4824340000000  0.5048630000000 1.0
C      1  0.5551320000000  0.5975580000000  0.5035700000000 1.0
C      1  0.4320680000000  0.5831120000000  0.5056180000000 1.0
C      1  0.3991400000000  0.4548420000000  0.5105120000000 1.0
C      1  0.5121880000000  0.3932010000000  0.5147880000000 1.0
C      1  0.4744120000000  0.5007760000000  0.3943120000000 1.0
C      1  0.4911420000000  0.4769180000000  0.3937800000000 1.0
C      1  0.5192140000000  0.4854010000000  0.3933610000000 1.0
C      1  0.5199800000000  0.5145200000000  0.3940830000000 1.0
C      1  0.4923450000000  0.5238870000000  0.3945710000000 1.0
C      1  0.4703270000000  0.4447270000000  0.4747090000000 1.0
C      1  0.5431780000000  0.4520970000000  0.4758910000000 1.0
C      1  0.5583840000000  0.5224490000000  0.4756360000000 1.0
C      1  0.4938500000000  0.5580110000000  0.4737620000000 1.0
C      1  0.4369560000000  0.5090870000000  0.4709090000000 1.0
C      1  0.5073070000000  0.5655600000000  0.4168460000000 1.0
C      1  0.4391270000000  0.5273630000000  0.4169930000000 1.0
C      1  0.4548480000000  0.4511870000000  0.4161200000000 1.0
C      1  0.5325490000000  0.4429040000000  0.4152470000000 1.0
C      1  0.5654100000000  0.5141440000000  0.4145740000000 1.0
C      1  0.4122600000000  0.4379870000000  0.5304850000000 1.0
C      1  0.5325990000000  0.3980770000000  0.5357440000000 1.0
C      1  0.6012790000000  0.5033000000000  0.5393170000000 1.0
C      1  0.5441520000000  0.6001120000000  0.5310200000000 1.0
C      1  0.4128640000000  0.5519650000000  0.5434660000000 1.0
C      1  0.4888090000000  0.6024340000000  0.4907920000000 1.0
C      1  0.3920840000000  0.5233130000000  0.4853680000000 1.0
C      1  0.4507830000000  0.4080080000000  0.4904270000000 1.0
C      1  0.5760700000000  0.4168750000000  0.4841950000000 1.0
C      1  0.5950090000000  0.5450080000000  0.4903480000000 1.0
C      1  0.4547890000000  0.4700560000000  0.5198670000000 1.0
C      1  0.5091300000000  0.4447230000000  0.5142760000000 1.0
C      1  0.5563490000000  0.4919530000000  0.5161020000000 1.0
C      1  0.5289920000000  0.5546040000000  0.5151230000000 1.0
C      1  0.4552000000000  0.5429580000000  0.5139690000000 1.0
C      1  0.4528290000000  0.4403930000000  0.5579920000000 1.0
C      1  0.5415370000000  0.4367480000000  0.5588400000000 1.0
C      1  0.5748960000000  0.5180210000000  0.5539100000000 1.0
C      1  0.5031820000000  0.5726230000000  0.5569810000000 1.0
C      1  0.4294350000000  0.5308410000000  0.5557820000000 1.0
C      1  0.5078570000000  0.5198430000000  0.4395810000000 1.0
C      1  0.4804350000000  0.5096670000000  0.4392520000000 1.0
C      1  0.4841740000000  0.4808800000000  0.4390370000000 1.0
C      1  0.5127390000000  0.4747990000000  0.4400890000000 1.0
C      1  0.5290570000000  0.4993260000000  0.4412770000000 1.0
C      1  0.4406920000000  0.5876620000000  0.4777030000000 1.0
C      1  0.4068850000000  0.4718230000000  0.4819480000000 1.0
C      1  0.4971850000000  0.4021740000000  0.4779620000000 1.0
C      1  0.5919420000000  0.4680060000000  0.4817260000000 1.0
C      1  0.5616150000000  0.5801050000000  0.4795230000000 1.0
C      1  0.4728950000000  0.5919370000000  0.4437370000000 1.0
C      1  0.4035550000000  0.5018590000000  0.4447530000000 1.0
C      1  0.4679550000000  0.4093720000000  0.4419390000000 1.0
C      1  0.5757100000000  0.4425820000000  0.4431200000000 1.0
C      1  0.5792440000000  0.5549290000000  0.4438780000000 1.0
C      1  0.5350200000000  0.5558300000000  0.4168170000000 1.0
C      1  0.4574690000000  0.5503960000000  0.4171520000000 1.0
C      1  0.4383100000000  0.4754640000000  0.4170070000000 1.0
C      1  0.5041560000000  0.4347710000000  0.4155120000000 1.0
C      1  0.5641170000000  0.4843770000000  0.4134710000000 1.0
C      1  0.5705740000000  0.5482480000000  0.5111380000000 1.0
C      1  0.4773120000000  0.5804480000000  0.5109160000000 1.0
C      1  0.4213900000000  0.4999830000000  0.5124050000000 1.0
C      1  0.4715190000000  0.4179770000000  0.5106050000000 1.0
C      1  0.5623410000000  0.4478320000000  0.5143580000000 1.0
C      1  0.4797430000000  0.4859570000000  0.5197900000000 1.0
C      1  0.5056280000000  0.4736250000000  0.5130790000000 1.0
C      1  0.5338060000000  0.5079630000000  0.5262680000000 1.0
C      1  0.5093280000000  0.5343900000000  0.5191780000000 1.0
C      1  0.4711490000000  0.5124010000000  0.5281210000000 1.0
C      1  0.4932600000000  0.5580000000000  0.5333110000000 1.0
C      1  0.4416710000000  0.5095410000000  0.5323500000000 1.0
C      1  0.4644380000000  0.4432540000000  0.5315640000000 1.0
C      1  0.5439670000000  0.4524290000000  0.5351520000000 1.0
C      1  0.5551690000000  0.5285440000000  0.5326550000000 1.0
C      1  0.4851560000000  0.3963300000000  0.5247110000000 1.0
C      1  0.5872370000000  0.4404550000000  0.5277940000000 1.0
C      1  0.5814510000000  0.5701190000000  0.5315340000000 1.0
C      1  0.4524600000000  0.5932900000000  0.5233770000000 1.0
C      1  0.3965980000000  0.4892600000000  0.5241330000000 1.0
C      1  0.4798480000000  0.4871630000000  0.5648030000000 1.0
C      1  0.5052900000000  0.4767530000000  0.5635400000000 1.0
C      1  0.5246190000000  0.4989140000000  0.5585150000000 1.0
C      1  0.5089970000000  0.5218440000000  0.5633880000000 1.0
C      1  0.4813690000000  0.5161790000000  0.5594710000000 1.0
C      1  0.4837780000000  0.5743110000000  0.5786470000000 1.0
C      1  0.4244050000000  0.5109320000000  0.5771530000000 1.0
C      1  0.4695850000000  0.4315850000000  0.5784210000000 1.0
C      1  0.5549120000000  0.4501140000000  0.5806800000000 1.0
C      1  0.5681570000000  0.5368670000000  0.5746360000000 1.0
C      1  0.4477280000000  0.4289390000000  0.4331790000000 1.0
C      1  0.5512100000000  0.4291130000000  0.4326320000000 1.0
C      1  0.5843610000000  0.5283680000000  0.4316700000000 1.0
C      1  0.5004820000000  0.5881720000000  0.4335680000000 1.0
C      1  0.4154240000000  0.5275580000000  0.4342440000000 1.0
C      1  0.5620770000000  0.4018050000000  0.5352430000000 1.0
C      1  0.6161940000000  0.5301650000000  0.5375220000000 1.0
C      1  0.5065150000000  0.6126440000000  0.5375830000000 1.0
C      1  0.3888210000000  0.5372120000000  0.5356950000000 1.0
C      1  0.4252070000000  0.4106380000000  0.5348390000000 1.0
C      1  0.4430960000000  0.4825430000000  0.5428520000000 1.0
C      1  0.4948230000000  0.4425050000000  0.5396740000000 1.0
C      1  0.5559800000000  0.4775370000000  0.5419430000000 1.0
C      1  0.5384720000000  0.5499850000000  0.5425300000000 1.0
C      1  0.4657360000000  0.5511280000000  0.5405100000000 1.0
C      1  0.4713480000000  0.5572910000000  0.4937370000000 1.0
C      1  0.4335260000000  0.4862670000000  0.4905870000000 1.0
C      1  0.4905280000000  0.4295360000000  0.4916000000000 1.0
C      1  0.5605360000000  0.4686640000000  0.4940380000000 1.0
C      1  0.5483460000000  0.5512060000000  0.4922030000000 1.0
C      1  0.4481870000000  0.5012150000000  0.4070920000000 1.0
C      1  0.4826120000000  0.4520070000000  0.4060660000000 1.0
C      1  0.5405880000000  0.4693210000000  0.4047040000000 1.0
C      1  0.5419350000000  0.5295450000000  0.4061830000000 1.0
C      1  0.4849460000000  0.5488050000000  0.4074290000000 1.0
C      1  0.4246840000000  0.4069380000000  0.5062580000000 1.0
C      1  0.5604220000000  0.4058200000000  0.5066560000000 1.0
C      1  0.6123510000000  0.5287640000000  0.5088670000000 1.0
C      1  0.5093210000000  0.6121640000000  0.5103950000000 1.0
C      1  0.3954230000000  0.5415530000000  0.5077990000000 1.0
C      1  0.5550020000000  0.5679490000000  0.4343000000000 1.0
C      1  0.4524200000000  0.5733250000000  0.4342490000000 1.0
C      1  0.4153610000000  0.4767720000000  0.4352740000000 1.0
C      1  0.4953290000000  0.4131180000000  0.4327310000000 1.0
C      1  0.5798310000000  0.4692440000000  0.4323860000000 1.0
C      1  0.5092750000000  0.4597090000000  0.5863980000000 1.0
C      1  0.5410290000000  0.4983390000000  0.5831180000000 1.0
C      1  0.5169650000000  0.5372270000000  0.5866420000000 1.0
C      1  0.4681710000000  0.5262250000000  0.5842780000000 1.0
C      1  0.4637930000000  0.4786450000000  0.5871740000000 1.0
C      1  0.5871400000000  0.4397970000000  0.4699430000000 1.0
C      1  0.5851420000000  0.5644890000000  0.4699380000000 1.0
C      1  0.4652060000000  0.6007090000000  0.4699830000000 1.0
C      1  0.3932280000000  0.4973640000000  0.4714590000000 1.0
C      1  0.4705740000000  0.3980920000000  0.4681930000000 1.0
C      1  0.4464140000000  0.4318330000000  0.4756410000000 1.0
C      1  0.5498320000000  0.4248070000000  0.4727770000000 1.0
C      1  0.5869300000000  0.5222910000000  0.4753930000000 1.0
C      1  0.5052680000000  0.5838690000000  0.4744760000000 1.0
C      1  0.4185420000000  0.5315810000000  0.4749240000000 1.0
C      1  0.4791940000000  0.3998270000000  0.5532770000000 1.0
C      1  0.5887640000000  0.4480420000000  0.5562230000000 1.0
C      1  0.5610150000000  0.5830090000000  0.5489500000000 1.0
C      1  0.4571810000000  0.5943750000000  0.5528560000000 1.0
C      1  0.3979570000000  0.4870780000000  0.5549170000000 1.0
C      1  0.4321970000000  0.5725510000000  0.4539850000000 1.0
C      1  0.4129040000000  0.4573830000000  0.4562470000000 1.0
C      1  0.5118800000000  0.4037790000000  0.4533360000000 1.0
C      1  0.5819910000000  0.4869370000000  0.4551250000000 1.0
C      1  0.5476250000000  0.5861160000000  0.4543330000000 1.0
C      1  0.4160390000000  0.4337770000000  0.5034210000000 1.0
C      1  0.5314940000000  0.4128620000000  0.5113140000000 1.0
C      1  0.5938970000000  0.5030290000000  0.5143100000000 1.0
C      1  0.5290040000000  0.5913890000000  0.5089880000000 1.0
C      1  0.4234290000000  0.5558910000000  0.5156210000000 1.0
END
