TITL C-2441158-471-813 0.00142775125461975 125000 -2452.33897613474 0 0 19 (Ci) n - 1
REM
REM in /home/bkarasulu/work/CARBON/AIRSS/Generating-Clusters/ReaxFF-fromJPCA2015/Units_Real/with-SteepDescent/Higher-Symm
REM
REM
REM
REM
REM
REM ./C.cell (1df0a924f5614ab8850e4351716899ee)
REM
REM compiler GCC version 9.2.1 20190827 (Red Hat 9.2.1-1)
REM options -cpp -mtune=generic -march=x86-64 -g -O0 -fpre-include=/usr/include/finclude/math-vector-fortran.h
REM seed 2016290587 2020796957 453657449 -1389092910 -1910347124 -2131036704 -625827933 -1613623313 -1314906463 1309452644 260482349 203978614 -2028536434 955952412 -885942068 -1642817702 2114103493 -1424121052 1737966600 -1859715273 661031632 -1767727544 -1566946139 -1136344917 2132524993 1546869435 -599980152 334668853 491455938 1301754753 -750768410 -1447757504 1196644738
REM
CELL 1.54180   50.00000   50.00000   50.00000   90.00000   90.00000   90.00000
LATT -1
SFAC C  
C      1  0.4950940000000  0.4341020000000  0.4914870000000 1.0
C      1  0.5039370000000  0.5649440000000  0.5133540000000 1.0
C      1  0.4846780000000  0.4793060000000  0.5390470000000 1.0
C      1  0.5142630000000  0.5197750000000  0.4657630000000 1.0
C      1  0.5495690000000  0.4945500000000  0.4944680000000 1.0
C      1  0.4493200000000  0.5045050000000  0.5104200000000 1.0
C      1  0.4660180000000  0.5037940000000  0.5372540000000 1.0
C      1  0.5328010000000  0.4952720000000  0.4676190000000 1.0
C      1  0.5325000000000  0.5363530000000  0.4603460000000 1.0
C      1  0.4665870000000  0.4627260000000  0.5447260000000 1.0
C      1  0.5073080000000  0.4563980000000  0.4903210000000 1.0
C      1  0.4916430000000  0.5427110000000  0.5144430000000 1.0
C      1  0.4575030000000  0.5121450000000  0.4847650000000 1.0
C      1  0.5413670000000  0.4870570000000  0.5201270000000 1.0
C      1  0.4891420000000  0.5215360000000  0.4882450000000 1.0
C      1  0.5096380000000  0.4776800000000  0.5164500000000 1.0
C      1  0.4791830000000  0.5294550000000  0.5394810000000 1.0
C      1  0.5197010000000  0.4695220000000  0.4652360000000 1.0
C      1  0.4994230000000  0.4996310000000  0.5023810000000 1.0
END
