TITL C-2441159-1093-1485 0.19574362341643 125000 -25320.132134177 0 0 200 (C1) n - 1
REM
REM in /home/bkarasulu/work/CARBON/AIRSS/Generating-Clusters/ReaxFF-fromJPCA2015/Units_Real/with-SteepDescent/Higher-Symm
REM
REM
REM
REM
REM
REM ./C.cell (1df0a924f5614ab8850e4351716899ee)
REM
REM compiler GCC version 9.2.1 20190827 (Red Hat 9.2.1-1)
REM options -cpp -mtune=generic -march=x86-64 -g -O0 -fpre-include=/usr/include/finclude/math-vector-fortran.h
REM seed -1003440363 -1683529089 -1366004098 1681296969 1632551426 1722861052 1991706693 -406645381 -54570869 -1493088829 1962782411 -141129195 -1877330813 2045628722 -270358459 1226227414 538597850 -1618345602 -1682516390 -1513904157 2012673185 2102955153 402558757 233091512 -1093663787 -593879391 -1265358862 -1044770191 1595161482 1916175427 1722507552 -415443726 1754164448
REM
CELL 1.54180   50.00000   50.00000   50.00000   90.00000   90.00000   90.00000
LATT -1
SFAC C  
C      1  0.6183270000000  0.4843210000000  0.4872360000000 1.0
C      1  0.5270230000000  0.4865270000000  0.3953050000000 1.0
C      1  0.3982860000000  0.4829300000000  0.4431830000000 1.0
C      1  0.4151630000000  0.4843350000000  0.5802230000000 1.0
C      1  0.5479230000000  0.4845080000000  0.6048060000000 1.0
C      1  0.5275010000000  0.5042470000000  0.5437500000000 1.0
C      1  0.5578680000000  0.4758910000000  0.4793120000000 1.0
C      1  0.5081850000000  0.4907750000000  0.4509590000000 1.0
C      1  0.4515370000000  0.5032720000000  0.4796590000000 1.0
C      1  0.4709220000000  0.4958670000000  0.5432090000000 1.0
C      1  0.4948370000000  0.5284400000000  0.4687680000000 1.0
C      1  0.4750740000000  0.5371740000000  0.4902100000000 1.0
C      1  0.4850330000000  0.5247060000000  0.5140150000000 1.0
C      1  0.5101260000000  0.5330870000000  0.5186760000000 1.0
C      1  0.5305520000000  0.5234650000000  0.4996700000000 1.0
C      1  0.5935970000000  0.5239670000000  0.4507210000000 1.0
C      1  0.4700100000000  0.5232080000000  0.3929690000000 1.0
C      1  0.3865270000000  0.5297130000000  0.4943180000000 1.0
C      1  0.4511030000000  0.5269240000000  0.5984480000000 1.0
C      1  0.5836310000000  0.5350080000000  0.5730610000000 1.0
C      1  0.4647210000000  0.5049410000000  0.5859030000000 1.0
C      1  0.5736710000000  0.5087060000000  0.5668230000000 1.0
C      1  0.5735320000000  0.5072710000000  0.4557460000000 1.0
C      1  0.4857210000000  0.5067030000000  0.4111920000000 1.0
C      1  0.3953500000000  0.5063460000000  0.4850980000000 1.0
C      1  0.4276880000000  0.5437820000000  0.5050690000000 1.0
C      1  0.4885760000000  0.5444000000000  0.5622860000000 1.0
C      1  0.5573150000000  0.5446080000000  0.5288100000000 1.0
C      1  0.5406640000000  0.5460860000000  0.4563990000000 1.0
C      1  0.4704080000000  0.5463410000000  0.4424770000000 1.0
C      1  0.5824910000000  0.5508650000000  0.4481630000000 1.0
C      1  0.4694560000000  0.5493850000000  0.4027430000000 1.0
C      1  0.4031930000000  0.5522820000000  0.4907430000000 1.0
C      1  0.4632370000000  0.5524450000000  0.5920100000000 1.0
C      1  0.5829130000000  0.5573790000000  0.5559780000000 1.0
C      1  0.6089430000000  0.5114690000000  0.4966050000000 1.0
C      1  0.5332760000000  0.5135250000000  0.3936770000000 1.0
C      1  0.4105510000000  0.5078070000000  0.4380620000000 1.0
C      1  0.4143320000000  0.5090340000000  0.5675080000000 1.0
C      1  0.5379160000000  0.5104780000000  0.6032180000000 1.0
C      1  0.4673880000000  0.4833130000000  0.3988310000000 1.0
C      1  0.3923860000000  0.4808090000000  0.5014660000000 1.0
C      1  0.4686500000000  0.4819830000000  0.6029080000000 1.0
C      1  0.5884360000000  0.4837350000000  0.5629130000000 1.0
C      1  0.5830840000000  0.4871360000000  0.4385980000000 1.0
C      1  0.4501660000000  0.4353880000000  0.5514250000000 1.0
C      1  0.5396560000000  0.4368780000000  0.5634940000000 1.0
C      1  0.5707240000000  0.4303740000000  0.4812490000000 1.0
C      1  0.5013570000000  0.4317570000000  0.4275440000000 1.0
C      1  0.4332150000000  0.4333300000000  0.4730190000000 1.0
C      1  0.4375950000000  0.5981230000000  0.4824820000000 1.0
C      1  0.4637740000000  0.5944280000000  0.5514220000000 1.0
C      1  0.5376900000000  0.5930740000000  0.5508660000000 1.0
C      1  0.5601980000000  0.5938400000000  0.4828580000000 1.0
C      1  0.5056300000000  0.5865390000000  0.4335910000000 1.0
C      1  0.5673510000000  0.4175740000000  0.5305590000000 1.0
C      1  0.5519140000000  0.4146180000000  0.4434670000000 1.0
C      1  0.4617070000000  0.4141660000000  0.4337460000000 1.0
C      1  0.4262600000000  0.4131820000000  0.5175530000000 1.0
C      1  0.4899010000000  0.4148940000000  0.5781520000000 1.0
C      1  0.4777890000000  0.6197880000000  0.4539840000000 1.0
C      1  0.4491270000000  0.6121240000000  0.5045020000000 1.0
C      1  0.4873320000000  0.6099980000000  0.5487740000000 1.0
C      1  0.5439590000000  0.6085400000000  0.5275700000000 1.0
C      1  0.5403420000000  0.6055180000000  0.4670450000000 1.0
C      1  0.6002950000000  0.4857040000000  0.5370510000000 1.0
C      1  0.5637840000000  0.4894380000000  0.4169460000000 1.0
C      1  0.4425820000000  0.4874980000000  0.4119310000000 1.0
C      1  0.3992660000000  0.4875260000000  0.5277180000000 1.0
C      1  0.4968180000000  0.4882670000000  0.6048010000000 1.0
C      1  0.5882290000000  0.4088060000000  0.5117930000000 1.0
C      1  0.5341950000000  0.4099460000000  0.4218000000000 1.0
C      1  0.4344360000000  0.4105180000000  0.4401820000000 1.0
C      1  0.4228180000000  0.4074550000000  0.5447920000000 1.0
C      1  0.5170080000000  0.4103670000000  0.5836980000000 1.0
C      1  0.4447650000000  0.4080320000000  0.5628430000000 1.0
C      1  0.5403300000000  0.4086570000000  0.5673940000000 1.0
C      1  0.5898290000000  0.4076060000000  0.4813030000000 1.0
C      1  0.5134830000000  0.4136500000000  0.4085950000000 1.0
C      1  0.4173590000000  0.4151940000000  0.4580420000000 1.0
C      1  0.4769210000000  0.6084810000000  0.5007070000000 1.0
C      1  0.4944260000000  0.6104610000000  0.5216820000000 1.0
C      1  0.5201930000000  0.6101510000000  0.5113920000000 1.0
C      1  0.5189660000000  0.6084190000000  0.4835830000000 1.0
C      1  0.4915700000000  0.6064170000000  0.4765150000000 1.0
C      1  0.4789180000000  0.4409140000000  0.4850300000000 1.0
C      1  0.4824080000000  0.4403970000000  0.5160910000000 1.0
C      1  0.5128410000000  0.4402140000000  0.5244820000000 1.0
C      1  0.5263340000000  0.4427210000000  0.4983520000000 1.0
C      1  0.5069770000000  0.4411360000000  0.4749240000000 1.0
C      1  0.4463010000000  0.5435900000000  0.4244830000000 1.0
C      1  0.4123070000000  0.5405960000000  0.5290510000000 1.0
C      1  0.4930860000000  0.5450000000000  0.5916560000000 1.0
C      1  0.5869790000000  0.5414200000000  0.5311700000000 1.0
C      1  0.5581180000000  0.5497100000000  0.4316880000000 1.0
C      1  0.5932070000000  0.5077230000000  0.5198890000000 1.0
C      1  0.5488440000000  0.5152070000000  0.4190570000000 1.0
C      1  0.4379620000000  0.5108620000000  0.4281240000000 1.0
C      1  0.4128880000000  0.5117250000000  0.5374980000000 1.0
C      1  0.5101400000000  0.5120720000000  0.5943340000000 1.0
C      1  0.4432490000000  0.5179510000000  0.5023190000000 1.0
C      1  0.4829090000000  0.5148930000000  0.5617320000000 1.0
C      1  0.5481210000000  0.5178750000000  0.5255980000000 1.0
C      1  0.5477100000000  0.5178030000000  0.4629870000000 1.0
C      1  0.4804390000000  0.5209500000000  0.4442350000000 1.0
C      1  0.5773070000000  0.4563550000000  0.5634380000000 1.0
C      1  0.5839540000000  0.4583050000000  0.4457460000000 1.0
C      1  0.4736920000000  0.4554630000000  0.4038380000000 1.0
C      1  0.4025660000000  0.4541930000000  0.4968070000000 1.0
C      1  0.4650140000000  0.4544520000000  0.5947430000000 1.0
C      1  0.5833010000000  0.5544400000000  0.4799510000000 1.0
C      1  0.4991560000000  0.5491390000000  0.4065220000000 1.0
C      1  0.4176760000000  0.5494310000000  0.4644910000000 1.0
C      1  0.4440640000000  0.5528240000000  0.5671590000000 1.0
C      1  0.5440090000000  0.5518150000000  0.5721390000000 1.0
C      1  0.4408240000000  0.4735960000000  0.5140600000000 1.0
C      1  0.4848550000000  0.4706090000000  0.5562360000000 1.0
C      1  0.5583600000000  0.4732120000000  0.5223200000000 1.0
C      1  0.5431180000000  0.4707680000000  0.4553490000000 1.0
C      1  0.4695880000000  0.4719640000000  0.4462320000000 1.0
C      1  0.5669810000000  0.6008520000000  0.5106900000000 1.0
C      1  0.5328040000000  0.5941920000000  0.4427070000000 1.0
C      1  0.4499530000000  0.6072700000000  0.4578720000000 1.0
C      1  0.4436230000000  0.6042820000000  0.5327750000000 1.0
C      1  0.5125720000000  0.6034560000000  0.5634390000000 1.0
C      1  0.5458450000000  0.4234580000000  0.4904670000000 1.0
C      1  0.5048960000000  0.4216010000000  0.4538330000000 1.0
C      1  0.4575480000000  0.4229170000000  0.4814990000000 1.0
C      1  0.4691250000000  0.4240430000000  0.5355890000000 1.0
C      1  0.5141480000000  0.4140170000000  0.5356320000000 1.0
C      1  0.5492880000000  0.4637300000000  0.4233010000000 1.0
C      1  0.4434470000000  0.4645270000000  0.4310270000000 1.0
C      1  0.4150340000000  0.4642270000000  0.5351520000000 1.0
C      1  0.5034460000000  0.4669720000000  0.5850600000000 1.0
C      1  0.5905890000000  0.4625990000000  0.5220710000000 1.0
C      1  0.5209020000000  0.3872150000000  0.4825270000000 1.0
C      1  0.4911750000000  0.3884920000000  0.4770580000000 1.0
C      1  0.4769530000000  0.3898390000000  0.5026900000000 1.0
C      1  0.4986870000000  0.3908590000000  0.5241500000000 1.0
C      1  0.5235280000000  0.3834450000000  0.5111970000000 1.0
C      1  0.5000270000000  0.4996730000000  0.4774930000000 1.0
C      1  0.4743590000000  0.4880820000000  0.4898190000000 1.0
C      1  0.4839010000000  0.4968200000000  0.5188270000000 1.0
C      1  0.5114290000000  0.4879320000000  0.5253480000000 1.0
C      1  0.5208460000000  0.4933820000000  0.4974760000000 1.0
C      1  0.4284730000000  0.4696690000000  0.5615420000000 1.0
C      1  0.5337500000000  0.4742030000000  0.5831860000000 1.0
C      1  0.6004350000000  0.4623620000000  0.4953930000000 1.0
C      1  0.5205170000000  0.4640510000000  0.4087960000000 1.0
C      1  0.4199770000000  0.4688740000000  0.4531180000000 1.0
C      1  0.4235430000000  0.5608710000000  0.5461260000000 1.0
C      1  0.5209100000000  0.5599780000000  0.5889220000000 1.0
C      1  0.5926620000000  0.5616910000000  0.5088960000000 1.0
C      1  0.5173060000000  0.5717060000000  0.4113470000000 1.0
C      1  0.4333740000000  0.5621800000000  0.4438960000000 1.0
C      1  0.5255130000000  0.5581230000000  0.4914690000000 1.0
C      1  0.5132940000000  0.5511870000000  0.4657050000000 1.0
C      1  0.4699600000000  0.5641670000000  0.4986410000000 1.0
C      1  0.4849750000000  0.5672070000000  0.5218280000000 1.0
C      1  0.5135090000000  0.5615300000000  0.5196660000000 1.0
C      1  0.4100750000000  0.4377770000000  0.5193670000000 1.0
C      1  0.4898710000000  0.4401890000000  0.5933960000000 1.0
C      1  0.5838440000000  0.4384400000000  0.5417220000000 1.0
C      1  0.5653420000000  0.4401370000000  0.4343310000000 1.0
C      1  0.4555060000000  0.4383790000000  0.4180940000000 1.0
C      1  0.5661340000000  0.4985490000000  0.5110950000000 1.0
C      1  0.5298400000000  0.5089430000000  0.4420580000000 1.0
C      1  0.4579020000000  0.5022580000000  0.4509170000000 1.0
C      1  0.4431460000000  0.5020070000000  0.5272780000000 1.0
C      1  0.5110230000000  0.5087570000000  0.5657570000000 1.0
C      1  0.5397170000000  0.4693370000000  0.4994240000000 1.0
C      1  0.5159190000000  0.4645250000000  0.4582880000000 1.0
C      1  0.4713000000000  0.4648080000000  0.4737730000000 1.0
C      1  0.4610940000000  0.4585760000000  0.5153930000000 1.0
C      1  0.5061150000000  0.4633720000000  0.5385500000000 1.0
C      1  0.4736380000000  0.4034020000000  0.5545870000000 1.0
C      1  0.5411670000000  0.4021740000000  0.5359420000000 1.0
C      1  0.5414550000000  0.4043940000000  0.4696430000000 1.0
C      1  0.4838870000000  0.4028780000000  0.4526350000000 1.0
C      1  0.4517160000000  0.4039050000000  0.5014910000000 1.0
C      1  0.4938150000000  0.4581450000000  0.4226340000000 1.0
C      1  0.4247560000000  0.4584810000000  0.4804460000000 1.0
C      1  0.4560920000000  0.4574370000000  0.5671230000000 1.0
C      1  0.5487650000000  0.4630060000000  0.5555710000000 1.0
C      1  0.5806310000000  0.4577390000000  0.4759100000000 1.0
C      1  0.5441380000000  0.5748870000000  0.4235460000000 1.0
C      1  0.4544110000000  0.5825020000000  0.4434130000000 1.0
C      1  0.4293950000000  0.5805390000000  0.5263160000000 1.0
C      1  0.5089340000000  0.5813890000000  0.5789920000000 1.0
C      1  0.5820710000000  0.5812740000000  0.5248730000000 1.0
C      1  0.4827810000000  0.5721590000000  0.4471590000000 1.0
C      1  0.4415580000000  0.5722100000000  0.4991700000000 1.0
C      1  0.4729740000000  0.5653600000000  0.5485320000000 1.0
C      1  0.5396520000000  0.5630620000000  0.5442110000000 1.0
C      1  0.5534440000000  0.5652200000000  0.4814080000000 1.0
C      1  0.4323930000000  0.5289410000000  0.5770190000000 1.0
C      1  0.5501110000000  0.5234870000000  0.5793080000000 1.0
C      1  0.5979360000000  0.5292220000000  0.4781970000000 1.0
C      1  0.5089320000000  0.5234160000000  0.4032940000000 1.0
C      1  0.4119130000000  0.5217920000000  0.4633840000000 1.0
END
