TITL C-2441163-1170-1461 0.041486837084694 125000 -9769.76564856163 0 0 78 (C1) n - 1
REM
REM in /home/bkarasulu/work/CARBON/AIRSS/Generating-Clusters/ReaxFF-fromJPCA2015/Units_Real/with-SteepDescent/Higher-Symm
REM
REM
REM
REM
REM
REM ./C.cell (1df0a924f5614ab8850e4351716899ee)
REM
REM compiler GCC version 9.2.1 20190827 (Red Hat 9.2.1-1)
REM options -cpp -mtune=generic -march=x86-64 -g -O0 -fpre-include=/usr/include/finclude/math-vector-fortran.h
REM seed -476479937 577710834 -463706433 2145946737 1827868750 -1255936406 -1108384532 -38689387 -1771797282 -719437159 1228130359 569263669 1391788155 1526033953 -2124041548 -1421764308 -690660112 1696814167 -1048024397 -245400721 -1036258583 1967644632 -257939127 901594814 1635283720 1225504289 1135092942 101790506 -262435637 -1195434243 1553831937 2024877111 1474661207
REM
CELL 1.54180   50.00000   50.00000   50.00000   90.00000   90.00000   90.00000
LATT -1
SFAC C  
C      1  0.5462710000000  0.4861990000000  0.4438880000000 1.0
C      1  0.5116240000000  0.4541720000000  0.5547140000000 1.0
C      1  0.4656170000000  0.4685520000000  0.4437410000000 1.0
C      1  0.4560180000000  0.5115400000000  0.5562120000000 1.0
C      1  0.4918070000000  0.5455640000000  0.4419200000000 1.0
C      1  0.5362090000000  0.5338290000000  0.5554510000000 1.0
C      1  0.5330180000000  0.5350470000000  0.4861280000000 1.0
C      1  0.5493770000000  0.4905340000000  0.5128300000000 1.0
C      1  0.5170900000000  0.4504560000000  0.4889790000000 1.0
C      1  0.4681740000000  0.4645560000000  0.5129600000000 1.0
C      1  0.4471700000000  0.5081810000000  0.4891580000000 1.0
C      1  0.4806540000000  0.5522530000000  0.5077680000000 1.0
C      1  0.4852810000000  0.5122430000000  0.4351880000000 1.0
C      1  0.5107920000000  0.5200440000000  0.5636560000000 1.0
C      1  0.5241570000000  0.5025550000000  0.4354140000000 1.0
C      1  0.5122800000000  0.4903160000000  0.5660460000000 1.0
C      1  0.4910790000000  0.4841770000000  0.4342530000000 1.0
C      1  0.4781900000000  0.4935260000000  0.5638760000000 1.0
C      1  0.5526510000000  0.4591420000000  0.5524300000000 1.0
C      1  0.4915120000000  0.4345180000000  0.4491670000000 1.0
C      1  0.4380000000000  0.4728840000000  0.5517680000000 1.0
C      1  0.4451170000000  0.5408930000000  0.4482430000000 1.0
C      1  0.5073930000000  0.5657510000000  0.5503370000000 1.0
C      1  0.5615040000000  0.5254120000000  0.4493250000000 1.0
C      1  0.4738070000000  0.4424170000000  0.4939580000000 1.0
C      1  0.4344060000000  0.4898100000000  0.5074830000000 1.0
C      1  0.4529640000000  0.5522300000000  0.4935610000000 1.0
C      1  0.5282800000000  0.5570430000000  0.5055330000000 1.0
C      1  0.5636440000000  0.5080180000000  0.4937400000000 1.0
C      1  0.5406660000000  0.4482000000000  0.5062620000000 1.0
C      1  0.5052090000000  0.5658590000000  0.4871990000000 1.0
C      1  0.5591530000000  0.5316550000000  0.5155640000000 1.0
C      1  0.5564320000000  0.4632950000000  0.4843270000000 1.0
C      1  0.4931200000000  0.4330710000000  0.5143430000000 1.0
C      1  0.4399590000000  0.4693130000000  0.4852030000000 1.0
C      1  0.4439040000000  0.5374460000000  0.5173550000000 1.0
C      1  0.5296700000000  0.4753680000000  0.4800210000000 1.0
C      1  0.4947350000000  0.4622950000000  0.5197690000000 1.0
C      1  0.4626800000000  0.4873760000000  0.4800200000000 1.0
C      1  0.4704190000000  0.5259190000000  0.5186090000000 1.0
C      1  0.5070250000000  0.5372850000000  0.4799430000000 1.0
C      1  0.5357340000000  0.5140070000000  0.5199420000000 1.0
C      1  0.5556370000000  0.4604100000000  0.4541780000000 1.0
C      1  0.4930960000000  0.4335160000000  0.5458750000000 1.0
C      1  0.4376370000000  0.4734510000000  0.4537030000000 1.0
C      1  0.4450400000000  0.5378610000000  0.5469970000000 1.0
C      1  0.5077720000000  0.5665320000000  0.4545890000000 1.0
C      1  0.5625760000000  0.5265040000000  0.5452440000000 1.0
C      1  0.4925640000000  0.5150280000000  0.4781670000000 1.0
C      1  0.5075040000000  0.5108660000000  0.5223750000000 1.0
C      1  0.5172400000000  0.5001830000000  0.4783040000000 1.0
C      1  0.5123260000000  0.4831940000000  0.5215450000000 1.0
C      1  0.4903380000000  0.4872250000000  0.4780520000000 1.0
C      1  0.4804890000000  0.5008860000000  0.5207210000000 1.0
C      1  0.4840900000000  0.5698680000000  0.5323730000000 1.0
C      1  0.5538240000000  0.5468780000000  0.4676110000000 1.0
C      1  0.5673220000000  0.4764520000000  0.5325570000000 1.0
C      1  0.5140270000000  0.4291320000000  0.4677820000000 1.0
C      1  0.4467560000000  0.4534290000000  0.5314690000000 1.0
C      1  0.4386220000000  0.5332050000000  0.4760690000000 1.0
C      1  0.4554530000000  0.5153100000000  0.4355030000000 1.0
C      1  0.4921080000000  0.5441070000000  0.5638070000000 1.0
C      1  0.5357740000000  0.5291410000000  0.4343410000000 1.0
C      1  0.5411330000000  0.4843990000000  0.5640820000000 1.0
C      1  0.5086690000000  0.4547920000000  0.4366650000000 1.0
C      1  0.4643500000000  0.4682010000000  0.5661010000000 1.0
C      1  0.5321120000000  0.4450920000000  0.5365070000000 1.0
C      1  0.4681800000000  0.4469430000000  0.4641330000000 1.0
C      1  0.4370080000000  0.4982820000000  0.5375290000000 1.0
C      1  0.4697890000000  0.5536970000000  0.4555830000000 1.0
C      1  0.5305990000000  0.5547730000000  0.5353530000000 1.0
C      1  0.5636790000000  0.4998350000000  0.4650400000000 1.0
C      1  0.5326240000000  0.4419950000000  0.4483050000000 1.0
C      1  0.4651350000000  0.4415130000000  0.5510870000000 1.0
C      1  0.4356410000000  0.5015900000000  0.4500110000000 1.0
C      1  0.4670370000000  0.5570080000000  0.5525930000000 1.0
C      1  0.5345540000000  0.5572790000000  0.4479420000000 1.0
C      1  0.5665030000000  0.4984760000000  0.5515210000000 1.0
END
