TITL C-2441169-1362-781 0.00260960969471589 125000 -10956.2889740969 0 0 73 (C1) n - 1
REM
REM in /home/bkarasulu/work/CARBON/AIRSS/Generating-Clusters/ReaxFF-fromJPCA2015/Units_Real/with-SteepDescent/Higher-Symm
REM
REM
REM
REM
REM
REM ./C.cell (1df0a924f5614ab8850e4351716899ee)
REM
REM compiler GCC version 9.2.1 20190827 (Red Hat 9.2.1-1)
REM options -cpp -mtune=generic -march=x86-64 -g -O0 -fpre-include=/usr/include/finclude/math-vector-fortran.h
REM seed -319753364 364219259 -1331874917 252747336 -1530130716 -697894406 336195732 1679886259 2136664732 -1723707049 1870195130 -248013156 1795832169 -1887443194 2066145583 318580374 -602577789 4773286 1026123597 -789129653 1916925945 -936953807 369216 -1514060943 2143799705 375203964 -246784835 -739524186 1749552239 1347855960 1471443174 -1740687235 -19233604
REM
CELL 1.54180   50.00000   50.00000   50.00000   90.00000   90.00000   90.00000
LATT -1
SFAC C  
C      1  0.4733380000000  0.5161690000000  0.5647750000000 1.0
C      1  0.4971630000000  0.5314440000000  0.5650090000000 1.0
C      1  0.5238780000000  0.5225290000000  0.5641960000000 1.0
C      1  0.5333860000000  0.4960820000000  0.5636550000000 1.0
C      1  0.5185830000000  0.4721470000000  0.5639690000000 1.0
C      1  0.4907350000000  0.4685600000000  0.5644760000000 1.0
C      1  0.4705040000000  0.4880740000000  0.5646200000000 1.0
C      1  0.4666430000000  0.5530690000000  0.5395010000000 1.0
C      1  0.5218660000000  0.5600880000000  0.5386560000000 1.0
C      1  0.5618280000000  0.5212540000000  0.5376560000000 1.0
C      1  0.5558870000000  0.4656310000000  0.5382840000000 1.0
C      1  0.5089360000000  0.4354230000000  0.5390250000000 1.0
C      1  0.4562360000000  0.4529670000000  0.5386910000000 1.0
C      1  0.4372240000000  0.5053500000000  0.5383560000000 1.0
C      1  0.5566160000000  0.4358420000000  0.5077730000000 1.0
C      1  0.4854860000000  0.4167890000000  0.5046880000000 1.0
C      1  0.4268280000000  0.4592610000000  0.5047160000000 1.0
C      1  0.4236090000000  0.5321210000000  0.5080520000000 1.0
C      1  0.4805130000000  0.5800880000000  0.5056030000000 1.0
C      1  0.5512280000000  0.5662160000000  0.5038860000000 1.0
C      1  0.5859870000000  0.5025420000000  0.5078660000000 1.0
C      1  0.4487250000000  0.4797860000000  0.5481810000000 1.0
C      1  0.4535120000000  0.5282490000000  0.5482930000000 1.0
C      1  0.4945710000000  0.5547730000000  0.5488250000000 1.0
C      1  0.5402050000000  0.5391650000000  0.5477750000000 1.0
C      1  0.5565760000000  0.4937520000000  0.5473460000000 1.0
C      1  0.5311820000000  0.4522600000000  0.5479780000000 1.0
C      1  0.4832020000000  0.4461770000000  0.5484610000000 1.0
C      1  0.5224210000000  0.4803880000000  0.4922540000000 1.0
C      1  0.4983690000000  0.4628940000000  0.4960030000000 1.0
C      1  0.4718380000000  0.4733430000000  0.4931830000000 1.0
C      1  0.4626150000000  0.4992490000000  0.4969050000000 1.0
C      1  0.4935630000000  0.5371390000000  0.4968340000000 1.0
C      1  0.5207410000000  0.5332550000000  0.4922430000000 1.0
C      1  0.5351820000000  0.5086290000000  0.4983900000000 1.0
C      1  0.4575160000000  0.5700850000000  0.5174060000000 1.0
C      1  0.5292440000000  0.5777110000000  0.5162450000000 1.0
C      1  0.5808900000000  0.5284150000000  0.5164840000000 1.0
C      1  0.5739910000000  0.4550170000000  0.5175930000000 1.0
C      1  0.5103910000000  0.4163880000000  0.5167950000000 1.0
C      1  0.4423080000000  0.4396130000000  0.5164960000000 1.0
C      1  0.4171270000000  0.5066510000000  0.5169470000000 1.0
C      1  0.5563140000000  0.5395240000000  0.4725960000000 1.0
C      1  0.5663300000000  0.4829980000000  0.4754890000000 1.0
C      1  0.5300590000000  0.4381660000000  0.4748950000000 1.0
C      1  0.4695580000000  0.4370580000000  0.4725370000000 1.0
C      1  0.4327940000000  0.4844490000000  0.4724060000000 1.0
C      1  0.4500710000000  0.5416660000000  0.4768640000000 1.0
C      1  0.5034370000000  0.5691740000000  0.4726540000000 1.0
C      1  0.4992760000000  0.4645840000000  0.4457580000000 1.0
C      1  0.4747240000000  0.4790260000000  0.4449500000000 1.0
C      1  0.4678950000000  0.5068420000000  0.4463780000000 1.0
C      1  0.4832130000000  0.5311990000000  0.4454170000000 1.0
C      1  0.5109970000000  0.5355480000000  0.4414920000000 1.0
C      1  0.5347830000000  0.4932200000000  0.4253590000000 1.0
C      1  0.5270080000000  0.4714750000000  0.4412590000000 1.0
C      1  0.4786050000000  0.5495820000000  0.4713220000000 1.0
C      1  0.5261800000000  0.5494370000000  0.4665470000000 1.0
C      1  0.5551630000000  0.5104850000000  0.4770680000000 1.0
C      1  0.5423060000000  0.4647450000000  0.4693670000000 1.0
C      1  0.4993830000000  0.4445830000000  0.4698900000000 1.0
C      1  0.4569370000000  0.4644350000000  0.4671870000000 1.0
C      1  0.4482810000000  0.5107810000000  0.4707730000000 1.0
C      1  0.5842330000000  0.4766480000000  0.4975270000000 1.0
C      1  0.5351340000000  0.4213030000000  0.4976010000000 1.0
C      1  0.4601720000000  0.4232860000000  0.4960410000000 1.0
C      1  0.4160220000000  0.4829070000000  0.4959930000000 1.0
C      1  0.4372560000000  0.5547610000000  0.4986460000000 1.0
C      1  0.5059450000000  0.5855040000000  0.4965560000000 1.0
C      1  0.5714560000000  0.5498440000000  0.4951800000000 1.0
C      1  0.5180980000000  0.5112170000000  0.4314660000000 1.0
C      1  0.4868480000000  0.5110050000000  0.5042700000000 1.0
C      1  0.5006900000000  0.4997260000000  0.4787040000000 1.0
END
