TITL C-2441154-10-755 0.0638525611532452 125000 -16296.2068353857 0 0 125 (C1) n - 1
REM
REM in /home/bkarasulu/work/CARBON/AIRSS/Generating-Clusters/ReaxFF-fromJPCA2015/Units_Real/with-SteepDescent/Higher-Symm
REM
REM
REM
REM
REM
REM ./C.cell (1df0a924f5614ab8850e4351716899ee)
REM
REM compiler GCC version 9.2.1 20190827 (Red Hat 9.2.1-1)
REM options -cpp -mtune=generic -march=x86-64 -g -O0 -fpre-include=/usr/include/finclude/math-vector-fortran.h
REM seed -1735888002 -104432843 -2122831073 1586427413 -1052874559 -2012301785 1460881889 918682966 -1879183331 505902440 -2009616678 1331193594 1104079193 -781794560 -2096485879 5270180 -748539454 682471779 -1262727658 -1216277526 1445976016 -2026387188 1366673719 356118826 382198095 -673207586 111946075 1719995802 671337093 174338918 -244793591 -1960797359 -994296334
REM
CELL 1.54180   50.00000   50.00000   50.00000   90.00000   90.00000   90.00000
LATT -1
SFAC C  
C      1  0.5254590000000  0.5809690000000  0.4886550000000 1.0
C      1  0.5813240000000  0.5324590000000  0.4888010000000 1.0
C      1  0.5708020000000  0.4584450000000  0.4824900000000 1.0
C      1  0.5118340000000  0.4134680000000  0.4910230000000 1.0
C      1  0.4442780000000  0.4342720000000  0.4881010000000 1.0
C      1  0.4173350000000  0.5005420000000  0.4855230000000 1.0
C      1  0.4531950000000  0.5744890000000  0.4861210000000 1.0
C      1  0.5031730000000  0.6009090000000  0.5285340000000 1.0
C      1  0.5828830000000  0.5630790000000  0.5327750000000 1.0
C      1  0.5991950000000  0.4776200000000  0.5281150000000 1.0
C      1  0.5426470000000  0.4056420000000  0.5320310000000 1.0
C      1  0.4597990000000  0.4076970000000  0.5284450000000 1.0
C      1  0.4002700000000  0.4788160000000  0.5285220000000 1.0
C      1  0.4190040000000  0.5643000000000  0.5283870000000 1.0
C      1  0.4309260000000  0.5058380000000  0.5599940000000 1.0
C      1  0.4578840000000  0.5563620000000  0.5630750000000 1.0
C      1  0.5195770000000  0.5672450000000  0.5626480000000 1.0
C      1  0.5637650000000  0.5256940000000  0.5618140000000 1.0
C      1  0.5608760000000  0.4668730000000  0.5620240000000 1.0
C      1  0.5120120000000  0.4341630000000  0.5641030000000 1.0
C      1  0.4567410000000  0.4468000000000  0.5623970000000 1.0
C      1  0.5352840000000  0.4207240000000  0.4735410000000 1.0
C      1  0.4663330000000  0.4215280000000  0.4727580000000 1.0
C      1  0.4235320000000  0.4751170000000  0.4693180000000 1.0
C      1  0.4437800000000  0.5623000000000  0.4613960000000 1.0
C      1  0.5005290000000  0.5868660000000  0.4720180000000 1.0
C      1  0.5693460000000  0.5556980000000  0.4744050000000 1.0
C      1  0.5778540000000  0.4844210000000  0.4663450000000 1.0
C      1  0.4918700000000  0.4694910000000  0.5349490000000 1.0
C      1  0.4681270000000  0.4842070000000  0.5399770000000 1.0
C      1  0.4802320000000  0.5098800000000  0.5474140000000 1.0
C      1  0.4958050000000  0.5340270000000  0.5433470000000 1.0
C      1  0.5226340000000  0.5262580000000  0.5419850000000 1.0
C      1  0.5276380000000  0.4995660000000  0.5320170000000 1.0
C      1  0.5176250000000  0.4756430000000  0.5454340000000 1.0
C      1  0.5584060000000  0.4543040000000  0.4461140000000 1.0
C      1  0.5089000000000  0.4313800000000  0.4422750000000 1.0
C      1  0.4617800000000  0.4516290000000  0.4354600000000 1.0
C      1  0.4285120000000  0.5189860000000  0.4451620000000 1.0
C      1  0.4673570000000  0.5537870000000  0.4453220000000 1.0
C      1  0.5280420000000  0.5570000000000  0.4486940000000 1.0
C      1  0.5620670000000  0.5242540000000  0.4358360000000 1.0
C      1  0.4838660000000  0.4454290000000  0.5715340000000 1.0
C      1  0.4425260000000  0.4783630000000  0.5639920000000 1.0
C      1  0.4464900000000  0.5311830000000  0.5707510000000 1.0
C      1  0.4914200000000  0.5547970000000  0.5660150000000 1.0
C      1  0.5382680000000  0.5426730000000  0.5672270000000 1.0
C      1  0.5616590000000  0.4960720000000  0.5696070000000 1.0
C      1  0.5379670000000  0.4472200000000  0.5699610000000 1.0
C      1  0.5139920000000  0.5377500000000  0.4970170000000 1.0
C      1  0.5377020000000  0.5211440000000  0.4976300000000 1.0
C      1  0.5331770000000  0.4750910000000  0.4973520000000 1.0
C      1  0.5088550000000  0.4594950000000  0.4994500000000 1.0
C      1  0.4738570000000  0.4699600000000  0.5026960000000 1.0
C      1  0.4597160000000  0.5088500000000  0.4970940000000 1.0
C      1  0.4744110000000  0.5340650000000  0.4962550000000 1.0
C      1  0.5175260000000  0.4339450000000  0.5102460000000 1.0
C      1  0.4609680000000  0.4454770000000  0.5091370000000 1.0
C      1  0.4348880000000  0.4986720000000  0.5088750000000 1.0
C      1  0.4546300000000  0.5529400000000  0.5062820000000 1.0
C      1  0.5133950000000  0.5639370000000  0.5088310000000 1.0
C      1  0.5619700000000  0.5311420000000  0.5107520000000 1.0
C      1  0.5600780000000  0.4716110000000  0.5071720000000 1.0
C      1  0.4345510000000  0.4965770000000  0.4310810000000 1.0
C      1  0.4686590000000  0.5352430000000  0.4190300000000 1.0
C      1  0.5085600000000  0.5638760000000  0.4282540000000 1.0
C      1  0.5429270000000  0.5297810000000  0.4150020000000 1.0
C      1  0.5472100000000  0.4850390000000  0.4210640000000 1.0
C      1  0.5119580000000  0.4582840000000  0.4325210000000 1.0
C      1  0.4740450000000  0.4605290000000  0.4105310000000 1.0
C      1  0.4888340000000  0.5792830000000  0.5170480000000 1.0
C      1  0.5588940000000  0.5607090000000  0.5177630000000 1.0
C      1  0.5802480000000  0.4938210000000  0.5136180000000 1.0
C      1  0.5461370000000  0.4300700000000  0.5174940000000 1.0
C      1  0.4775620000000  0.4245260000000  0.5166210000000 1.0
C      1  0.4239450000000  0.4708650000000  0.5159670000000 1.0
C      1  0.4274020000000  0.5427250000000  0.5123120000000 1.0
C      1  0.5387540000000  0.4326530000000  0.4473630000000 1.0
C      1  0.4793400000000  0.4324180000000  0.4496250000000 1.0
C      1  0.4418230000000  0.4710150000000  0.4466330000000 1.0
C      1  0.4228510000000  0.5413430000000  0.4612110000000 1.0
C      1  0.4906520000000  0.5762000000000  0.4467400000000 1.0
C      1  0.5568380000000  0.5501210000000  0.4486850000000 1.0
C      1  0.5652040000000  0.4955250000000  0.4420870000000 1.0
C      1  0.5342060000000  0.5115340000000  0.4701450000000 1.0
C      1  0.5285550000000  0.4820100000000  0.4694450000000 1.0
C      1  0.5028910000000  0.4653720000000  0.4702290000000 1.0
C      1  0.4742910000000  0.4724250000000  0.4725370000000 1.0
C      1  0.4697890000000  0.5024660000000  0.4703020000000 1.0
C      1  0.4822580000000  0.5350730000000  0.4664420000000 1.0
C      1  0.5138570000000  0.5365300000000  0.4669410000000 1.0
C      1  0.4850190000000  0.4701480000000  0.5871830000000 1.0
C      1  0.4630430000000  0.4898270000000  0.5806780000000 1.0
C      1  0.4677120000000  0.5183750000000  0.5858140000000 1.0
C      1  0.4947740000000  0.5345910000000  0.5886650000000 1.0
C      1  0.5228250000000  0.5256950000000  0.5866670000000 1.0
C      1  0.5365620000000  0.4973420000000  0.5824210000000 1.0
C      1  0.5221940000000  0.4710950000000  0.5740840000000 1.0
C      1  0.5165950000000  0.5885710000000  0.5458090000000 1.0
C      1  0.5800930000000  0.5431450000000  0.5482850000000 1.0
C      1  0.5835220000000  0.4675500000000  0.5462030000000 1.0
C      1  0.5241080000000  0.4138390000000  0.5491810000000 1.0
C      1  0.4522930000000  0.4243950000000  0.5471520000000 1.0
C      1  0.4097280000000  0.4969000000000  0.5451780000000 1.0
C      1  0.4381390000000  0.5652740000000  0.5463510000000 1.0
C      1  0.5348000000000  0.5041630000000  0.4031090000000 1.0
C      1  0.5296890000000  0.4641560000000  0.4113150000000 1.0
C      1  0.5025720000000  0.4525250000000  0.4072060000000 1.0
C      1  0.4718310000000  0.4884180000000  0.4033330000000 1.0
C      1  0.4548820000000  0.5102910000000  0.4126410000000 1.0
C      1  0.4951910000000  0.5422530000000  0.4113360000000 1.0
C      1  0.5180320000000  0.5277030000000  0.4007610000000 1.0
C      1  0.5867630000000  0.5040030000000  0.4858180000000 1.0
C      1  0.5571200000000  0.4332690000000  0.4895490000000 1.0
C      1  0.4827710000000  0.4087360000000  0.4941420000000 1.0
C      1  0.4242630000000  0.4553090000000  0.4899750000000 1.0
C      1  0.4150830000000  0.5290020000000  0.4875510000000 1.0
C      1  0.4783710000000  0.5887400000000  0.4905820000000 1.0
C      1  0.5535550000000  0.5736650000000  0.4910960000000 1.0
C      1  0.5052160000000  0.5026620000000  0.4461860000000 1.0
C      1  0.4982610000000  0.5015690000000  0.5677290000000 1.0
C      1  0.5056800000000  0.5010680000000  0.5130430000000 1.0
C      1  0.4976610000000  0.5028350000000  0.4852890000000 1.0
C      1  0.4964350000000  0.4967050000000  0.4203710000000 1.0
C      1  0.4993530000000  0.4945730000000  0.5966160000000 1.0
END
