TITL C-2441156-4686-1051 0.155621792443893 125000 -24463.3574175694 0 0 187 (C1) n - 1
REM
REM in /home/bkarasulu/work/CARBON/AIRSS/Generating-Clusters/ReaxFF-fromJPCA2015/Units_Real/with-SteepDescent/Higher-Symm
REM
REM
REM
REM
REM
REM ./C.cell (1df0a924f5614ab8850e4351716899ee)
REM
REM compiler GCC version 9.2.1 20190827 (Red Hat 9.2.1-1)
REM options -cpp -mtune=generic -march=x86-64 -g -O0 -fpre-include=/usr/include/finclude/math-vector-fortran.h
REM seed 1544591570 1718419368 1896802842 819264190 -1123399681 -1231193124 1516953096 1679125674 -1200946831 -690674386 1877599698 -2012530521 1986434761 596841450 1115417806 -1872023264 1014173778 81700889 -151673072 -360529257 -592324585 478420250 -1299714147 -1474889156 -671676587 1886810035 854583124 1286287429 -215506681 -764862661 1138877678 1148314070 98849783
REM
CELL 1.54180   50.00000   50.00000   50.00000   90.00000   90.00000   90.00000
LATT -1
SFAC C  
C      1  0.5648330000000  0.5072040000000  0.5885150000000 1.0
C      1  0.5617100000000  0.4548550000000  0.5821630000000 1.0
C      1  0.5651450000000  0.4178390000000  0.5467990000000 1.0
C      1  0.5556400000000  0.4044210000000  0.4966300000000 1.0
C      1  0.5554910000000  0.4221940000000  0.4454840000000 1.0
C      1  0.5639570000000  0.4619130000000  0.4175040000000 1.0
C      1  0.5570350000000  0.5168140000000  0.4085290000000 1.0
C      1  0.5553230000000  0.5684610000000  0.4294180000000 1.0
C      1  0.5654120000000  0.5921640000000  0.4742130000000 1.0
C      1  0.5560320000000  0.5905160000000  0.5295850000000 1.0
C      1  0.5576400000000  0.5586280000000  0.5761070000000 1.0
C      1  0.5102080000000  0.5276790000000  0.5337360000000 1.0
C      1  0.5109350000000  0.5083180000000  0.5518050000000 1.0
C      1  0.5189030000000  0.4841130000000  0.5415210000000 1.0
C      1  0.5098280000000  0.4704560000000  0.5197130000000 1.0
C      1  0.5203250000000  0.4569190000000  0.4979680000000 1.0
C      1  0.5263400000000  0.4737370000000  0.4778440000000 1.0
C      1  0.5074300000000  0.4842930000000  0.4634570000000 1.0
C      1  0.5130890000000  0.5092670000000  0.4543760000000 1.0
C      1  0.5155740000000  0.5341250000000  0.4673260000000 1.0
C      1  0.5185260000000  0.5464470000000  0.4928550000000 1.0
C      1  0.5293180000000  0.5336820000000  0.5160880000000 1.0
C      1  0.5104170000000  0.5086390000000  0.5998120000000 1.0
C      1  0.5133640000000  0.4528280000000  0.5908010000000 1.0
C      1  0.5117970000000  0.4130160000000  0.5500340000000 1.0
C      1  0.5130470000000  0.3980440000000  0.4952120000000 1.0
C      1  0.5106890000000  0.4153390000000  0.4415870000000 1.0
C      1  0.5093690000000  0.4631730000000  0.4141880000000 1.0
C      1  0.5140950000000  0.5195520000000  0.3998860000000 1.0
C      1  0.5124410000000  0.5715080000000  0.4245890000000 1.0
C      1  0.5127210000000  0.5984760000000  0.4754430000000 1.0
C      1  0.5108170000000  0.5913340000000  0.5310560000000 1.0
C      1  0.5150380000000  0.5616050000000  0.5803100000000 1.0
C      1  0.4775920000000  0.5401410000000  0.5850320000000 1.0
C      1  0.4721910000000  0.4864940000000  0.6025710000000 1.0
C      1  0.4773910000000  0.4377320000000  0.5746570000000 1.0
C      1  0.4729490000000  0.4027870000000  0.5291050000000 1.0
C      1  0.4767350000000  0.4029270000000  0.4720980000000 1.0
C      1  0.4725330000000  0.4313410000000  0.4227800000000 1.0
C      1  0.4765010000000  0.4861080000000  0.4015870000000 1.0
C      1  0.4744220000000  0.5423080000000  0.4077190000000 1.0
C      1  0.4781100000000  0.5769380000000  0.4477780000000 1.0
C      1  0.4718020000000  0.6047710000000  0.4997390000000 1.0
C      1  0.4750630000000  0.5842230000000  0.5553810000000 1.0
C      1  0.4232140000000  0.4928190000000  0.5908700000000 1.0
C      1  0.4259120000000  0.4451790000000  0.5726580000000 1.0
C      1  0.4256320000000  0.4153530000000  0.5302700000000 1.0
C      1  0.4304020000000  0.4111820000000  0.4781330000000 1.0
C      1  0.4236100000000  0.4374330000000  0.4352520000000 1.0
C      1  0.4263750000000  0.4809490000000  0.4110540000000 1.0
C      1  0.4259350000000  0.5309470000000  0.4150580000000 1.0
C      1  0.4255670000000  0.5721880000000  0.4464180000000 1.0
C      1  0.4242740000000  0.5882030000000  0.4944810000000 1.0
C      1  0.4273640000000  0.5799010000000  0.5440240000000 1.0
C      1  0.4295700000000  0.5426780000000  0.5811220000000 1.0
C      1  0.4645790000000  0.6081600000000  0.5247260000000 1.0
C      1  0.4668520000000  0.5789240000000  0.5817390000000 1.0
C      1  0.4594420000000  0.5261330000000  0.6053050000000 1.0
C      1  0.4649780000000  0.4596670000000  0.6053310000000 1.0
C      1  0.4650660000000  0.4126910000000  0.5666050000000 1.0
C      1  0.4653090000000  0.3889760000000  0.5083480000000 1.0
C      1  0.4591160000000  0.4031180000000  0.4489820000000 1.0
C      1  0.4639090000000  0.4476880000000  0.4014290000000 1.0
C      1  0.4652150000000  0.5081930000000  0.3880770000000 1.0
C      1  0.4622350000000  0.5672160000000  0.4128380000000 1.0
C      1  0.4665200000000  0.5992820000000  0.4604010000000 1.0
C      1  0.5221950000000  0.4356790000000  0.4241660000000 1.0
C      1  0.5240590000000  0.4919760000000  0.4044610000000 1.0
C      1  0.5241060000000  0.5454390000000  0.4122920000000 1.0
C      1  0.5221000000000  0.5847330000000  0.4503160000000 1.0
C      1  0.5246750000000  0.5990310000000  0.5020280000000 1.0
C      1  0.5254310000000  0.5786750000000  0.5580780000000 1.0
C      1  0.5232960000000  0.5335930000000  0.5900220000000 1.0
C      1  0.5228340000000  0.4807190000000  0.5956170000000 1.0
C      1  0.5227660000000  0.4319360000000  0.5704720000000 1.0
C      1  0.5224040000000  0.4065820000000  0.5229900000000 1.0
C      1  0.5229830000000  0.4068800000000  0.4680910000000 1.0
C      1  0.4923280000000  0.4506710000000  0.5303200000000 1.0
C      1  0.4951860000000  0.4422740000000  0.4902730000000 1.0
C      1  0.4908220000000  0.4482160000000  0.4619240000000 1.0
C      1  0.4998860000000  0.4670020000000  0.4423880000000 1.0
C      1  0.4913290000000  0.5190330000000  0.4389230000000 1.0
C      1  0.4957890000000  0.5453540000000  0.4500050000000 1.0
C      1  0.4918420000000  0.5581950000000  0.4938670000000 1.0
C      1  0.4957650000000  0.5679020000000  0.5204470000000 1.0
C      1  0.4905440000000  0.5451730000000  0.5365520000000 1.0
C      1  0.4857170000000  0.5129280000000  0.5665020000000 1.0
C      1  0.4888650000000  0.4635530000000  0.5565820000000 1.0
C      1  0.6014590000000  0.4367510000000  0.5052700000000 1.0
C      1  0.6018340000000  0.4493700000000  0.4550170000000 1.0
C      1  0.6030080000000  0.4730540000000  0.4393180000000 1.0
C      1  0.6040980000000  0.5186950000000  0.4409980000000 1.0
C      1  0.6065390000000  0.5421640000000  0.4571970000000 1.0
C      1  0.6011470000000  0.5597670000000  0.4785290000000 1.0
C      1  0.6030890000000  0.5532050000000  0.5284650000000 1.0
C      1  0.5978080000000  0.5396820000000  0.5543890000000 1.0
C      1  0.6050240000000  0.4996580000000  0.5535360000000 1.0
C      1  0.6113510000000  0.4728780000000  0.5446360000000 1.0
C      1  0.6038000000000  0.4501630000000  0.5296890000000 1.0
C      1  0.4547130000000  0.5214710000000  0.4128900000000 1.0
C      1  0.4537640000000  0.5623480000000  0.4418710000000 1.0
C      1  0.4516200000000  0.5932390000000  0.4845690000000 1.0
C      1  0.4554990000000  0.5808590000000  0.5336990000000 1.0
C      1  0.4548340000000  0.5544490000000  0.5752480000000 1.0
C      1  0.4511650000000  0.5016050000000  0.5917330000000 1.0
C      1  0.4533500000000  0.4549110000000  0.5785560000000 1.0
C      1  0.4540990000000  0.4210600000000  0.5389630000000 1.0
C      1  0.4570320000000  0.4114820000000  0.4910480000000 1.0
C      1  0.4521710000000  0.4323040000000  0.4432010000000 1.0
C      1  0.4548260000000  0.4726470000000  0.4166550000000 1.0
C      1  0.5624320000000  0.4961310000000  0.4542030000000 1.0
C      1  0.5582620000000  0.5243070000000  0.4557130000000 1.0
C      1  0.5550360000000  0.5454020000000  0.4754980000000 1.0
C      1  0.5645270000000  0.5472840000000  0.5023850000000 1.0
C      1  0.5561260000000  0.5390220000000  0.5296360000000 1.0
C      1  0.5604970000000  0.5142640000000  0.5429950000000 1.0
C      1  0.5450770000000  0.4911090000000  0.5392810000000 1.0
C      1  0.5594440000000  0.4672530000000  0.5332470000000 1.0
C      1  0.5540170000000  0.4504590000000  0.5106070000000 1.0
C      1  0.5655740000000  0.4565140000000  0.4850740000000 1.0
C      1  0.5513640000000  0.4737450000000  0.4686920000000 1.0
C      1  0.4865920000000  0.3990020000000  0.5529910000000 1.0
C      1  0.4882090000000  0.3836850000000  0.4911790000000 1.0
C      1  0.4840020000000  0.4067060000000  0.4323210000000 1.0
C      1  0.4877110000000  0.4610640000000  0.3937060000000 1.0
C      1  0.4877590000000  0.5258290000000  0.3882610000000 1.0
C      1  0.4857660000000  0.5816770000000  0.4198060000000 1.0
C      1  0.4868840000000  0.6125610000000  0.4762360000000 1.0
C      1  0.4875990000000  0.6068020000000  0.5421000000000 1.0
C      1  0.4901320000000  0.5668720000000  0.5932600000000 1.0
C      1  0.4840080000000  0.5105170000000  0.6136380000000 1.0
C      1  0.4883050000000  0.4435080000000  0.6014320000000 1.0
C      1  0.4635710000000  0.5106330000000  0.4465280000000 1.0
C      1  0.4546010000000  0.5346950000000  0.4628830000000 1.0
C      1  0.4667690000000  0.5442010000000  0.4884480000000 1.0
C      1  0.4529970000000  0.5485670000000  0.5140920000000 1.0
C      1  0.4657640000000  0.5299550000000  0.5331490000000 1.0
C      1  0.4636350000000  0.5051960000000  0.5498580000000 1.0
C      1  0.4627610000000  0.4747460000000  0.5495320000000 1.0
C      1  0.4621710000000  0.4511530000000  0.5253420000000 1.0
C      1  0.4662320000000  0.4442190000000  0.4966000000000 1.0
C      1  0.4623000000000  0.4563280000000  0.4650390000000 1.0
C      1  0.4547470000000  0.4811770000000  0.4507550000000 1.0
C      1  0.4163800000000  0.5168780000000  0.5765880000000 1.0
C      1  0.4150480000000  0.4717710000000  0.5724790000000 1.0
C      1  0.4159010000000  0.4369300000000  0.5464570000000 1.0
C      1  0.4184150000000  0.4207560000000  0.5029650000000 1.0
C      1  0.4166640000000  0.4320070000000  0.4625860000000 1.0
C      1  0.4151960000000  0.4642990000000  0.4310110000000 1.0
C      1  0.4140660000000  0.5051590000000  0.4227660000000 1.0
C      1  0.4163470000000  0.5474790000000  0.4361390000000 1.0
C      1  0.4135420000000  0.5716140000000  0.4733350000000 1.0
C      1  0.4154980000000  0.5747290000000  0.5186580000000 1.0
C      1  0.4166990000000  0.5553980000000  0.5557380000000 1.0
C      1  0.5532570000000  0.5986090000000  0.5021660000000 1.0
C      1  0.5538830000000  0.5823930000000  0.5583150000000 1.0
C      1  0.5525830000000  0.5336710000000  0.5910400000000 1.0
C      1  0.5516590000000  0.4816650000000  0.5922980000000 1.0
C      1  0.5513290000000  0.4301500000000  0.5697380000000 1.0
C      1  0.5515970000000  0.4032150000000  0.5250590000000 1.0
C      1  0.5526490000000  0.4046210000000  0.4678850000000 1.0
C      1  0.5504090000000  0.4381330000000  0.4230160000000 1.0
C      1  0.5523160000000  0.4885180000000  0.4067860000000 1.0
C      1  0.5534330000000  0.5461720000000  0.4102720000000 1.0
C      1  0.5507700000000  0.5901530000000  0.4479390000000 1.0
C      1  0.5888050000000  0.4958550000000  0.4432580000000 1.0
C      1  0.5820450000000  0.5353160000000  0.4428460000000 1.0
C      1  0.5752740000000  0.5662740000000  0.4676580000000 1.0
C      1  0.5887800000000  0.5614130000000  0.5042380000000 1.0
C      1  0.5790480000000  0.5525970000000  0.5416080000000 1.0
C      1  0.5821170000000  0.5155480000000  0.5616860000000 1.0
C      1  0.5936410000000  0.4767570000000  0.5656310000000 1.0
C      1  0.5741650000000  0.4601800000000  0.5568920000000 1.0
C      1  0.5789370000000  0.4330110000000  0.5247960000000 1.0
C      1  0.5904500000000  0.4460410000000  0.4809220000000 1.0
C      1  0.5872660000000  0.4534020000000  0.4297940000000 1.0
C      1  0.4214240000000  0.5295200000000  0.4626850000000 1.0
C      1  0.4106310000000  0.5452210000000  0.4836870000000 1.0
C      1  0.4208800000000  0.5441750000000  0.5106680000000 1.0
C      1  0.4116530000000  0.5347020000000  0.5364320000000 1.0
C      1  0.4136230000000  0.5101530000000  0.5488920000000 1.0
C      1  0.4143500000000  0.4821730000000  0.5455540000000 1.0
C      1  0.4139050000000  0.4597380000000  0.5287530000000 1.0
C      1  0.4148700000000  0.4495700000000  0.5022640000000 1.0
C      1  0.4140140000000  0.4573570000000  0.4755790000000 1.0
C      1  0.4234410000000  0.4798840000000  0.4587280000000 1.0
C      1  0.4121660000000  0.5046940000000  0.4517890000000 1.0
END
