TITL C-2441165-58-268 0.0317434579357592 125000 -7696.9919349999 0 0 60 (C1) n - 1
REM
REM in /home/bkarasulu/work/CARBON/AIRSS/Generating-Clusters/ReaxFF-fromJPCA2015/Units_Real/with-SteepDescent/Higher-Symm
REM
REM
REM
REM
REM
REM ./C.cell (1df0a924f5614ab8850e4351716899ee)
REM
REM compiler GCC version 9.2.1 20190827 (Red Hat 9.2.1-1)
REM options -cpp -mtune=generic -march=x86-64 -g -O0 -fpre-include=/usr/include/finclude/math-vector-fortran.h
REM seed -116016803 1759853452 2087979228 -381510083 -1414990212 -1288255829 -140527556 175569730 1851482384 -1916932818 911213192 1093125731 -2088936076 -466518711 2129936807 1872818380 605909678 -1118699703 1873320979 1719739329 -1016523049 -1076132006 250744365 -1563585796 347204606 -1270627711 203260020 -1886791476 775660120 -696586954 -1285241315 1375372977 -1137119385
REM
CELL 1.54180   50.00000   50.00000   50.00000   90.00000   90.00000   90.00000
LATT -1
SFAC C  
C      1  0.5133910000000  0.5356940000000  0.5382670000000 1.0
C      1  0.4855820000000  0.5360100000000  0.4599760000000 1.0
C      1  0.5081260000000  0.4596790000000  0.5113870000000 1.0
C      1  0.4929160000000  0.4615970000000  0.4883260000000 1.0
C      1  0.5221740000000  0.5223790000000  0.4339210000000 1.0
C      1  0.4761660000000  0.5215430000000  0.5659640000000 1.0
C      1  0.5357630000000  0.5326510000000  0.4573120000000 1.0
C      1  0.4635540000000  0.5317240000000  0.5426380000000 1.0
C      1  0.5027120000000  0.4645120000000  0.4431850000000 1.0
C      1  0.4959040000000  0.4657930000000  0.5555790000000 1.0
C      1  0.4535730000000  0.5546640000000  0.4972600000000 1.0
C      1  0.5467320000000  0.5557120000000  0.5025450000000 1.0
C      1  0.4809860000000  0.5551420000000  0.5003670000000 1.0
C      1  0.5199290000000  0.5516970000000  0.4975080000000 1.0
C      1  0.4220230000000  0.5023450000000  0.5316050000000 1.0
C      1  0.5791450000000  0.5024240000000  0.4677010000000 1.0
C      1  0.4450020000000  0.4871670000000  0.5475710000000 1.0
C      1  0.5544290000000  0.4865540000000  0.4513760000000 1.0
C      1  0.4951310000000  0.5152210000000  0.4418900000000 1.0
C      1  0.5024510000000  0.5130720000000  0.5553210000000 1.0
C      1  0.4536480000000  0.4678630000000  0.4665360000000 1.0
C      1  0.5469640000000  0.4685260000000  0.5337800000000 1.0
C      1  0.5704130000000  0.4709370000000  0.5138500000000 1.0
C      1  0.4300680000000  0.4711050000000  0.4857870000000 1.0
C      1  0.4905640000000  0.5026380000000  0.5060020000000 1.0
C      1  0.5121160000000  0.5095920000000  0.4931170000000 1.0
C      1  0.5367030000000  0.4924450000000  0.5379600000000 1.0
C      1  0.4638790000000  0.4927710000000  0.4628880000000 1.0
C      1  0.5323460000000  0.4641650000000  0.4477560000000 1.0
C      1  0.4661350000000  0.4611300000000  0.5528030000000 1.0
C      1  0.5718240000000  0.5298870000000  0.4827830000000 1.0
C      1  0.4281400000000  0.5295300000000  0.5190340000000 1.0
C      1  0.5154490000000  0.4887130000000  0.4779120000000 1.0
C      1  0.4844190000000  0.4909880000000  0.5298350000000 1.0
C      1  0.4573920000000  0.4878280000000  0.5208760000000 1.0
C      1  0.5446840000000  0.4862990000000  0.4787820000000 1.0
C      1  0.4507690000000  0.5145270000000  0.4727800000000 1.0
C      1  0.5491100000000  0.5149560000000  0.5274880000000 1.0
C      1  0.4426230000000  0.5113740000000  0.4987330000000 1.0
C      1  0.5583500000000  0.5114690000000  0.5006350000000 1.0
C      1  0.5002150000000  0.4451410000000  0.4652980000000 1.0
C      1  0.4991290000000  0.4454850000000  0.5341510000000 1.0
C      1  0.4588870000000  0.5399820000000  0.4709070000000 1.0
C      1  0.5403230000000  0.5408250000000  0.5296710000000 1.0
C      1  0.5344220000000  0.4522850000000  0.5130220000000 1.0
C      1  0.4658110000000  0.4514500000000  0.4891040000000 1.0
C      1  0.5011540000000  0.5547120000000  0.5194940000000 1.0
C      1  0.4993900000000  0.5546010000000  0.4787830000000 1.0
C      1  0.5175040000000  0.4867770000000  0.5554160000000 1.0
C      1  0.4830550000000  0.4875720000000  0.4443700000000 1.0
C      1  0.4478930000000  0.5493450000000  0.5258710000000 1.0
C      1  0.5519450000000  0.5475000000000  0.4753680000000 1.0
C      1  0.4468380000000  0.4613730000000  0.5091880000000 1.0
C      1  0.5527490000000  0.4600200000000  0.4913920000000 1.0
C      1  0.4700090000000  0.4453250000000  0.5294220000000 1.0
C      1  0.5289280000000  0.4456290000000  0.4685400000000 1.0
C      1  0.4502270000000  0.5120010000000  0.5592750000000 1.0
C      1  0.5491020000000  0.5125220000000  0.4407750000000 1.0
C      1  0.5803840000000  0.4925570000000  0.4980490000000 1.0
C      1  0.4207520000000  0.4925760000000  0.5028700000000 1.0
END
