TITL C-2441155-8282-90 0.0893955717317883 125000 -22802.7103148497 0 0 170 (C1) n - 1
REM
REM in /home/bkarasulu/work/CARBON/AIRSS/Generating-Clusters/ReaxFF-fromJPCA2015/Units_Real/with-SteepDescent/Higher-Symm
REM
REM
REM
REM
REM
REM ./C.cell (1df0a924f5614ab8850e4351716899ee)
REM
REM compiler GCC version 9.2.1 20190827 (Red Hat 9.2.1-1)
REM options -cpp -mtune=generic -march=x86-64 -g -O0 -fpre-include=/usr/include/finclude/math-vector-fortran.h
REM seed -1219914381 -1620683724 -617148087 663119755 1620833943 785308969 1722091021 -884657392 1483371094 1138587439 -197014077 -178229504 2134073792 961820525 1109594677 -140316951 1227605229 -1881451355 359571582 956907218 553119205 -182983782 1856331381 -1302101663 2084283839 -1077085613 -447209565 -1802211703 491218444 -927463608 -1439030769 2124526202 1539714031
REM
CELL 1.54180   50.00000   50.00000   50.00000   90.00000   90.00000   90.00000
LATT -1
SFAC C  
C      1  0.4166250000000  0.5575690000000  0.4904400000000 1.0
C      1  0.5102210000000  0.5554540000000  0.4174600000000 1.0
C      1  0.5807420000000  0.5543150000000  0.5099910000000 1.0
C      1  0.4901530000000  0.5555760000000  0.5831180000000 1.0
C      1  0.4187450000000  0.4447390000000  0.4884180000000 1.0
C      1  0.5072760000000  0.4435920000000  0.4170440000000 1.0
C      1  0.5816160000000  0.4451830000000  0.5095670000000 1.0
C      1  0.4888420000000  0.4456840000000  0.5807470000000 1.0
C      1  0.5443530000000  0.5839960000000  0.4459800000000 1.0
C      1  0.5518720000000  0.5828510000000  0.5432040000000 1.0
C      1  0.4578200000000  0.5838050000000  0.5504480000000 1.0
C      1  0.4494970000000  0.5822700000000  0.4579340000000 1.0
C      1  0.5431590000000  0.4184170000000  0.4494300000000 1.0
C      1  0.5528130000000  0.4186790000000  0.5446260000000 1.0
C      1  0.4558780000000  0.4182460000000  0.5513880000000 1.0
C      1  0.4512800000000  0.4182070000000  0.4552670000000 1.0
C      1  0.4467470000000  0.4587030000000  0.5165110000000 1.0
C      1  0.4791500000000  0.4589830000000  0.4493810000000 1.0
C      1  0.5514170000000  0.4561720000000  0.4808480000000 1.0
C      1  0.5182650000000  0.4572650000000  0.5540240000000 1.0
C      1  0.4486560000000  0.5502240000000  0.5230090000000 1.0
C      1  0.4808580000000  0.5420890000000  0.4504120000000 1.0
C      1  0.5514350000000  0.5520480000000  0.4794310000000 1.0
C      1  0.5167220000000  0.5516430000000  0.5487620000000 1.0
C      1  0.5191870000000  0.5329850000000  0.4002240000000 1.0
C      1  0.5981100000000  0.5322680000000  0.5180750000000 1.0
C      1  0.4812750000000  0.5325190000000  0.6001750000000 1.0
C      1  0.4030830000000  0.5344160000000  0.4784090000000 1.0
C      1  0.5198450000000  0.4665230000000  0.4038270000000 1.0
C      1  0.5972360000000  0.4690490000000  0.5191080000000 1.0
C      1  0.4800860000000  0.4688360000000  0.5967610000000 1.0
C      1  0.4028680000000  0.4668420000000  0.4788920000000 1.0
C      1  0.4451870000000  0.4367850000000  0.4771750000000 1.0
C      1  0.5165520000000  0.4291080000000  0.4409040000000 1.0
C      1  0.5566980000000  0.4366570000000  0.5220150000000 1.0
C      1  0.4776330000000  0.4375460000000  0.5544550000000 1.0
C      1  0.4412970000000  0.5725720000000  0.4840340000000 1.0
C      1  0.5229170000000  0.5647380000000  0.4429620000000 1.0
C      1  0.5553400000000  0.5632330000000  0.5219100000000 1.0
C      1  0.4792280000000  0.5653410000000  0.5581730000000 1.0
C      1  0.5534520000000  0.4743740000000  0.4593230000000 1.0
C      1  0.5404060000000  0.4749580000000  0.5546460000000 1.0
C      1  0.4457260000000  0.4748840000000  0.5390720000000 1.0
C      1  0.4552900000000  0.4747330000000  0.4463480000000 1.0
C      1  0.5567740000000  0.5250570000000  0.4694310000000 1.0
C      1  0.5292550000000  0.5255500000000  0.5540680000000 1.0
C      1  0.4449400000000  0.5264870000000  0.5363850000000 1.0
C      1  0.4527360000000  0.5319930000000  0.4459490000000 1.0
C      1  0.5517860000000  0.5157190000000  0.5814300000000 1.0
C      1  0.4211040000000  0.5170040000000  0.5506040000000 1.0
C      1  0.4470860000000  0.5174780000000  0.4198810000000 1.0
C      1  0.5827110000000  0.5168130000000  0.4478060000000 1.0
C      1  0.5514500000000  0.4839080000000  0.5805120000000 1.0
C      1  0.4203490000000  0.4843420000000  0.5515960000000 1.0
C      1  0.4480600000000  0.4861410000000  0.4206080000000 1.0
C      1  0.5799420000000  0.4841280000000  0.4488300000000 1.0
C      1  0.4499850000000  0.4310400000000  0.4293080000000 1.0
C      1  0.5685320000000  0.4315680000000  0.4502650000000 1.0
C      1  0.5495990000000  0.4314210000000  0.5701970000000 1.0
C      1  0.4302130000000  0.4305070000000  0.5489260000000 1.0
C      1  0.4422090000000  0.5618890000000  0.4386560000000 1.0
C      1  0.5702550000000  0.5718180000000  0.4491660000000 1.0
C      1  0.5484420000000  0.5712520000000  0.5693940000000 1.0
C      1  0.4304550000000  0.5732980000000  0.5511280000000 1.0
C      1  0.5817510000000  0.4442350000000  0.4782030000000 1.0
C      1  0.5211690000000  0.4440370000000  0.5825950000000 1.0
C      1  0.4192970000000  0.4447350000000  0.5210010000000 1.0
C      1  0.4764370000000  0.4454820000000  0.4172900000000 1.0
C      1  0.5806840000000  0.5564870000000  0.4785390000000 1.0
C      1  0.5211530000000  0.5560260000000  0.5787150000000 1.0
C      1  0.4186950000000  0.5579540000000  0.5221030000000 1.0
C      1  0.4811430000000  0.5544290000000  0.4221740000000 1.0
C      1  0.5172640000000  0.4755530000000  0.5141750000000 1.0
C      1  0.4879560000000  0.4739500000000  0.5194640000000 1.0
C      1  0.4819280000000  0.4717960000000  0.4902090000000 1.0
C      1  0.5139430000000  0.4758460000000  0.4844720000000 1.0
C      1  0.5162510000000  0.5262480000000  0.5082670000000 1.0
C      1  0.4863720000000  0.5278270000000  0.5172680000000 1.0
C      1  0.4712600000000  0.5286740000000  0.4931260000000 1.0
C      1  0.5158420000000  0.5287030000000  0.4785450000000 1.0
C      1  0.4010370000000  0.5146950000000  0.4534480000000 1.0
C      1  0.5460970000000  0.5133910000000  0.4071020000000 1.0
C      1  0.5914690000000  0.5147540000000  0.5428400000000 1.0
C      1  0.4549990000000  0.5154980000000  0.5961250000000 1.0
C      1  0.4033590000000  0.4845550000000  0.4545720000000 1.0
C      1  0.5458270000000  0.4797890000000  0.4048830000000 1.0
C      1  0.5951930000000  0.4841860000000  0.5446010000000 1.0
C      1  0.4549120000000  0.4853080000000  0.5951160000000 1.0
C      1  0.4995740000000  0.5976100000000  0.5284130000000 1.0
C      1  0.4596170000000  0.5921320000000  0.4975200000000 1.0
C      1  0.5008130000000  0.5983630000000  0.4697320000000 1.0
C      1  0.5308180000000  0.5980270000000  0.4990260000000 1.0
C      1  0.5005260000000  0.4027730000000  0.5309470000000 1.0
C      1  0.4725080000000  0.4045670000000  0.4989920000000 1.0
C      1  0.5028330000000  0.4109140000000  0.4596300000000 1.0
C      1  0.5297510000000  0.4025700000000  0.5009260000000 1.0
C      1  0.5284990000000  0.4697840000000  0.5957200000000 1.0
C      1  0.4058110000000  0.4694720000000  0.5302160000000 1.0
C      1  0.4696420000000  0.4714020000000  0.4053780000000 1.0
C      1  0.5949930000000  0.4701490000000  0.4713980000000 1.0
C      1  0.5286320000000  0.5296890000000  0.5938870000000 1.0
C      1  0.4059220000000  0.5320210000000  0.5293070000000 1.0
C      1  0.4709570000000  0.5315560000000  0.4071090000000 1.0
C      1  0.5957150000000  0.5307770000000  0.4708970000000 1.0
C      1  0.4920210000000  0.5144560000000  0.4522890000000 1.0
C      1  0.5621580000000  0.5079820000000  0.4935840000000 1.0
C      1  0.5068710000000  0.5085380000000  0.5612580000000 1.0
C      1  0.4388580000000  0.5143280000000  0.4960000000000 1.0
C      1  0.4945490000000  0.4882700000000  0.4379580000000 1.0
C      1  0.5591640000000  0.4799140000000  0.4978540000000 1.0
C      1  0.5010420000000  0.4808600000000  0.5602680000000 1.0
C      1  0.4357870000000  0.4832080000000  0.4998910000000 1.0
C      1  0.4439820000000  0.4858880000000  0.4686480000000 1.0
C      1  0.5227130000000  0.4853990000000  0.4393010000000 1.0
C      1  0.5594950000000  0.4858900000000  0.5245070000000 1.0
C      1  0.4745890000000  0.4866280000000  0.5607500000000 1.0
C      1  0.4398890000000  0.5161110000000  0.4673490000000 1.0
C      1  0.5305880000000  0.5115890000000  0.4317960000000 1.0
C      1  0.5636570000000  0.5138820000000  0.5229500000000 1.0
C      1  0.4786590000000  0.5158830000000  0.5641580000000 1.0
C      1  0.5344610000000  0.4887150000000  0.5313900000000 1.0
C      1  0.4683120000000  0.4880260000000  0.5348080000000 1.0
C      1  0.4693140000000  0.4889470000000  0.4791490000000 1.0
C      1  0.5308430000000  0.4885480000000  0.4643220000000 1.0
C      1  0.5353750000000  0.5154790000000  0.5293420000000 1.0
C      1  0.4691580000000  0.5145400000000  0.5343480000000 1.0
C      1  0.4807540000000  0.5091380000000  0.4763100000000 1.0
C      1  0.5328090000000  0.5153860000000  0.4611660000000 1.0
C      1  0.4724280000000  0.4031120000000  0.5275030000000 1.0
C      1  0.4746520000000  0.4061890000000  0.4703700000000 1.0
C      1  0.5279910000000  0.4031640000000  0.4729170000000 1.0
C      1  0.5290670000000  0.4026590000000  0.5288900000000 1.0
C      1  0.4710910000000  0.5956360000000  0.5250620000000 1.0
C      1  0.4727020000000  0.5979410000000  0.4713760000000 1.0
C      1  0.5286210000000  0.5987040000000  0.4704320000000 1.0
C      1  0.5286860000000  0.5983210000000  0.5269660000000 1.0
C      1  0.4039620000000  0.4838240000000  0.5045770000000 1.0
C      1  0.4947200000000  0.4864280000000  0.4042100000000 1.0
C      1  0.6024340000000  0.4850260000000  0.4948450000000 1.0
C      1  0.5048930000000  0.4845400000000  0.6023420000000 1.0
C      1  0.4025490000000  0.5185800000000  0.5037810000000 1.0
C      1  0.4948380000000  0.5177020000000  0.3980310000000 1.0
C      1  0.6040600000000  0.5162180000000  0.4943030000000 1.0
C      1  0.5056590000000  0.5155860000000  0.6034820000000 1.0
C      1  0.5700760000000  0.4486480000000  0.5664010000000 1.0
C      1  0.4341320000000  0.4481350000000  0.5692330000000 1.0
C      1  0.4295750000000  0.4498400000000  0.4295580000000 1.0
C      1  0.5631140000000  0.4481570000000  0.4291920000000 1.0
C      1  0.5678190000000  0.5522750000000  0.5664330000000 1.0
C      1  0.4330010000000  0.5528680000000  0.5691650000000 1.0
C      1  0.4169920000000  0.5490870000000  0.4402060000000 1.0
C      1  0.5661850000000  0.5520080000000  0.4302090000000 1.0
C      1  0.5700400000000  0.5268420000000  0.4211710000000 1.0
C      1  0.5771110000000  0.5267340000000  0.5676460000000 1.0
C      1  0.4337340000000  0.5281610000000  0.5800890000000 1.0
C      1  0.4164510000000  0.5237490000000  0.4305140000000 1.0
C      1  0.5692520000000  0.4722380000000  0.4194720000000 1.0
C      1  0.5813380000000  0.4732990000000  0.5674370000000 1.0
C      1  0.4330050000000  0.4730270000000  0.5804890000000 1.0
C      1  0.4174390000000  0.4738580000000  0.4316670000000 1.0
C      1  0.5241860000000  0.5549310000000  0.5204570000000 1.0
C      1  0.4790510000000  0.5555450000000  0.5242950000000 1.0
C      1  0.4804030000000  0.5539560000000  0.4804780000000 1.0
C      1  0.5233130000000  0.5556470000000  0.4721030000000 1.0
C      1  0.5249890000000  0.4471170000000  0.5224020000000 1.0
C      1  0.4787070000000  0.4464490000000  0.5239860000000 1.0
C      1  0.4735780000000  0.4473300000000  0.4770970000000 1.0
C      1  0.5196980000000  0.4473620000000  0.4811480000000 1.0
C      1  0.4965870000000  0.5649240000000  0.5013690000000 1.0
C      1  0.5035420000000  0.4376610000000  0.5030950000000 1.0
END
