TITL C-2441154-10-1424 0.0132141788302192 125000 -24481.2945875875 0 0 162 (C1) n - 1
REM
REM in /home/bkarasulu/work/CARBON/AIRSS/Generating-Clusters/ReaxFF-fromJPCA2015/Units_Real/with-SteepDescent/Higher-Symm
REM
REM
REM
REM
REM
REM ./C.cell (1df0a924f5614ab8850e4351716899ee)
REM
REM compiler GCC version 9.2.1 20190827 (Red Hat 9.2.1-1)
REM options -cpp -mtune=generic -march=x86-64 -g -O0 -fpre-include=/usr/include/finclude/math-vector-fortran.h
REM seed 1422708141 1530493273 555464659 -1681626546 1910572261 989506113 -2036769332 -377491774 -9978254 859873219 -19328468 -1424408740 -1315893530 647472318 1490645121 -1934799978 -515702423 -1959880913 -89851087 -843923848 740169477 -1159678882 763430199 332060569 -1377867382 638678838 -1504149722 1064581086 -2062169889 1162743262 1546531429 -1550250018 -744604838
REM
CELL 1.54180   50.00000   50.00000   50.00000   90.00000   90.00000   90.00000
LATT -1
SFAC C  
C      1  0.5225630000000  0.4306910000000  0.5088330000000 1.0
C      1  0.5185620000000  0.4903500000000  0.5686160000000 1.0
C      1  0.5209720000000  0.5575040000000  0.5111310000000 1.0
C      1  0.5116880000000  0.5455630000000  0.4616890000000 1.0
C      1  0.5144840000000  0.4873520000000  0.4502910000000 1.0
C      1  0.4822150000000  0.4301590000000  0.4846420000000 1.0
C      1  0.4713820000000  0.4841690000000  0.4297650000000 1.0
C      1  0.4654010000000  0.5570060000000  0.4702130000000 1.0
C      1  0.4802820000000  0.5472140000000  0.5465600000000 1.0
C      1  0.4785440000000  0.4596430000000  0.5480080000000 1.0
C      1  0.5733240000000  0.5764070000000  0.5100540000000 1.0
C      1  0.5777930000000  0.5289650000000  0.4335170000000 1.0
C      1  0.5707330000000  0.4374880000000  0.4486210000000 1.0
C      1  0.5755350000000  0.4357370000000  0.5400950000000 1.0
C      1  0.5784920000000  0.5228690000000  0.5764560000000 1.0
C      1  0.4239470000000  0.5691310000000  0.4912420000000 1.0
C      1  0.4233110000000  0.5299140000000  0.5748660000000 1.0
C      1  0.4253710000000  0.4432220000000  0.5519480000000 1.0
C      1  0.4207250000000  0.4340170000000  0.4605620000000 1.0
C      1  0.4239950000000  0.5179850000000  0.4198300000000 1.0
C      1  0.5502900000000  0.5186000000000  0.5222550000000 1.0
C      1  0.5559140000000  0.5223890000000  0.4912610000000 1.0
C      1  0.5574330000000  0.4944920000000  0.4785000000000 1.0
C      1  0.5512530000000  0.4730900000000  0.4984810000000 1.0
C      1  0.5451180000000  0.4894570000000  0.5234740000000 1.0
C      1  0.4468140000000  0.5151110000000  0.4812120000000 1.0
C      1  0.4544770000000  0.5195670000000  0.5101910000000 1.0
C      1  0.4503160000000  0.4949800000000  0.5271640000000 1.0
C      1  0.4519260000000  0.4703160000000  0.5028440000000 1.0
C      1  0.4481050000000  0.4834120000000  0.4756310000000 1.0
C      1  0.5138060000000  0.5777970000000  0.4513930000000 1.0
C      1  0.5130430000000  0.4709380000000  0.4055790000000 1.0
C      1  0.5144950000000  0.4044100000000  0.4961260000000 1.0
C      1  0.5112410000000  0.4680140000000  0.5896340000000 1.0
C      1  0.5127790000000  0.5807690000000  0.5593340000000 1.0
C      1  0.4866340000000  0.5773650000000  0.5484040000000 1.0
C      1  0.4840860000000  0.4686980000000  0.5979730000000 1.0
C      1  0.4873810000000  0.4069110000000  0.5040530000000 1.0
C      1  0.4850820000000  0.4648670000000  0.4096490000000 1.0
C      1  0.4863820000000  0.5835170000000  0.4476590000000 1.0
C      1  0.5694070000000  0.5613560000000  0.4608860000000 1.0
C      1  0.5680490000000  0.4802300000000  0.4300600000000 1.0
C      1  0.5651240000000  0.4227960000000  0.4982830000000 1.0
C      1  0.5720700000000  0.4775250000000  0.5664710000000 1.0
C      1  0.5670350000000  0.5613200000000  0.5511540000000 1.0
C      1  0.4308300000000  0.5619260000000  0.5382480000000 1.0
C      1  0.4309580000000  0.4797770000000  0.5734750000000 1.0
C      1  0.4325680000000  0.4245310000000  0.5044310000000 1.0
C      1  0.4282560000000  0.4752890000000  0.4320250000000 1.0
C      1  0.4279790000000  0.5570860000000  0.4481610000000 1.0
C      1  0.5105920000000  0.4449680000000  0.4720340000000 1.0
C      1  0.5056940000000  0.4622440000000  0.5388080000000 1.0
C      1  0.5034970000000  0.5287520000000  0.5434380000000 1.0
C      1  0.4909620000000  0.5567570000000  0.4799470000000 1.0
C      1  0.4936090000000  0.5015800000000  0.4391360000000 1.0
C      1  0.4995600000000  0.4478780000000  0.5165500000000 1.0
C      1  0.4970700000000  0.4683300000000  0.4615240000000 1.0
C      1  0.4903900000000  0.5256530000000  0.4517400000000 1.0
C      1  0.4933110000000  0.5519620000000  0.5061360000000 1.0
C      1  0.4961810000000  0.5030000000000  0.5528630000000 1.0
C      1  0.5350750000000  0.5759280000000  0.4935470000000 1.0
C      1  0.5394550000000  0.5164180000000  0.4081060000000 1.0
C      1  0.5324410000000  0.4220760000000  0.4584850000000 1.0
C      1  0.5408940000000  0.4319490000000  0.5685170000000 1.0
C      1  0.5385640000000  0.5419310000000  0.5832830000000 1.0
C      1  0.4640200000000  0.5907030000000  0.5036140000000 1.0
C      1  0.4607520000000  0.5157130000000  0.5920530000000 1.0
C      1  0.4662190000000  0.4331120000000  0.5393880000000 1.0
C      1  0.4575440000000  0.4316620000000  0.4344230000000 1.0
C      1  0.4621660000000  0.5455180000000  0.4129860000000 1.0
C      1  0.4692890000000  0.4744820000000  0.4576520000000 1.0
C      1  0.4755720000000  0.4519440000000  0.5025230000000 1.0
C      1  0.4742800000000  0.4879630000000  0.5443920000000 1.0
C      1  0.4710850000000  0.5398030000000  0.5197090000000 1.0
C      1  0.4653560000000  0.5299740000000  0.4629750000000 1.0
C      1  0.5285860000000  0.4784240000000  0.5434700000000 1.0
C      1  0.5302860000000  0.4527860000000  0.4919790000000 1.0
C      1  0.5338400000000  0.5011730000000  0.4649280000000 1.0
C      1  0.5323680000000  0.5270200000000  0.4735770000000 1.0
C      1  0.5262460000000  0.5353650000000  0.5282300000000 1.0
C      1  0.4245440000000  0.5333080000000  0.4637230000000 1.0
C      1  0.4175700000000  0.4803310000000  0.4601520000000 1.0
C      1  0.4268490000000  0.4533090000000  0.5059160000000 1.0
C      1  0.4274880000000  0.4931470000000  0.5480300000000 1.0
C      1  0.4075030000000  0.5488600000000  0.5257590000000 1.0
C      1  0.5775310000000  0.5399590000000  0.5345320000000 1.0
C      1  0.5927540000000  0.4812530000000  0.5457100000000 1.0
C      1  0.5778090000000  0.4496130000000  0.4953690000000 1.0
C      1  0.5817320000000  0.4902760000000  0.4564210000000 1.0
C      1  0.5808940000000  0.5425740000000  0.4838090000000 1.0
C      1  0.5620720000000  0.5785150000000  0.4831760000000 1.0
C      1  0.5648220000000  0.5060330000000  0.4184750000000 1.0
C      1  0.5594290000000  0.4193170000000  0.4690160000000 1.0
C      1  0.5643740000000  0.4487610000000  0.5630620000000 1.0
C      1  0.5634800000000  0.5473650000000  0.5749590000000 1.0
C      1  0.4395430000000  0.5770510000000  0.5139730000000 1.0
C      1  0.4344160000000  0.5062300000000  0.5882950000000 1.0
C      1  0.4392880000000  0.4244810000000  0.5339370000000 1.0
C      1  0.4326730000000  0.4465530000000  0.4361270000000 1.0
C      1  0.4342500000000  0.5455170000000  0.4215680000000 1.0
C      1  0.3886450000000  0.4603860000000  0.4948140000000 1.0
C      1  0.3893800000000  0.4758340000000  0.5186920000000 1.0
C      1  0.3957900000000  0.5246780000000  0.5341790000000 1.0
C      1  0.3955610000000  0.5198410000000  0.4902160000000 1.0
C      1  0.3971420000000  0.5033120000000  0.4657970000000 1.0
C      1  0.6059330000000  0.4605260000000  0.5065160000000 1.0
C      1  0.6030680000000  0.4745440000000  0.4679320000000 1.0
C      1  0.6030740000000  0.5265630000000  0.4787630000000 1.0
C      1  0.6067910000000  0.5138990000000  0.5048670000000 1.0
C      1  0.6023830000000  0.5060810000000  0.5334070000000 1.0
C      1  0.4762750000000  0.5952550000000  0.4769550000000 1.0
C      1  0.4666830000000  0.5183230000000  0.4059210000000 1.0
C      1  0.4645470000000  0.4177920000000  0.4598820000000 1.0
C      1  0.4698980000000  0.4457850000000  0.5848170000000 1.0
C      1  0.4656930000000  0.5421660000000  0.5780780000000 1.0
C      1  0.5286650000000  0.5917420000000  0.5367590000000 1.0
C      1  0.5345500000000  0.5128360000000  0.5886510000000 1.0
C      1  0.5335360000000  0.4147050000000  0.5471070000000 1.0
C      1  0.5265320000000  0.4496160000000  0.4206850000000 1.0
C      1  0.5345720000000  0.5431860000000  0.4192550000000 1.0
C      1  0.4424290000000  0.4527660000000  0.5741110000000 1.0
C      1  0.4396810000000  0.5514670000000  0.5642690000000 1.0
C      1  0.4416040000000  0.5743910000000  0.4677260000000 1.0
C      1  0.4420800000000  0.4952250000000  0.4142850000000 1.0
C      1  0.4386760000000  0.4179660000000  0.4766560000000 1.0
C      1  0.5539030000000  0.4548380000000  0.4300860000000 1.0
C      1  0.5587540000000  0.5512820000000  0.4361220000000 1.0
C      1  0.5562920000000  0.5816240000000  0.5338460000000 1.0
C      1  0.5620640000000  0.4999040000000  0.5817970000000 1.0
C      1  0.5563300000000  0.4174150000000  0.5260430000000 1.0
C      1  0.5164420000000  0.5003370000000  0.4009600000000 1.0
C      1  0.5146700000000  0.4003780000000  0.4664830000000 1.0
C      1  0.5172760000000  0.4399160000000  0.5848660000000 1.0
C      1  0.5161080000000  0.5594940000000  0.5802080000000 1.0
C      1  0.5230420000000  0.5938320000000  0.4735040000000 1.0
C      1  0.4833540000000  0.4987520000000  0.6005770000000 1.0
C      1  0.4836540000000  0.4104470000000  0.5328530000000 1.0
C      1  0.4799430000000  0.4372980000000  0.4161430000000 1.0
C      1  0.4850980000000  0.5642490000000  0.4250740000000 1.0
C      1  0.4825080000000  0.5959940000000  0.5266450000000 1.0
C      1  0.5896710000000  0.5518460000000  0.5105600000000 1.0
C      1  0.5948640000000  0.5166210000000  0.4534890000000 1.0
C      1  0.5893410000000  0.4487100000000  0.4677970000000 1.0
C      1  0.5971040000000  0.4554170000000  0.5332440000000 1.0
C      1  0.5944180000000  0.5254340000000  0.5522270000000 1.0
C      1  0.4048630000000  0.5476020000000  0.4973750000000 1.0
C      1  0.4087080000000  0.5137320000000  0.5551940000000 1.0
C      1  0.4104870000000  0.4576080000000  0.5299620000000 1.0
C      1  0.4027140000000  0.4551720000000  0.4705020000000 1.0
C      1  0.4072910000000  0.5204010000000  0.4449600000000 1.0
C      1  0.4948140000000  0.4096200000000  0.4473930000000 1.0
C      1  0.4928600000000  0.4273500000000  0.5764020000000 1.0
C      1  0.4944940000000  0.5430430000000  0.5900800000000 1.0
C      1  0.5010830000000  0.6055500000000  0.4888780000000 1.0
C      1  0.4949410000000  0.5206490000000  0.4019200000000 1.0
C      1  0.5046100000000  0.4127600000000  0.5531740000000 1.0
C      1  0.5057060000000  0.4270330000000  0.4263390000000 1.0
C      1  0.5062870000000  0.5470110000000  0.4145480000000 1.0
C      1  0.5088070000000  0.6037890000000  0.5182650000000 1.0
C      1  0.5053030000000  0.5177890000000  0.5985250000000 1.0
C      1  0.3900830000000  0.5057460000000  0.5141560000000 1.0
C      1  0.6098830000000  0.4863840000000  0.4940780000000 1.0
END
