TITL C-2441169-1362-74 0.000667059599907579 125000 -9024.01314282242 0 0 68 (C1) n - 1
REM
REM in /home/bkarasulu/work/CARBON/AIRSS/Generating-Clusters/ReaxFF-fromJPCA2015/Units_Real/with-SteepDescent/Higher-Symm
REM
REM
REM
REM
REM
REM ./C.cell (1df0a924f5614ab8850e4351716899ee)
REM
REM compiler GCC version 9.2.1 20190827 (Red Hat 9.2.1-1)
REM options -cpp -mtune=generic -march=x86-64 -g -O0 -fpre-include=/usr/include/finclude/math-vector-fortran.h
REM seed -17673731 1440706116 -535594498 289181131 387119639 1976674092 -1442950399 -1745387171 -1694890405 1660304106 2060746320 -1085150587 239636869 83961889 -1048315723 1156677890 -1046594836 2057228639 1048289922 -180472602 -918723772 1153512714 -322630342 906245924 73420508 748442164 -1272442787 -490478818 500796305 471291029 1404100171 1892641399 1163683797
REM
CELL 1.54180   50.00000   50.00000   50.00000   90.00000   90.00000   90.00000
LATT -1
SFAC C  
C      1  0.5155510000000  0.4292240000000  0.4865970000000 1.0
C      1  0.4858690000000  0.5160680000000  0.4278320000000 1.0
C      1  0.4268770000000  0.4837320000000  0.5127410000000 1.0
C      1  0.4840330000000  0.5677970000000  0.4860280000000 1.0
C      1  0.4851890000000  0.4316350000000  0.5153420000000 1.0
C      1  0.5135560000000  0.5692570000000  0.5148510000000 1.0
C      1  0.5145910000000  0.4848240000000  0.4270020000000 1.0
C      1  0.5148090000000  0.5149160000000  0.5706650000000 1.0
C      1  0.4855180000000  0.4846760000000  0.5715460000000 1.0
C      1  0.5727440000000  0.5149310000000  0.5129330000000 1.0
C      1  0.5688190000000  0.4863660000000  0.4824600000000 1.0
C      1  0.4261330000000  0.5139690000000  0.4837600000000 1.0
C      1  0.5146030000000  0.4314520000000  0.5151460000000 1.0
C      1  0.4855830000000  0.5150460000000  0.5712650000000 1.0
C      1  0.4303910000000  0.4851830000000  0.4833560000000 1.0
C      1  0.4841000000000  0.5674690000000  0.5142900000000 1.0
C      1  0.4842900000000  0.4294520000000  0.4867850000000 1.0
C      1  0.5146160000000  0.5715510000000  0.4863400000000 1.0
C      1  0.5147320000000  0.4845300000000  0.5713560000000 1.0
C      1  0.5151960000000  0.5148750000000  0.4260460000000 1.0
C      1  0.4844040000000  0.4861630000000  0.4275740000000 1.0
C      1  0.5682760000000  0.5142120000000  0.4826660000000 1.0
C      1  0.5730150000000  0.4847900000000  0.5122360000000 1.0
C      1  0.4264400000000  0.5140500000000  0.5140560000000 1.0
C      1  0.4626940000000  0.5517070000000  0.4660720000000 1.0
C      1  0.4773350000000  0.4604670000000  0.5559480000000 1.0
C      1  0.5520190000000  0.4660890000000  0.4612550000000 1.0
C      1  0.5395140000000  0.4457360000000  0.4789660000000 1.0
C      1  0.5385600000000  0.5511470000000  0.5330850000000 1.0
C      1  0.4624160000000  0.4485630000000  0.5344220000000 1.0
C      1  0.5234210000000  0.5390530000000  0.5551560000000 1.0
C      1  0.5287500000000  0.4659560000000  0.4438770000000 1.0
C      1  0.4796160000000  0.5397040000000  0.4453220000000 1.0
C      1  0.4458820000000  0.5269610000000  0.4649890000000 1.0
C      1  0.4446550000000  0.4718080000000  0.5335040000000 1.0
C      1  0.5560950000000  0.5271780000000  0.5336910000000 1.0
C      1  0.4614340000000  0.5505870000000  0.5340190000000 1.0
C      1  0.4721870000000  0.4656940000000  0.4450880000000 1.0
C      1  0.5555450000000  0.4724940000000  0.5328600000000 1.0
C      1  0.5379810000000  0.4486920000000  0.5337930000000 1.0
C      1  0.5396670000000  0.5548590000000  0.4788090000000 1.0
C      1  0.4599300000000  0.4460670000000  0.4797390000000 1.0
C      1  0.5282360000000  0.5345220000000  0.4445180000000 1.0
C      1  0.5231500000000  0.4605200000000  0.5557950000000 1.0
C      1  0.4777940000000  0.5386930000000  0.5549340000000 1.0
C      1  0.4442810000000  0.5266320000000  0.5334780000000 1.0
C      1  0.4476730000000  0.4666100000000  0.4625180000000 1.0
C      1  0.5522150000000  0.5344590000000  0.4619160000000 1.0
C      1  0.5039950000000  0.5378810000000  0.4632700000000 1.0
C      1  0.4630690000000  0.4993130000000  0.5367690000000 1.0
C      1  0.5333940000000  0.4674780000000  0.4990040000000 1.0
C      1  0.4974900000000  0.4644270000000  0.4632680000000 1.0
C      1  0.5009070000000  0.5351290000000  0.5337980000000 1.0
C      1  0.5001110000000  0.4649880000000  0.5335130000000 1.0
C      1  0.5365160000000  0.4994450000000  0.5361350000000 1.0
C      1  0.5328280000000  0.4996660000000  0.4665750000000 1.0
C      1  0.4643810000000  0.5034610000000  0.4639690000000 1.0
C      1  0.4674210000000  0.5325290000000  0.4997850000000 1.0
C      1  0.4667360000000  0.4685980000000  0.4987410000000 1.0
C      1  0.5353950000000  0.5338390000000  0.5002030000000 1.0
C      1  0.4800700000000  0.5184510000000  0.5200540000000 1.0
C      1  0.5197680000000  0.4805410000000  0.5200300000000 1.0
C      1  0.5202390000000  0.5198810000000  0.4809120000000 1.0
C      1  0.4793690000000  0.4827950000000  0.4792640000000 1.0
C      1  0.4815630000000  0.5201600000000  0.4796040000000 1.0
C      1  0.5182300000000  0.4796600000000  0.4787050000000 1.0
C      1  0.5199770000000  0.5183090000000  0.5193090000000 1.0
C      1  0.4800240000000  0.4808270000000  0.5200830000000 1.0
END
