TITL C-2441158-471-1440 0.0598105580060134 125000 -14745.5642475485 0 0 110 (C1) n - 1
REM
REM in /home/bkarasulu/work/CARBON/AIRSS/Generating-Clusters/ReaxFF-fromJPCA2015/Units_Real/with-SteepDescent/Higher-Symm
REM
REM
REM
REM
REM
REM ./C.cell (1df0a924f5614ab8850e4351716899ee)
REM
REM compiler GCC version 9.2.1 20190827 (Red Hat 9.2.1-1)
REM options -cpp -mtune=generic -march=x86-64 -g -O0 -fpre-include=/usr/include/finclude/math-vector-fortran.h
REM seed -1141325431 756628581 1454665373 2032864000 703871709 1960896971 -510255055 -1844553902 -1597855153 -383206890 -1174537125 -1656210872 1958035331 -851258440 -44539350 -1466014747 -756943908 -153143662 -1371285296 568848936 2132692860 1049798382 -1311087970 1410112604 -1241522420 138747088 1698378014 -299784685 -430972067 -561280354 1236894870 1160840106 -1618562779
REM
CELL 1.54180   50.00000   50.00000   50.00000   90.00000   90.00000   90.00000
LATT -1
SFAC C  
C      1  0.4263100000000  0.4946370000000  0.4329740000000 1.0
C      1  0.4739840000000  0.5015870000000  0.4426860000000 1.0
C      1  0.5562290000000  0.5041040000000  0.5765100000000 1.0
C      1  0.4860250000000  0.4673200000000  0.5415350000000 1.0
C      1  0.5078660000000  0.5648480000000  0.4949760000000 1.0
C      1  0.5519380000000  0.4577340000000  0.5155040000000 1.0
C      1  0.4651200000000  0.4453300000000  0.5446290000000 1.0
C      1  0.4383400000000  0.5660910000000  0.4946030000000 1.0
C      1  0.5489500000000  0.5718110000000  0.4951330000000 1.0
C      1  0.5097460000000  0.4561320000000  0.5515600000000 1.0
C      1  0.5215960000000  0.4912500000000  0.4672900000000 1.0
C      1  0.5553040000000  0.4425680000000  0.5400990000000 1.0
C      1  0.5631660000000  0.4557980000000  0.4626440000000 1.0
C      1  0.5350470000000  0.5439740000000  0.5659390000000 1.0
C      1  0.4781080000000  0.5797850000000  0.4672090000000 1.0
C      1  0.5727020000000  0.4415720000000  0.4860110000000 1.0
C      1  0.5367670000000  0.5753170000000  0.4677650000000 1.0
C      1  0.4078290000000  0.5084990000000  0.5089850000000 1.0
C      1  0.5133510000000  0.4643700000000  0.4648720000000 1.0
C      1  0.4361780000000  0.5527880000000  0.4684580000000 1.0
C      1  0.5532370000000  0.5690390000000  0.5232380000000 1.0
C      1  0.4808280000000  0.4294860000000  0.5679810000000 1.0
C      1  0.4405510000000  0.4606850000000  0.5571890000000 1.0
C      1  0.5106150000000  0.4502240000000  0.5105700000000 1.0
C      1  0.4899850000000  0.5402760000000  0.5594440000000 1.0
C      1  0.4979480000000  0.4546390000000  0.4860740000000 1.0
C      1  0.4530860000000  0.4824240000000  0.4347430000000 1.0
C      1  0.4238000000000  0.5291460000000  0.5197600000000 1.0
C      1  0.4341130000000  0.5221540000000  0.4273810000000 1.0
C      1  0.5331900000000  0.5649890000000  0.5456360000000 1.0
C      1  0.5479470000000  0.5557060000000  0.4491390000000 1.0
C      1  0.4527970000000  0.5602320000000  0.5431140000000 1.0
C      1  0.5069820000000  0.4254340000000  0.5240190000000 1.0
C      1  0.5278480000000  0.5404130000000  0.4363110000000 1.0
C      1  0.5058750000000  0.5045420000000  0.5902380000000 1.0
C      1  0.4162880000000  0.5030860000000  0.4600100000000 1.0
C      1  0.5491250000000  0.4208460000000  0.4890970000000 1.0
C      1  0.4730750000000  0.4631760000000  0.4756650000000 1.0
C      1  0.5769810000000  0.5274720000000  0.5373150000000 1.0
C      1  0.5286650000000  0.4885820000000  0.5774070000000 1.0
C      1  0.4938110000000  0.5354130000000  0.5307210000000 1.0
C      1  0.4164070000000  0.4694540000000  0.4861140000000 1.0
C      1  0.4586060000000  0.4682330000000  0.5787250000000 1.0
C      1  0.5373520000000  0.4873690000000  0.4894150000000 1.0
C      1  0.4340980000000  0.4926690000000  0.4812640000000 1.0
C      1  0.4773470000000  0.5231760000000  0.4613860000000 1.0
C      1  0.4774700000000  0.5754440000000  0.5397460000000 1.0
C      1  0.5253900000000  0.4200990000000  0.4737960000000 1.0
C      1  0.4227890000000  0.5314920000000  0.4531360000000 1.0
C      1  0.4604170000000  0.5383400000000  0.5610850000000 1.0
C      1  0.5298770000000  0.4739940000000  0.5117140000000 1.0
C      1  0.5064420000000  0.5720870000000  0.4675520000000 1.0
C      1  0.5341550000000  0.4454160000000  0.4543170000000 1.0
C      1  0.5691350000000  0.4824610000000  0.4526010000000 1.0
C      1  0.4776420000000  0.5898440000000  0.5148170000000 1.0
C      1  0.5592570000000  0.5056240000000  0.4924040000000 1.0
C      1  0.4487000000000  0.4527260000000  0.5065900000000 1.0
C      1  0.5267280000000  0.4577240000000  0.5746810000000 1.0
C      1  0.4836370000000  0.4960240000000  0.4041090000000 1.0
C      1  0.4978660000000  0.5218010000000  0.4806130000000 1.0
C      1  0.5070170000000  0.5879740000000  0.5134160000000 1.0
C      1  0.5718420000000  0.5372110000000  0.4632350000000 1.0
C      1  0.4616670000000  0.5101060000000  0.5548680000000 1.0
C      1  0.4746290000000  0.5425860000000  0.4405310000000 1.0
C      1  0.5461680000000  0.5054650000000  0.4237460000000 1.0
C      1  0.5067040000000  0.4268570000000  0.5550770000000 1.0
C      1  0.5832840000000  0.5437450000000  0.4900890000000 1.0
C      1  0.5129690000000  0.4987120000000  0.5497700000000 1.0
C      1  0.5194470000000  0.5279110000000  0.5202310000000 1.0
C      1  0.4855730000000  0.4150150000000  0.5069780000000 1.0
C      1  0.4967500000000  0.4135990000000  0.4796470000000 1.0
C      1  0.5087320000000  0.5064150000000  0.4072360000000 1.0
C      1  0.4643420000000  0.4878720000000  0.4835160000000 1.0
C      1  0.4065020000000  0.4804980000000  0.5135720000000 1.0
C      1  0.4655350000000  0.4569830000000  0.4320780000000 1.0
C      1  0.5761500000000  0.5067280000000  0.4669180000000 1.0
C      1  0.5309690000000  0.5453130000000  0.4987790000000 1.0
C      1  0.5433890000000  0.5287460000000  0.4799210000000 1.0
C      1  0.4553620000000  0.4969680000000  0.5804640000000 1.0
C      1  0.5253950000000  0.4564460000000  0.4272570000000 1.0
C      1  0.5613780000000  0.5288970000000  0.5641880000000 1.0
C      1  0.5302900000000  0.5248500000000  0.4109380000000 1.0
C      1  0.5684800000000  0.4649610000000  0.5532800000000 1.0
C      1  0.5763480000000  0.5038570000000  0.5217590000000 1.0
C      1  0.4641080000000  0.5215920000000  0.4228100000000 1.0
C      1  0.4476720000000  0.5113070000000  0.5160650000000 1.0
C      1  0.4476160000000  0.4820190000000  0.5219340000000 1.0
C      1  0.4628500000000  0.4304360000000  0.5171650000000 1.0
C      1  0.5513930000000  0.4475530000000  0.5666920000000 1.0
C      1  0.5217900000000  0.5210900000000  0.4625430000000 1.0
C      1  0.5077620000000  0.5786410000000  0.5412210000000 1.0
C      1  0.4794290000000  0.4199460000000  0.4572660000000 1.0
C      1  0.4579120000000  0.4429420000000  0.4584600000000 1.0
C      1  0.4732050000000  0.5251260000000  0.5130470000000 1.0
C      1  0.5785260000000  0.4646280000000  0.5050340000000 1.0
C      1  0.4849410000000  0.4956170000000  0.5397270000000 1.0
C      1  0.5111600000000  0.5315740000000  0.5778100000000 1.0
C      1  0.4356380000000  0.4480710000000  0.4817190000000 1.0
C      1  0.4246460000000  0.4774900000000  0.5385370000000 1.0
C      1  0.4625070000000  0.5818340000000  0.4914560000000 1.0
C      1  0.4327370000000  0.5573550000000  0.5217800000000 1.0
C      1  0.4589340000000  0.5631180000000  0.4534690000000 1.0
C      1  0.5772450000000  0.5505810000000  0.5180670000000 1.0
C      1  0.4954540000000  0.4537860000000  0.4235380000000 1.0
C      1  0.4854360000000  0.5024760000000  0.4993690000000 1.0
C      1  0.4817650000000  0.4880710000000  0.5886390000000 1.0
C      1  0.5830930000000  0.4773690000000  0.5311280000000 1.0
C      1  0.5448350000000  0.4795270000000  0.4320790000000 1.0
C      1  0.4958190000000  0.4299560000000  0.4368350000000 1.0
C      1  0.5299890000000  0.5027220000000  0.5276160000000 1.0
END
