TITL C-2441164-471-446 0.0745357691431771 125000 -19797.3844493981 0 0 148 (C1) n - 1
REM
REM in /home/bkarasulu/work/CARBON/AIRSS/Generating-Clusters/ReaxFF-fromJPCA2015/Units_Real/with-SteepDescent/Higher-Symm
REM
REM
REM
REM
REM
REM ./C.cell (1df0a924f5614ab8850e4351716899ee)
REM
REM compiler GCC version 9.2.1 20190827 (Red Hat 9.2.1-1)
REM options -cpp -mtune=generic -march=x86-64 -g -O0 -fpre-include=/usr/include/finclude/math-vector-fortran.h
REM seed -802798669 615234085 835739686 1540430361 -588294520 1011352197 403406337 1745541695 1306748408 2122792831 2134699460 256994927 -651471431 -1672723863 879874218 760517523 1212798408 -1057956484 -185928054 -1008119491 1154542356 -1434324475 463737161 -1881118800 -1371275615 -1156864168 -1413247753 1696502973 1048082980 -1764355711 1457874657 1894359989 -23422191
REM
CELL 1.54180   50.00000   50.00000   50.00000   90.00000   90.00000   90.00000
LATT -1
SFAC C  
C      1  0.5608930000000  0.4279780000000  0.5035980000000 1.0
C      1  0.5916770000000  0.5342320000000  0.5024790000000 1.0
C      1  0.5042860000000  0.6038180000000  0.5132290000000 1.0
C      1  0.4035630000000  0.5220560000000  0.5049410000000 1.0
C      1  0.4377180000000  0.4178460000000  0.5034630000000 1.0
C      1  0.4978300000000  0.4096980000000  0.5527700000000 1.0
C      1  0.5872540000000  0.4719330000000  0.5489330000000 1.0
C      1  0.5467440000000  0.5749150000000  0.5665880000000 1.0
C      1  0.4412810000000  0.5667600000000  0.5477530000000 1.0
C      1  0.4179960000000  0.4619700000000  0.5517770000000 1.0
C      1  0.4423230000000  0.4403550000000  0.4522700000000 1.0
C      1  0.5365350000000  0.4200580000000  0.4550190000000 1.0
C      1  0.5867760000000  0.5162060000000  0.4546980000000 1.0
C      1  0.5109240000000  0.5864070000000  0.4572960000000 1.0
C      1  0.4216180000000  0.5365870000000  0.4533400000000 1.0
C      1  0.4185880000000  0.4662760000000  0.4891900000000 1.0
C      1  0.5145070000000  0.4093030000000  0.4877620000000 1.0
C      1  0.5877010000000  0.4783990000000  0.4888830000000 1.0
C      1  0.5486320000000  0.5795770000000  0.4904310000000 1.0
C      1  0.4357410000000  0.5636420000000  0.4899130000000 1.0
C      1  0.5457570000000  0.4471640000000  0.4542350000000 1.0
C      1  0.5618370000000  0.5174020000000  0.4421750000000 1.0
C      1  0.5029100000000  0.5641810000000  0.4422590000000 1.0
C      1  0.4427230000000  0.5188030000000  0.4455640000000 1.0
C      1  0.4606820000000  0.4476290000000  0.4735690000000 1.0
C      1  0.5120480000000  0.4067260000000  0.4587830000000 1.0
C      1  0.5898800000000  0.4875350000000  0.4608400000000 1.0
C      1  0.5391190000000  0.5804360000000  0.4626940000000 1.0
C      1  0.4346820000000  0.5613760000000  0.4608500000000 1.0
C      1  0.4213150000000  0.4596370000000  0.4608630000000 1.0
C      1  0.5005520000000  0.4762330000000  0.4664700000000 1.0
C      1  0.5253360000000  0.4917070000000  0.4679260000000 1.0
C      1  0.5178010000000  0.5218380000000  0.4693220000000 1.0
C      1  0.4873550000000  0.5259000000000  0.4711080000000 1.0
C      1  0.4783530000000  0.4969520000000  0.4708230000000 1.0
C      1  0.4472850000000  0.5153630000000  0.5055230000000 1.0
C      1  0.4552600000000  0.4590550000000  0.5213680000000 1.0
C      1  0.5292340000000  0.4574250000000  0.5079070000000 1.0
C      1  0.5516450000000  0.5190630000000  0.5103400000000 1.0
C      1  0.4993610000000  0.5584880000000  0.5076540000000 1.0
C      1  0.4936400000000  0.5578820000000  0.5884320000000 1.0
C      1  0.4297470000000  0.5089050000000  0.5734080000000 1.0
C      1  0.4831370000000  0.4528880000000  0.5849200000000 1.0
C      1  0.5425560000000  0.4626790000000  0.5816310000000 1.0
C      1  0.5537780000000  0.5237790000000  0.5871690000000 1.0
C      1  0.4536600000000  0.5090980000000  0.5886650000000 1.0
C      1  0.4953890000000  0.4777380000000  0.5931580000000 1.0
C      1  0.5234960000000  0.4842370000000  0.5886390000000 1.0
C      1  0.5270520000000  0.5131190000000  0.5833050000000 1.0
C      1  0.4888850000000  0.5290930000000  0.5824580000000 1.0
C      1  0.4575060000000  0.4813080000000  0.4202670000000 1.0
C      1  0.4947600000000  0.4332070000000  0.4154970000000 1.0
C      1  0.5489730000000  0.4850690000000  0.4206430000000 1.0
C      1  0.5271080000000  0.5385970000000  0.4183770000000 1.0
C      1  0.4664840000000  0.5425410000000  0.4225840000000 1.0
C      1  0.5505350000000  0.5524790000000  0.5841630000000 1.0
C      1  0.4673880000000  0.5638440000000  0.5808530000000 1.0
C      1  0.4305990000000  0.4781260000000  0.5729070000000 1.0
C      1  0.4991970000000  0.4295750000000  0.5757580000000 1.0
C      1  0.5705040000000  0.4725330000000  0.5738310000000 1.0
C      1  0.4625400000000  0.5705610000000  0.5270180000000 1.0
C      1  0.4325440000000  0.4745020000000  0.5299830000000 1.0
C      1  0.4863250000000  0.4296220000000  0.5194990000000 1.0
C      1  0.5685080000000  0.4727550000000  0.5274770000000 1.0
C      1  0.5399380000000  0.5600980000000  0.5291030000000 1.0
C      1  0.4774440000000  0.4497170000000  0.5366740000000 1.0
C      1  0.5460920000000  0.4561140000000  0.5315350000000 1.0
C      1  0.5563280000000  0.5365880000000  0.5332710000000 1.0
C      1  0.4912710000000  0.5665210000000  0.5342130000000 1.0
C      1  0.4332850000000  0.5024770000000  0.5269080000000 1.0
C      1  0.5353700000000  0.4105180000000  0.5078000000000 1.0
C      1  0.5985340000000  0.5006320000000  0.5054610000000 1.0
C      1  0.5322520000000  0.5969710000000  0.5074980000000 1.0
C      1  0.4151950000000  0.5489720000000  0.5079490000000 1.0
C      1  0.4185000000000  0.4398460000000  0.5080300000000 1.0
C      1  0.4743590000000  0.5966710000000  0.5113390000000 1.0
C      1  0.4055110000000  0.5112130000000  0.5326480000000 1.0
C      1  0.4734950000000  0.4089170000000  0.5354160000000 1.0
C      1  0.5628880000000  0.4304810000000  0.5325670000000 1.0
C      1  0.5861890000000  0.5436550000000  0.5298920000000 1.0
C      1  0.5828810000000  0.4627260000000  0.4456570000000 1.0
C      1  0.5595990000000  0.5618110000000  0.4498360000000 1.0
C      1  0.4577360000000  0.5782730000000  0.4477530000000 1.0
C      1  0.4141400000000  0.4859170000000  0.4473850000000 1.0
C      1  0.4823610000000  0.4080330000000  0.4445460000000 1.0
C      1  0.5242300000000  0.4963020000000  0.4110030000000 1.0
C      1  0.5182180000000  0.5210180000000  0.3967340000000 1.0
C      1  0.4769660000000  0.5246610000000  0.4037760000000 1.0
C      1  0.4807850000000  0.4812660000000  0.4006520000000 1.0
C      1  0.5005050000000  0.4599690000000  0.4088940000000 1.0
C      1  0.4627100000000  0.5891810000000  0.4869340000000 1.0
C      1  0.4066050000000  0.4986060000000  0.4872500000000 1.0
C      1  0.4605700000000  0.4197080000000  0.4838060000000 1.0
C      1  0.5714650000000  0.4471360000000  0.4861160000000 1.0
C      1  0.5757490000000  0.5541990000000  0.4900930000000 1.0
C      1  0.5366970000000  0.5868860000000  0.5405000000000 1.0
C      1  0.4185030000000  0.5511570000000  0.5371730000000 1.0
C      1  0.4216870000000  0.4366530000000  0.5368830000000 1.0
C      1  0.5246700000000  0.4070840000000  0.5368070000000 1.0
C      1  0.6032980000000  0.4945440000000  0.5337240000000 1.0
C      1  0.4772510000000  0.5684330000000  0.4290320000000 1.0
C      1  0.4328320000000  0.4971040000000  0.4276640000000 1.0
C      1  0.4758200000000  0.4310970000000  0.4298970000000 1.0
C      1  0.5595720000000  0.4602170000000  0.4287120000000 1.0
C      1  0.5539730000000  0.5426220000000  0.4289180000000 1.0
C      1  0.5068670000000  0.4387800000000  0.5009700000000 1.0
C      1  0.5591860000000  0.4909230000000  0.5062330000000 1.0
C      1  0.5270130000000  0.5558420000000  0.5035080000000 1.0
C      1  0.4557810000000  0.5440610000000  0.5038390000000 1.0
C      1  0.4512580000000  0.4677640000000  0.4927170000000 1.0
C      1  0.4633830000000  0.4936670000000  0.4948440000000 1.0
C      1  0.4917900000000  0.4644360000000  0.4935680000000 1.0
C      1  0.5356380000000  0.4788940000000  0.4931160000000 1.0
C      1  0.5304480000000  0.5289350000000  0.4953710000000 1.0
C      1  0.4824060000000  0.5394670000000  0.4967210000000 1.0
C      1  0.5415470000000  0.4907380000000  0.5520120000000 1.0
C      1  0.5248540000000  0.5296860000000  0.5584890000000 1.0
C      1  0.4765370000000  0.5322820000000  0.5558190000000 1.0
C      1  0.4646370000000  0.4854870000000  0.5513300000000 1.0
C      1  0.5025660000000  0.4589060000000  0.5476230000000 1.0
C      1  0.5046900000000  0.4670080000000  0.4385080000000 1.0
C      1  0.5463540000000  0.4938080000000  0.4472270000000 1.0
C      1  0.5162970000000  0.5386300000000  0.4448860000000 1.0
C      1  0.4683630000000  0.5303670000000  0.4491310000000 1.0
C      1  0.4673890000000  0.4847060000000  0.4462090000000 1.0
C      1  0.4865190000000  0.5237370000000  0.5296970000000 1.0
C      1  0.4791340000000  0.4944640000000  0.5271330000000 1.0
C      1  0.5041290000000  0.4795630000000  0.5303800000000 1.0
C      1  0.5244330000000  0.4955990000000  0.5325360000000 1.0
C      1  0.5153580000000  0.5228380000000  0.5319930000000 1.0
C      1  0.4063990000000  0.5105310000000  0.4619480000000 1.0
C      1  0.4552710000000  0.4104440000000  0.4567280000000 1.0
C      1  0.5707630000000  0.4392860000000  0.4610820000000 1.0
C      1  0.5810550000000  0.5464330000000  0.4638570000000 1.0
C      1  0.4791880000000  0.5904980000000  0.4638810000000 1.0
C      1  0.5507100000000  0.4087810000000  0.5507360000000 1.0
C      1  0.6009660000000  0.5217140000000  0.5404800000000 1.0
C      1  0.5061340000000  0.5917660000000  0.5395630000000 1.0
C      1  0.4142220000000  0.5272150000000  0.5548210000000 1.0
C      1  0.4440650000000  0.4161300000000  0.5320520000000 1.0
C      1  0.5217720000000  0.5584090000000  0.5717900000000 1.0
C      1  0.4524480000000  0.5459650000000  0.5649800000000 1.0
C      1  0.4592360000000  0.4676820000000  0.5706460000000 1.0
C      1  0.5220280000000  0.4461850000000  0.5675790000000 1.0
C      1  0.5632640000000  0.5009010000000  0.5672430000000 1.0
C      1  0.4799720000000  0.5035590000000  0.5966070000000 1.0
C      1  0.5046460000000  0.4934910000000  0.4312880000000 1.0
C      1  0.4914600000000  0.5075420000000  0.3893060000000 1.0
END
