TITL C-2441159-1093-909 0.0161805737572834 125000 -15658.9861466018 0 0 108 (C1) n - 1
REM
REM in /home/bkarasulu/work/CARBON/AIRSS/Generating-Clusters/ReaxFF-fromJPCA2015/Units_Real/with-SteepDescent/Higher-Symm
REM
REM
REM
REM
REM
REM ./C.cell (1df0a924f5614ab8850e4351716899ee)
REM
REM compiler GCC version 9.2.1 20190827 (Red Hat 9.2.1-1)
REM options -cpp -mtune=generic -march=x86-64 -g -O0 -fpre-include=/usr/include/finclude/math-vector-fortran.h
REM seed 1369698294 -279525230 -975579972 828887467 84009435 1734124402 -773657846 1348408333 342768663 565004318 -1016081462 -861051093 -870027585 1519258221 1209237180 2047222087 -388189517 166726630 -1716629827 1158135979 1630103806 1357082060 -722107134 -1994256225 -1932445448 1128899502 1053067186 -216596222 1518055289 1300971223 801612512 -905545483 -111548180
REM
CELL 1.54180   50.00000   50.00000   50.00000   90.00000   90.00000   90.00000
LATT -1
SFAC C  
C      1  0.5786900000000  0.5332640000000  0.4754140000000 1.0
C      1  0.4844900000000  0.5342620000000  0.5853250000000 1.0
C      1  0.4432280000000  0.5372350000000  0.4409400000000 1.0
C      1  0.4231740000000  0.4681410000000  0.4749650000000 1.0
C      1  0.5132390000000  0.4677960000000  0.5850440000000 1.0
C      1  0.5579220000000  0.4695960000000  0.4437680000000 1.0
C      1  0.4826420000000  0.4733630000000  0.5449310000000 1.0
C      1  0.4782840000000  0.4727720000000  0.4647490000000 1.0
C      1  0.5455290000000  0.4774370000000  0.5011740000000 1.0
C      1  0.5201320000000  0.5262160000000  0.5410370000000 1.0
C      1  0.5216260000000  0.5252890000000  0.4630940000000 1.0
C      1  0.4584330000000  0.5251060000000  0.4979340000000 1.0
C      1  0.5775640000000  0.5402540000000  0.5041440000000 1.0
C      1  0.4625270000000  0.5432100000000  0.5683960000000 1.0
C      1  0.4686700000000  0.5467240000000  0.4295970000000 1.0
C      1  0.4226810000000  0.4598890000000  0.5035310000000 1.0
C      1  0.5390160000000  0.4592900000000  0.5738410000000 1.0
C      1  0.5333000000000  0.4498410000000  0.4301130000000 1.0
C      1  0.4464620000000  0.4463330000000  0.5702200000000 1.0
C      1  0.4672710000000  0.4399190000000  0.4177940000000 1.0
C      1  0.5869450000000  0.4459010000000  0.5094270000000 1.0
C      1  0.5534490000000  0.5540330000000  0.5700820000000 1.0
C      1  0.5308290000000  0.5605870000000  0.4188410000000 1.0
C      1  0.4124290000000  0.5528770000000  0.5098390000000 1.0
C      1  0.4483400000000  0.5195160000000  0.5593180000000 1.0
C      1  0.4880330000000  0.5036930000000  0.4250510000000 1.0
C      1  0.5792110000000  0.5160840000000  0.5191800000000 1.0
C      1  0.5521870000000  0.4817770000000  0.5611790000000 1.0
C      1  0.5133320000000  0.4935370000000  0.4243630000000 1.0
C      1  0.4226340000000  0.4837660000000  0.5189980000000 1.0
C      1  0.4329580000000  0.4431210000000  0.4590150000000 1.0
C      1  0.5651570000000  0.4460730000000  0.4584590000000 1.0
C      1  0.4952690000000  0.4518880000000  0.5650050000000 1.0
C      1  0.5647880000000  0.5569100000000  0.4602220000000 1.0
C      1  0.4351640000000  0.5578900000000  0.4603260000000 1.0
C      1  0.5025400000000  0.5493730000000  0.5677010000000 1.0
C      1  0.5034540000000  0.4869350000000  0.4704320000000 1.0
C      1  0.5311480000000  0.4881190000000  0.5232760000000 1.0
C      1  0.4684520000000  0.4798700000000  0.5182480000000 1.0
C      1  0.4957090000000  0.5142870000000  0.4670370000000 1.0
C      1  0.4725250000000  0.5094440000000  0.5177100000000 1.0
C      1  0.5320280000000  0.5165350000000  0.5167480000000 1.0
C      1  0.5129080000000  0.4965940000000  0.5847900000000 1.0
C      1  0.4263790000000  0.4964950000000  0.4714570000000 1.0
C      1  0.5605670000000  0.4968720000000  0.4470620000000 1.0
C      1  0.4858270000000  0.5053930000000  0.5858320000000 1.0
C      1  0.5756110000000  0.5053180000000  0.4699080000000 1.0
C      1  0.4449800000000  0.5088750000000  0.4517750000000 1.0
C      1  0.4705640000000  0.4212270000000  0.4375110000000 1.0
C      1  0.5681880000000  0.4260610000000  0.5032520000000 1.0
C      1  0.4580790000000  0.4262490000000  0.5530890000000 1.0
C      1  0.5266860000000  0.5769370000000  0.4410220000000 1.0
C      1  0.4314930000000  0.5729390000000  0.5087420000000 1.0
C      1  0.5407410000000  0.5734970000000  0.5533380000000 1.0
C      1  0.4451090000000  0.4335920000000  0.4336840000000 1.0
C      1  0.5807400000000  0.4382150000000  0.4823570000000 1.0
C      1  0.4730100000000  0.4365050000000  0.5732140000000 1.0
C      1  0.5523280000000  0.5676070000000  0.4357760000000 1.0
C      1  0.4194070000000  0.5628170000000  0.4842980000000 1.0
C      1  0.5264100000000  0.5631630000000  0.5740840000000 1.0
C      1  0.4600470000000  0.5690040000000  0.4653630000000 1.0
C      1  0.5549660000000  0.5672450000000  0.4825030000000 1.0
C      1  0.4803970000000  0.5623140000000  0.5554800000000 1.0
C      1  0.5429120000000  0.4295970000000  0.4500890000000 1.0
C      1  0.4406960000000  0.4303310000000  0.4811790000000 1.0
C      1  0.5251260000000  0.4360680000000  0.5609520000000 1.0
C      1  0.5591670000000  0.5259750000000  0.5666140000000 1.0
C      1  0.4153940000000  0.5266530000000  0.5188990000000 1.0
C      1  0.5193140000000  0.5344230000000  0.4187610000000 1.0
C      1  0.4411200000000  0.4745410000000  0.5669110000000 1.0
C      1  0.5855970000000  0.4728640000000  0.5198630000000 1.0
C      1  0.4809090000000  0.4638260000000  0.4194590000000 1.0
C      1  0.5326200000000  0.5135590000000  0.4366380000000 1.0
C      1  0.5352700000000  0.5083680000000  0.5649620000000 1.0
C      1  0.4287950000000  0.5086490000000  0.4995020000000 1.0
C      1  0.4694520000000  0.4848660000000  0.4365870000000 1.0
C      1  0.4638860000000  0.4937770000000  0.5665610000000 1.0
C      1  0.5729910000000  0.4909840000000  0.4993960000000 1.0
C      1  0.5329100000000  0.5156110000000  0.4872070000000 1.0
C      1  0.4944310000000  0.5142220000000  0.5365710000000 1.0
C      1  0.4669480000000  0.5200100000000  0.4706700000000 1.0
C      1  0.4708420000000  0.4734370000000  0.4911550000000 1.0
C      1  0.5060860000000  0.4878420000000  0.5370020000000 1.0
C      1  0.5307190000000  0.4876630000000  0.4796560000000 1.0
C      1  0.5075640000000  0.5723740000000  0.5144040000000 1.0
C      1  0.4716610000000  0.5608090000000  0.4889170000000 1.0
C      1  0.4998640000000  0.5680300000000  0.4869850000000 1.0
C      1  0.4875680000000  0.4320590000000  0.5112780000000 1.0
C      1  0.5141460000000  0.4361280000000  0.5016750000000 1.0
C      1  0.4933240000000  0.4321830000000  0.4840210000000 1.0
C      1  0.5050660000000  0.5716810000000  0.4590290000000 1.0
C      1  0.5337940000000  0.5717880000000  0.5258640000000 1.0
C      1  0.4598410000000  0.5725620000000  0.5117190000000 1.0
C      1  0.4926000000000  0.4241180000000  0.4565150000000 1.0
C      1  0.4632710000000  0.4274910000000  0.5251540000000 1.0
C      1  0.5396060000000  0.4230760000000  0.5107120000000 1.0
C      1  0.4903750000000  0.5304390000000  0.4188930000000 1.0
C      1  0.5786620000000  0.5129450000000  0.5482320000000 1.0
C      1  0.4226170000000  0.5169490000000  0.5456630000000 1.0
C      1  0.5097850000000  0.4665840000000  0.4192280000000 1.0
C      1  0.4221690000000  0.4871600000000  0.5479490000000 1.0
C      1  0.5777360000000  0.4831890000000  0.5468320000000 1.0
C      1  0.4791270000000  0.5682290000000  0.4458710000000 1.0
C      1  0.5564540000000  0.5638400000000  0.5088700000000 1.0
C      1  0.4823260000000  0.5730870000000  0.5292800000000 1.0
C      1  0.5173470000000  0.4348100000000  0.4482150000000 1.0
C      1  0.4400040000000  0.4338600000000  0.5082510000000 1.0
C      1  0.5340130000000  0.4282720000000  0.5368060000000 1.0
END
