TITL C-2441159-1093-910 0.124036711925933 125000 -26050.4102766677 0 0 193 (C1) n - 1
REM
REM in /home/bkarasulu/work/CARBON/AIRSS/Generating-Clusters/ReaxFF-fromJPCA2015/Units_Real/with-SteepDescent/Higher-Symm
REM
REM
REM
REM
REM
REM ./C.cell (1df0a924f5614ab8850e4351716899ee)
REM
REM compiler GCC version 9.2.1 20190827 (Red Hat 9.2.1-1)
REM options -cpp -mtune=generic -march=x86-64 -g -O0 -fpre-include=/usr/include/finclude/math-vector-fortran.h
REM seed 1717263702 1002554300 48428563 -5533779 -942305057 -422002781 1848733978 -595266236 1060625142 -2003322173 19692676 -1872053642 1693706161 1983285383 2027546631 2108590720 394288656 -717137506 1010081944 -1240537277 -1685155716 413169020 -1700614751 -918972705 -1133403294 -1095737073 539375842 1827661968 -553746656 -1223416131 -1734174937 -2065748091 857883966
REM
CELL 1.54180   50.00000   50.00000   50.00000   90.00000   90.00000   90.00000
LATT -1
SFAC C  
C      1  0.4933520000000  0.5346100000000  0.5987870000000 1.0
C      1  0.4929050000000  0.4642410000000  0.6003030000000 1.0
C      1  0.5754380000000  0.5305090000000  0.5659880000000 1.0
C      1  0.5788000000000  0.4683910000000  0.5704880000000 1.0
C      1  0.4676200000000  0.4872250000000  0.3996630000000 1.0
C      1  0.4681160000000  0.5177400000000  0.4005600000000 1.0
C      1  0.5563960000000  0.4421480000000  0.5649640000000 1.0
C      1  0.5548210000000  0.5507590000000  0.5657740000000 1.0
C      1  0.5062240000000  0.4169850000000  0.4431670000000 1.0
C      1  0.4990380000000  0.5750630000000  0.4351030000000 1.0
C      1  0.5335300000000  0.4029730000000  0.4463850000000 1.0
C      1  0.5376530000000  0.5816570000000  0.4617400000000 1.0
C      1  0.4947990000000  0.3939720000000  0.4573330000000 1.0
C      1  0.4994740000000  0.5994710000000  0.4527910000000 1.0
C      1  0.5884800000000  0.5631930000000  0.5164210000000 1.0
C      1  0.5834850000000  0.4375520000000  0.5088000000000 1.0
C      1  0.5121860000000  0.5193280000000  0.4095530000000 1.0
C      1  0.5147760000000  0.4796870000000  0.4060090000000 1.0
C      1  0.4324960000000  0.5985200000000  0.5013060000000 1.0
C      1  0.4284620000000  0.4115550000000  0.5030850000000 1.0
C      1  0.5364640000000  0.4798100000000  0.5412380000000 1.0
C      1  0.5402310000000  0.5070400000000  0.5492180000000 1.0
C      1  0.4234430000000  0.4871470000000  0.4218050000000 1.0
C      1  0.4253800000000  0.5146610000000  0.4239890000000 1.0
C      1  0.4322460000000  0.5073190000000  0.5395560000000 1.0
C      1  0.4369640000000  0.4796370000000  0.5454610000000 1.0
C      1  0.4351930000000  0.5396790000000  0.4968680000000 1.0
C      1  0.4218720000000  0.4397110000000  0.5085700000000 1.0
C      1  0.5516780000000  0.4898650000000  0.4475030000000 1.0
C      1  0.5508580000000  0.5204940000000  0.4408120000000 1.0
C      1  0.5370870000000  0.3979260000000  0.5531580000000 1.0
C      1  0.5346970000000  0.5995730000000  0.5532430000000 1.0
C      1  0.4579030000000  0.4360950000000  0.5906630000000 1.0
C      1  0.4575170000000  0.5630500000000  0.5839400000000 1.0
C      1  0.4375910000000  0.5636990000000  0.5282180000000 1.0
C      1  0.4389030000000  0.4540840000000  0.5285380000000 1.0
C      1  0.5810440000000  0.5171300000000  0.4353380000000 1.0
C      1  0.5801140000000  0.4881180000000  0.4393490000000 1.0
C      1  0.6178920000000  0.4870280000000  0.4742080000000 1.0
C      1  0.6155030000000  0.5146820000000  0.4728450000000 1.0
C      1  0.4427090000000  0.4841740000000  0.4996670000000 1.0
C      1  0.4307510000000  0.5105010000000  0.5099400000000 1.0
C      1  0.4905350000000  0.5339720000000  0.4906560000000 1.0
C      1  0.4904870000000  0.4693050000000  0.4877620000000 1.0
C      1  0.5226650000000  0.4867100000000  0.5185130000000 1.0
C      1  0.5214540000000  0.5152620000000  0.5280280000000 1.0
C      1  0.5392570000000  0.4515780000000  0.4823220000000 1.0
C      1  0.5403390000000  0.5534460000000  0.4857530000000 1.0
C      1  0.5223200000000  0.3954390000000  0.4990920000000 1.0
C      1  0.5260570000000  0.6034380000000  0.4992150000000 1.0
C      1  0.4101230000000  0.5275460000000  0.4437350000000 1.0
C      1  0.4075050000000  0.4730650000000  0.4406020000000 1.0
C      1  0.5627440000000  0.4851470000000  0.5877580000000 1.0
C      1  0.5635870000000  0.5139460000000  0.5884440000000 1.0
C      1  0.5224310000000  0.6058550000000  0.4690560000000 1.0
C      1  0.5201470000000  0.3879700000000  0.4693530000000 1.0
C      1  0.4732510000000  0.4870510000000  0.5055670000000 1.0
C      1  0.4714820000000  0.5132070000000  0.4957620000000 1.0
C      1  0.6159170000000  0.4798600000000  0.5046750000000 1.0
C      1  0.6104240000000  0.5264050000000  0.4979880000000 1.0
C      1  0.5564270000000  0.4105310000000  0.4671950000000 1.0
C      1  0.5649600000000  0.5928600000000  0.4677790000000 1.0
C      1  0.5573110000000  0.4164690000000  0.5470650000000 1.0
C      1  0.5570860000000  0.5846490000000  0.5420060000000 1.0
C      1  0.4549020000000  0.4550530000000  0.4511690000000 1.0
C      1  0.4599460000000  0.5614130000000  0.4422320000000 1.0
C      1  0.4745360000000  0.4449850000000  0.4871270000000 1.0
C      1  0.4598290000000  0.5532140000000  0.4874940000000 1.0
C      1  0.5096840000000  0.5606940000000  0.5285370000000 1.0
C      1  0.5208500000000  0.4379930000000  0.5268620000000 1.0
C      1  0.5900200000000  0.4777700000000  0.5009290000000 1.0
C      1  0.5815950000000  0.5276280000000  0.4964680000000 1.0
C      1  0.5426240000000  0.4835610000000  0.3949080000000 1.0
C      1  0.5380730000000  0.5127430000000  0.3975280000000 1.0
C      1  0.4381040000000  0.4145480000000  0.5436970000000 1.0
C      1  0.4403790000000  0.5895640000000  0.5397630000000 1.0
C      1  0.4002640000000  0.5131920000000  0.4656320000000 1.0
C      1  0.4080200000000  0.4852370000000  0.4674710000000 1.0
C      1  0.5044510000000  0.5509920000000  0.4502340000000 1.0
C      1  0.5016790000000  0.4427080000000  0.4565040000000 1.0
C      1  0.5713940000000  0.5531890000000  0.4872540000000 1.0
C      1  0.5681800000000  0.4471120000000  0.4844600000000 1.0
C      1  0.4828340000000  0.4567570000000  0.4382310000000 1.0
C      1  0.4794480000000  0.5400130000000  0.4437270000000 1.0
C      1  0.4896320000000  0.4669010000000  0.3968670000000 1.0
C      1  0.4911290000000  0.5366690000000  0.4001140000000 1.0
C      1  0.5216620000000  0.3873620000000  0.5321040000000 1.0
C      1  0.5216340000000  0.6119500000000  0.5312870000000 1.0
C      1  0.5507610000000  0.4075410000000  0.4950490000000 1.0
C      1  0.5564790000000  0.5956290000000  0.4952300000000 1.0
C      1  0.5239160000000  0.4622530000000  0.4599940000000 1.0
C      1  0.5286140000000  0.5383850000000  0.4621750000000 1.0
C      1  0.5486730000000  0.4237600000000  0.4281090000000 1.0
C      1  0.5476680000000  0.5761390000000  0.4330390000000 1.0
C      1  0.5509160000000  0.4908870000000  0.4770620000000 1.0
C      1  0.5390720000000  0.5114720000000  0.4905950000000 1.0
C      1  0.4441930000000  0.4721550000000  0.4081380000000 1.0
C      1  0.4439220000000  0.5310550000000  0.4095080000000 1.0
C      1  0.5322350000000  0.5470410000000  0.5161890000000 1.0
C      1  0.5193090000000  0.4603230000000  0.5035290000000 1.0
C      1  0.4891430000000  0.4909760000000  0.4438040000000 1.0
C      1  0.4718410000000  0.5128770000000  0.4471230000000 1.0
C      1  0.5475970000000  0.4576930000000  0.4054570000000 1.0
C      1  0.5496420000000  0.5336430000000  0.4136880000000 1.0
C      1  0.4825330000000  0.4803920000000  0.5318510000000 1.0
C      1  0.4732650000000  0.5244910000000  0.5336270000000 1.0
C      1  0.4134170000000  0.4452220000000  0.4382920000000 1.0
C      1  0.4142560000000  0.5557650000000  0.4417330000000 1.0
C      1  0.4008330000000  0.5127830000000  0.5145570000000 1.0
C      1  0.3932660000000  0.4804870000000  0.5171040000000 1.0
C      1  0.5544590000000  0.5556110000000  0.5371060000000 1.0
C      1  0.5546530000000  0.4574540000000  0.5397770000000 1.0
C      1  0.4972420000000  0.4447770000000  0.4140110000000 1.0
C      1  0.5049580000000  0.5617440000000  0.4095670000000 1.0
C      1  0.5617360000000  0.5122810000000  0.5105560000000 1.0
C      1  0.5648680000000  0.4831780000000  0.5021120000000 1.0
C      1  0.4003570000000  0.5321820000000  0.5392450000000 1.0
C      1  0.3981540000000  0.4625780000000  0.5383160000000 1.0
C      1  0.4874520000000  0.4918320000000  0.5574310000000 1.0
C      1  0.4977920000000  0.5175330000000  0.5472410000000 1.0
C      1  0.5286980000000  0.4397810000000  0.4132990000000 1.0
C      1  0.5343020000000  0.5595230000000  0.4132610000000 1.0
C      1  0.4438900000000  0.4741630000000  0.5886670000000 1.0
C      1  0.4430330000000  0.5253210000000  0.5830570000000 1.0
C      1  0.5870020000000  0.5539890000000  0.4608110000000 1.0
C      1  0.5861580000000  0.4483200000000  0.4608780000000 1.0
C      1  0.4765190000000  0.4133410000000  0.5221640000000 1.0
C      1  0.4772070000000  0.5913160000000  0.5200140000000 1.0
C      1  0.4656910000000  0.5651130000000  0.5125650000000 1.0
C      1  0.4681410000000  0.4410780000000  0.5156580000000 1.0
C      1  0.4188320000000  0.5536240000000  0.5486370000000 1.0
C      1  0.4242230000000  0.4383900000000  0.5526670000000 1.0
C      1  0.5703470000000  0.4274270000000  0.4477600000000 1.0
C      1  0.5743960000000  0.5747420000000  0.4456010000000 1.0
C      1  0.4295620000000  0.5890090000000  0.4756650000000 1.0
C      1  0.4310520000000  0.4147880000000  0.4741320000000 1.0
C      1  0.4866530000000  0.5464290000000  0.5178500000000 1.0
C      1  0.4837200000000  0.4550270000000  0.5331300000000 1.0
C      1  0.4644420000000  0.5382260000000  0.5985700000000 1.0
C      1  0.4646880000000  0.4606440000000  0.6045690000000 1.0
C      1  0.5116230000000  0.4850850000000  0.6017630000000 1.0
C      1  0.5124950000000  0.5137690000000  0.6038860000000 1.0
C      1  0.5687190000000  0.5099330000000  0.5443380000000 1.0
C      1  0.5897400000000  0.4848190000000  0.5482770000000 1.0
C      1  0.5333080000000  0.4473160000000  0.5827130000000 1.0
C      1  0.5355050000000  0.5495490000000  0.5858060000000 1.0
C      1  0.5085730000000  0.5542050000000  0.5828720000000 1.0
C      1  0.5043990000000  0.4422510000000  0.5841030000000 1.0
C      1  0.5000590000000  0.5537100000000  0.5558360000000 1.0
C      1  0.5064310000000  0.4466050000000  0.5494000000000 1.0
C      1  0.5389500000000  0.5248150000000  0.5983910000000 1.0
C      1  0.5360890000000  0.4727950000000  0.5926800000000 1.0
C      1  0.6127470000000  0.4935120000000  0.5314540000000 1.0
C      1  0.6124500000000  0.5223740000000  0.5271560000000 1.0
C      1  0.4794630000000  0.4086110000000  0.5533810000000 1.0
C      1  0.4779320000000  0.5912520000000  0.5496430000000 1.0
C      1  0.4097370000000  0.5695730000000  0.4669290000000 1.0
C      1  0.4098250000000  0.4308280000000  0.4637070000000 1.0
C      1  0.4066040000000  0.4816570000000  0.5570540000000 1.0
C      1  0.4049010000000  0.5108690000000  0.5568160000000 1.0
C      1  0.5730020000000  0.5884700000000  0.5178130000000 1.0
C      1  0.5664730000000  0.4155910000000  0.5186590000000 1.0
C      1  0.3944090000000  0.4718760000000  0.4898880000000 1.0
C      1  0.3934240000000  0.5262060000000  0.4896610000000 1.0
C      1  0.4428970000000  0.4815220000000  0.4708720000000 1.0
C      1  0.4572370000000  0.5080210000000  0.4704360000000 1.0
C      1  0.4584630000000  0.4877750000000  0.5657050000000 1.0
C      1  0.4535110000000  0.5173380000000  0.5553240000000 1.0
C      1  0.5936330000000  0.5432140000000  0.5363910000000 1.0
C      1  0.5825040000000  0.4525640000000  0.5329120000000 1.0
C      1  0.5999850000000  0.4734580000000  0.4549180000000 1.0
C      1  0.6005730000000  0.5294930000000  0.4535080000000 1.0
C      1  0.5041720000000  0.6044080000000  0.5520710000000 1.0
C      1  0.5033960000000  0.3931490000000  0.5527020000000 1.0
C      1  0.4994340000000  0.5884790000000  0.4998160000000 1.0
C      1  0.4938310000000  0.4050180000000  0.5000040000000 1.0
C      1  0.4493330000000  0.6084750000000  0.5207010000000 1.0
C      1  0.4479740000000  0.3999320000000  0.5223920000000 1.0
C      1  0.5051350000000  0.4850640000000  0.4676480000000 1.0
C      1  0.5133060000000  0.5169640000000  0.4787200000000 1.0
C      1  0.4316470000000  0.5510750000000  0.5754770000000 1.0
C      1  0.4344790000000  0.4478530000000  0.5792380000000 1.0
C      1  0.4761750000000  0.5664740000000  0.5621380000000 1.0
C      1  0.4800610000000  0.4278740000000  0.5753960000000 1.0
C      1  0.4837950000000  0.5925810000000  0.4759480000000 1.0
C      1  0.4780840000000  0.4044120000000  0.4774680000000 1.0
C      1  0.4385080000000  0.5557310000000  0.4251050000000 1.0
C      1  0.4400940000000  0.4494400000000  0.4268090000000 1.0
C      1  0.4092540000000  0.5504650000000  0.4892210000000 1.0
C      1  0.4031070000000  0.4458100000000  0.4879060000000 1.0
C      1  0.4579450000000  0.5759240000000  0.4680120000000 1.0
C      1  0.4584180000000  0.4266900000000  0.4688110000000 1.0
C      1  0.5073740000000  0.4977500000000  0.4249860000000 1.0
END
