TITL C-2441157-2117-86 -0.000307046573128501 125000 -1343.28373228066 0 0 11 (Cs) n - 1
REM
REM in /home/bkarasulu/work/CARBON/AIRSS/Generating-Clusters/ReaxFF-fromJPCA2015/Units_Real/with-SteepDescent/Higher-Symm
REM
REM
REM
REM
REM
REM ./C.cell (1df0a924f5614ab8850e4351716899ee)
REM
REM compiler GCC version 9.2.1 20190827 (Red Hat 9.2.1-1)
REM options -cpp -mtune=generic -march=x86-64 -g -O0 -fpre-include=/usr/include/finclude/math-vector-fortran.h
REM seed -327236048 1002685091 -1780031087 1168422226 -1807062170 -1974985628 1123186492 1981495785 -1895849887 2126407088 272314070 12066419 -1089340625 1753653440 1122276893 -451663212 -658491089 -1455610218 378023570 -1476564860 937751810 1119322351 890665 -1669974416 -260341771 2028457248 -575028269 1252896905 -692351354 861010341 1966840932 2021501124 -1326304072
REM
CELL 1.54180   50.00000   50.00000   50.00000   90.00000   90.00000   90.00000
LATT -1
SFAC C  
C      1  0.4903500000000  0.4872940000000  0.5413550000000 1.0
C      1  0.5399480000000  0.4858220000000  0.5069890000000 1.0
C      1  0.5154240000000  0.4858340000000  0.4638980000000 1.0
C      1  0.4605240000000  0.4872940000000  0.4890280000000 1.0
C      1  0.4911060000000  0.5131160000000  0.5386290000000 1.0
C      1  0.5403850000000  0.5160130000000  0.5069240000000 1.0
C      1  0.5157030000000  0.5160020000000  0.4635560000000 1.0
C      1  0.4632580000000  0.5131150000000  0.4897640000000 1.0
C      1  0.5142480000000  0.5225730000000  0.4930810000000 1.0
C      1  0.5131820000000  0.4809760000000  0.4936870000000 1.0
C      1  0.4942780000000  0.5028370000000  0.5044540000000 1.0
END
