TITL C-2441158-471-1261 -0.00213543924030055 125000 -3139.38564674871 0 0 24 (D2) n - 1
REM
REM in /home/bkarasulu/work/CARBON/AIRSS/Generating-Clusters/ReaxFF-fromJPCA2015/Units_Real/with-SteepDescent/Higher-Symm
REM
REM
REM
REM
REM
REM ./C.cell (1df0a924f5614ab8850e4351716899ee)
REM
REM compiler GCC version 9.2.1 20190827 (Red Hat 9.2.1-1)
REM options -cpp -mtune=generic -march=x86-64 -g -O0 -fpre-include=/usr/include/finclude/math-vector-fortran.h
REM seed 251939294 -427572359 1581818700 -63065405 324364097 -689479348 -934888857 -1697221705 1706550312 -400180260 602402070 1178535665 -1611075093 1938740274 899942985 -1502283899 689063366 6109853 1710980413 -1916148516 -1770840414 -372093987 639275686 444303635 450308662 -1060645598 -2059550532 -323177223 -518726451 -333529888 -642503327 666553708 -1564527593
REM
CELL 1.54180   50.00000   50.00000   50.00000   90.00000   90.00000   90.00000
LATT -1
SFAC C  
C      1  0.4659240000000  0.5194210000000  0.5357800000000 1.0
C      1  0.5340760000000  0.4805790000000  0.5357800000000 1.0
C      1  0.5340760000000  0.5194210000000  0.4642200000000 1.0
C      1  0.4659240000000  0.4805790000000  0.4642200000000 1.0
C      1  0.4904320000000  0.5262870000000  0.5478480000000 1.0
C      1  0.5095680000000  0.4737130000000  0.5478480000000 1.0
C      1  0.5095680000000  0.5262870000000  0.4521520000000 1.0
C      1  0.4904320000000  0.4737130000000  0.4521520000000 1.0
C      1  0.5543570000000  0.5043480000000  0.5121880000000 1.0
C      1  0.4456430000000  0.4956520000000  0.5121880000000 1.0
C      1  0.4456430000000  0.5043480000000  0.4878120000000 1.0
C      1  0.5543570000000  0.4956520000000  0.4878120000000 1.0
C      1  0.5002950000000  0.5420020000000  0.5207240000000 1.0
C      1  0.4997050000000  0.4579980000000  0.5207240000000 1.0
C      1  0.4997050000000  0.5420020000000  0.4792760000000 1.0
C      1  0.5002950000000  0.4579980000000  0.4792760000000 1.0
C      1  0.4511370000000  0.4756990000000  0.4904290000000 1.0
C      1  0.5488630000000  0.5243010000000  0.4904290000000 1.0
C      1  0.5488630000000  0.4756990000000  0.5095710000000 1.0
C      1  0.4511370000000  0.5243010000000  0.5095710000000 1.0
C      1  0.4794270000000  0.5405640000000  0.5006890000000 1.0
C      1  0.5205730000000  0.4594360000000  0.5006890000000 1.0
C      1  0.5205730000000  0.5405640000000  0.4993110000000 1.0
C      1  0.4794270000000  0.4594360000000  0.4993110000000 1.0
END
