TITL C-2441169-1362-1451 0.0156526765555491 125000 -21137.6542410069 0 0 146 (Cs) n - 1
REM
REM in /home/bkarasulu/work/CARBON/AIRSS/Generating-Clusters/ReaxFF-fromJPCA2015/Units_Real/with-SteepDescent/Higher-Symm
REM
REM
REM
REM
REM
REM ./C.cell (1df0a924f5614ab8850e4351716899ee)
REM
REM compiler GCC version 9.2.1 20190827 (Red Hat 9.2.1-1)
REM options -cpp -mtune=generic -march=x86-64 -g -O0 -fpre-include=/usr/include/finclude/math-vector-fortran.h
REM seed -1504991202 1519090157 -354833986 323787502 -1348307467 -765141217 1250337119 -1457380116 -2038252217 1165462442 2082846292 1713407119 -1094747560 2042809747 -790928545 777548382 1033838616 524877252 282872050 -481615184 1334812856 -475865854 -280435848 1797628305 -2012651536 -1766981125 -1421882610 527875922 -1411870754 -318031917 1038040137 -711178027 -1141238745
REM
CELL 1.54180   50.00000   50.00000   50.00000   90.00000   90.00000   90.00000
LATT -1
SFAC C  
C      1  0.4091790000000  0.5421300000000  0.4846780000000 1.0
C      1  0.5911390000000  0.5424720000000  0.5148330000000 1.0
C      1  0.4093840000000  0.4587510000000  0.4848760000000 1.0
C      1  0.5903280000000  0.4590590000000  0.5150540000000 1.0
C      1  0.4088030000000  0.5424390000000  0.5148100000000 1.0
C      1  0.5905760000000  0.5420910000000  0.4846870000000 1.0
C      1  0.4097180000000  0.4589140000000  0.5151710000000 1.0
C      1  0.5903740000000  0.4592280000000  0.4849210000000 1.0
C      1  0.5149840000000  0.6022260000000  0.4649630000000 1.0
C      1  0.4850120000000  0.6020150000000  0.5349330000000 1.0
C      1  0.5150110000000  0.3987730000000  0.4650150000000 1.0
C      1  0.4850620000000  0.3986510000000  0.5350680000000 1.0
C      1  0.5150140000000  0.6019570000000  0.5349000000000 1.0
C      1  0.4850300000000  0.6022430000000  0.4649740000000 1.0
C      1  0.5149990000000  0.3986440000000  0.5350590000000 1.0
C      1  0.4850310000000  0.3988120000000  0.4650730000000 1.0
C      1  0.5148230000000  0.4758150000000  0.4443650000000 1.0
C      1  0.4850370000000  0.4758140000000  0.5552860000000 1.0
C      1  0.5147000000000  0.5253180000000  0.4445820000000 1.0
C      1  0.4849560000000  0.5245770000000  0.5555940000000 1.0
C      1  0.5148410000000  0.4758500000000  0.5553170000000 1.0
C      1  0.4851670000000  0.4758130000000  0.4443290000000 1.0
C      1  0.5150490000000  0.5246030000000  0.5555470000000 1.0
C      1  0.4853360000000  0.5252350000000  0.4445860000000 1.0
C      1  0.4027330000000  0.4861540000000  0.4764720000000 1.0
C      1  0.5966580000000  0.4864790000000  0.5232900000000 1.0
C      1  0.4057530000000  0.5146990000000  0.4754840000000 1.0
C      1  0.5931090000000  0.5149140000000  0.5239850000000 1.0
C      1  0.4033970000000  0.4864010000000  0.5232380000000 1.0
C      1  0.5962210000000  0.4863980000000  0.4761280000000 1.0
C      1  0.4069480000000  0.5148600000000  0.5238980000000 1.0
C      1  0.5952450000000  0.5147620000000  0.4757670000000 1.0
C      1  0.4765000000000  0.5514730000000  0.4501170000000 1.0
C      1  0.5239060000000  0.5519240000000  0.5503180000000 1.0
C      1  0.4762900000000  0.4493990000000  0.4499270000000 1.0
C      1  0.5232250000000  0.4493820000000  0.5501040000000 1.0
C      1  0.4759980000000  0.5519260000000  0.5504110000000 1.0
C      1  0.5235470000000  0.5515150000000  0.4501580000000 1.0
C      1  0.4765950000000  0.4493560000000  0.5500520000000 1.0
C      1  0.5235930000000  0.4494070000000  0.4499540000000 1.0
C      1  0.4725590000000  0.5547660000000  0.4785190000000 1.0
C      1  0.5282950000000  0.5546500000000  0.5220090000000 1.0
C      1  0.4714440000000  0.4462290000000  0.4779740000000 1.0
C      1  0.5273180000000  0.4460520000000  0.5216710000000 1.0
C      1  0.4716180000000  0.5547350000000  0.5221130000000 1.0
C      1  0.5276660000000  0.5547540000000  0.4784940000000 1.0
C      1  0.4725140000000  0.4460390000000  0.5216560000000 1.0
C      1  0.5283720000000  0.4461910000000  0.4780400000000 1.0
C      1  0.4751960000000  0.5674900000000  0.5738500000000 1.0
C      1  0.5247250000000  0.5671940000000  0.4269250000000 1.0
C      1  0.4753590000000  0.4336530000000  0.5732810000000 1.0
C      1  0.5246720000000  0.4336760000000  0.4266160000000 1.0
C      1  0.4752610000000  0.5672060000000  0.4269030000000 1.0
C      1  0.5247860000000  0.5674370000000  0.5737720000000 1.0
C      1  0.4752850000000  0.4336360000000  0.4265810000000 1.0
C      1  0.5246300000000  0.4336520000000  0.5733070000000 1.0
C      1  0.4270770000000  0.5543780000000  0.5341810000000 1.0
C      1  0.5721260000000  0.5542260000000  0.4657550000000 1.0
C      1  0.4279570000000  0.4466620000000  0.5342070000000 1.0
C      1  0.5725200000000  0.4468400000000  0.4657550000000 1.0
C      1  0.4276340000000  0.5543940000000  0.4656660000000 1.0
C      1  0.5729040000000  0.5543910000000  0.5341940000000 1.0
C      1  0.4273850000000  0.4466810000000  0.4656460000000 1.0
C      1  0.5721630000000  0.4467430000000  0.5342200000000 1.0
C      1  0.5649520000000  0.5151790000000  0.5334090000000 1.0
C      1  0.4339950000000  0.5149520000000  0.4664870000000 1.0
C      1  0.5679050000000  0.4860340000000  0.5333480000000 1.0
C      1  0.4313660000000  0.4860020000000  0.4664750000000 1.0
C      1  0.5669720000000  0.5148630000000  0.4667930000000 1.0
C      1  0.4351010000000  0.5151770000000  0.5333630000000 1.0
C      1  0.5681670000000  0.4860760000000  0.4662950000000 1.0
C      1  0.4321050000000  0.4859640000000  0.5333700000000 1.0
C      1  0.4813650000000  0.5139150000000  0.5294430000000 1.0
C      1  0.5199510000000  0.5134980000000  0.4701870000000 1.0
C      1  0.4776380000000  0.4879100000000  0.5311160000000 1.0
C      1  0.5222510000000  0.4876270000000  0.4685360000000 1.0
C      1  0.4802460000000  0.5134390000000  0.4702060000000 1.0
C      1  0.5186550000000  0.5139030000000  0.5294430000000 1.0
C      1  0.4776800000000  0.4876100000000  0.4685220000000 1.0
C      1  0.5223220000000  0.4879020000000  0.5311560000000 1.0
C      1  0.5548660000000  0.4856060000000  0.5752330000000 1.0
C      1  0.4446500000000  0.4851220000000  0.4245630000000 1.0
C      1  0.5555400000000  0.5160750000000  0.5755140000000 1.0
C      1  0.4450060000000  0.5156170000000  0.4246420000000 1.0
C      1  0.5554140000000  0.4849880000000  0.4245220000000 1.0
C      1  0.4450820000000  0.4855570000000  0.5752250000000 1.0
C      1  0.5548680000000  0.5155090000000  0.4247350000000 1.0
C      1  0.4444750000000  0.5160410000000  0.5755050000000 1.0
C      1  0.5146180000000  0.5935520000000  0.5638140000000 1.0
C      1  0.4853590000000  0.5935080000000  0.4362230000000 1.0
C      1  0.5146580000000  0.4073460000000  0.5638500000000 1.0
C      1  0.4853780000000  0.4074570000000  0.4362190000000 1.0
C      1  0.5146340000000  0.5935130000000  0.4362130000000 1.0
C      1  0.4854280000000  0.5935560000000  0.5638340000000 1.0
C      1  0.5146070000000  0.4074540000000  0.4361930000000 1.0
C      1  0.4854030000000  0.4073580000000  0.5638470000000 1.0
C      1  0.5146960000000  0.5461540000000  0.4083010000000 1.0
C      1  0.4853080000000  0.5460350000000  0.5920570000000 1.0
C      1  0.5147250000000  0.4549110000000  0.4081760000000 1.0
C      1  0.4852520000000  0.4548460000000  0.5918130000000 1.0
C      1  0.5146880000000  0.5460240000000  0.5920330000000 1.0
C      1  0.4852700000000  0.5461370000000  0.4083110000000 1.0
C      1  0.5147060000000  0.4548470000000  0.5918160000000 1.0
C      1  0.4852640000000  0.4548720000000  0.4081630000000 1.0
C      1  0.5688120000000  0.5347330000000  0.5558270000000 1.0
C      1  0.4316480000000  0.5346230000000  0.4440290000000 1.0
C      1  0.5685070000000  0.4666760000000  0.5558280000000 1.0
C      1  0.4309030000000  0.4665460000000  0.4440430000000 1.0
C      1  0.5682800000000  0.5344120000000  0.4441670000000 1.0
C      1  0.4312060000000  0.5346780000000  0.5557950000000 1.0
C      1  0.5690490000000  0.4663400000000  0.4438930000000 1.0
C      1  0.4315260000000  0.4665840000000  0.5558310000000 1.0
C      1  0.4471580000000  0.5721260000000  0.4826590000000 1.0
C      1  0.5531140000000  0.5721070000000  0.5171210000000 1.0
C      1  0.4471920000000  0.4288710000000  0.4827830000000 1.0
C      1  0.5527890000000  0.4287860000000  0.5171770000000 1.0
C      1  0.4468780000000  0.5721630000000  0.5173260000000 1.0
C      1  0.5526770000000  0.5719890000000  0.4828450000000 1.0
C      1  0.4474670000000  0.4289420000000  0.5171340000000 1.0
C      1  0.5527810000000  0.4288980000000  0.4827130000000 1.0
C      1  0.5356130000000  0.4039250000000  0.5145280000000 1.0
C      1  0.4644760000000  0.4039370000000  0.4855290000000 1.0
C      1  0.5356910000000  0.5970360000000  0.5144670000000 1.0
C      1  0.4643180000000  0.5970450000000  0.4854280000000 1.0
C      1  0.5356450000000  0.4039210000000  0.4854090000000 1.0
C      1  0.4644550000000  0.4040230000000  0.5145840000000 1.0
C      1  0.5356710000000  0.5968980000000  0.4853800000000 1.0
C      1  0.4642740000000  0.5971550000000  0.5145680000000 1.0
C      1  0.5283740000000  0.4801900000000  0.4151280000000 1.0
C      1  0.4720140000000  0.4801740000000  0.5846600000000 1.0
C      1  0.5278480000000  0.5207370000000  0.4154120000000 1.0
C      1  0.4715920000000  0.5207110000000  0.5848640000000 1.0
C      1  0.5279420000000  0.4801710000000  0.5846660000000 1.0
C      1  0.4716240000000  0.4801500000000  0.4151120000000 1.0
C      1  0.5284060000000  0.5207000000000  0.5848320000000 1.0
C      1  0.4721050000000  0.5207090000000  0.4154260000000 1.0
C      1  0.5410140000000  0.4733360000000  0.4845750000000 1.0
C      1  0.4589240000000  0.4735470000000  0.5151220000000 1.0
C      1  0.5404800000000  0.5273110000000  0.4857090000000 1.0
C      1  0.4609450000000  0.5271980000000  0.5157140000000 1.0
C      1  0.5410640000000  0.4735980000000  0.5151400000000 1.0
C      1  0.4587750000000  0.4733260000000  0.4844810000000 1.0
C      1  0.5391490000000  0.5271440000000  0.5157020000000 1.0
C      1  0.4599420000000  0.5273870000000  0.4857770000000 1.0
C      1  0.5001900000000  0.5601390000000  0.4987620000000 1.0
C      1  0.5001800000000  0.4414690000000  0.5016410000000 1.0
END
