TITL C-2441165-58-135 0.0475721217882443 125000 -11257.9265701357 0 0 87 (C1) n - 1
REM
REM in /home/bkarasulu/work/CARBON/AIRSS/Generating-Clusters/ReaxFF-fromJPCA2015/Units_Real/with-SteepDescent/Higher-Symm
REM
REM
REM
REM
REM
REM ./C.cell (1df0a924f5614ab8850e4351716899ee)
REM
REM compiler GCC version 9.2.1 20190827 (Red Hat 9.2.1-1)
REM options -cpp -mtune=generic -march=x86-64 -g -O0 -fpre-include=/usr/include/finclude/math-vector-fortran.h
REM seed 1432171972 407455354 -1081639537 1480287546 -1943017602 1229011720 305985611 -1805161324 -1420326336 -2043559751 -1478396273 -1198786911 859511051 1279100941 -1502679334 1412546705 -1099556629 1788722971 -232466397 215091205 -1731072424 -1285598167 -1710865021 613636082 1245492431 1787358690 139637576 -37696865 1853601937 80469534 1790305251 389862190 1272729725
REM
CELL 1.54180   50.00000   50.00000   50.00000   90.00000   90.00000   90.00000
LATT -1
SFAC C  
C      1  0.5784540000000  0.4671290000000  0.4881230000000 1.0
C      1  0.4884960000000  0.4353430000000  0.4973990000000 1.0
C      1  0.4757840000000  0.5101120000000  0.5276560000000 1.0
C      1  0.4689850000000  0.5288830000000  0.4398700000000 1.0
C      1  0.5631530000000  0.5459560000000  0.5214500000000 1.0
C      1  0.4469790000000  0.5351940000000  0.4988760000000 1.0
C      1  0.5380120000000  0.5273080000000  0.5643370000000 1.0
C      1  0.4420890000000  0.4862690000000  0.5517210000000 1.0
C      1  0.4250860000000  0.4655830000000  0.5064970000000 1.0
C      1  0.4502690000000  0.4466580000000  0.4715500000000 1.0
C      1  0.5046720000000  0.4417130000000  0.4474430000000 1.0
C      1  0.5009230000000  0.5075790000000  0.5420140000000 1.0
C      1  0.5481550000000  0.4694220000000  0.5540220000000 1.0
C      1  0.5108690000000  0.5139100000000  0.5692010000000 1.0
C      1  0.4555770000000  0.5558900000000  0.5380050000000 1.0
C      1  0.4665990000000  0.4879550000000  0.4907550000000 1.0
C      1  0.5213710000000  0.5674360000000  0.5393140000000 1.0
C      1  0.4848890000000  0.5668190000000  0.4634150000000 1.0
C      1  0.5395900000000  0.5734250000000  0.4612600000000 1.0
C      1  0.4725640000000  0.5422010000000  0.5573430000000 1.0
C      1  0.4323620000000  0.5282090000000  0.4748910000000 1.0
C      1  0.5072970000000  0.4217160000000  0.5164450000000 1.0
C      1  0.4699480000000  0.5016120000000  0.4278380000000 1.0
C      1  0.5245360000000  0.5224260000000  0.5098520000000 1.0
C      1  0.5356720000000  0.4453970000000  0.4535600000000 1.0
C      1  0.5026420000000  0.4761370000000  0.5122380000000 1.0
C      1  0.5438150000000  0.5489700000000  0.5452500000000 1.0
C      1  0.5388950000000  0.4699220000000  0.4393090000000 1.0
C      1  0.4489260000000  0.4464350000000  0.5439040000000 1.0
C      1  0.4279280000000  0.4648970000000  0.5354500000000 1.0
C      1  0.4702650000000  0.4281030000000  0.5349330000000 1.0
C      1  0.5006470000000  0.4256580000000  0.4708630000000 1.0
C      1  0.4349580000000  0.4867470000000  0.4894000000000 1.0
C      1  0.4691500000000  0.5122880000000  0.5688360000000 1.0
C      1  0.4758430000000  0.4679690000000  0.5127630000000 1.0
C      1  0.5360500000000  0.5773290000000  0.4904880000000 1.0
C      1  0.5004220000000  0.5508500000000  0.5507810000000 1.0
C      1  0.4902480000000  0.4939600000000  0.5775270000000 1.0
C      1  0.5281700000000  0.4191000000000  0.4731770000000 1.0
C      1  0.5359780000000  0.5311060000000  0.4842920000000 1.0
C      1  0.4325230000000  0.5002020000000  0.4639290000000 1.0
C      1  0.5520560000000  0.5516250000000  0.4456520000000 1.0
C      1  0.5640800000000  0.5167770000000  0.4792410000000 1.0
C      1  0.4938630000000  0.4846120000000  0.4292200000000 1.0
C      1  0.5152110000000  0.5757050000000  0.5116830000000 1.0
C      1  0.4492590000000  0.4883370000000  0.4429580000000 1.0
C      1  0.4485550000000  0.5463440000000  0.4596660000000 1.0
C      1  0.5320760000000  0.4148560000000  0.5015220000000 1.0
C      1  0.5606100000000  0.5245390000000  0.4505810000000 1.0
C      1  0.4914380000000  0.4409130000000  0.5514880000000 1.0
C      1  0.4856000000000  0.4593670000000  0.4370650000000 1.0
C      1  0.4878000000000  0.4902500000000  0.4690510000000 1.0
C      1  0.5339700000000  0.4354980000000  0.5223480000000 1.0
C      1  0.4658030000000  0.4707000000000  0.5456220000000 1.0
C      1  0.5135400000000  0.4559710000000  0.5374290000000 1.0
C      1  0.5229810000000  0.4891050000000  0.4269880000000 1.0
C      1  0.5599140000000  0.5109910000000  0.5543080000000 1.0
C      1  0.4338970000000  0.5377870000000  0.5412630000000 1.0
C      1  0.5628190000000  0.4540960000000  0.5088540000000 1.0
C      1  0.5223320000000  0.4642390000000  0.5639180000000 1.0
C      1  0.4910210000000  0.5604230000000  0.5053130000000 1.0
C      1  0.4854300000000  0.4644120000000  0.5676350000000 1.0
C      1  0.4870470000000  0.5387590000000  0.4204270000000 1.0
C      1  0.5744710000000  0.5219170000000  0.5101430000000 1.0
C      1  0.5116680000000  0.4819760000000  0.4836960000000 1.0
C      1  0.5214160000000  0.5154870000000  0.4654360000000 1.0
C      1  0.4941400000000  0.5445300000000  0.4808490000000 1.0
C      1  0.4940840000000  0.5188270000000  0.4647770000000 1.0
C      1  0.5548660000000  0.5565000000000  0.4957870000000 1.0
C      1  0.5748470000000  0.5011350000000  0.5303500000000 1.0
C      1  0.5088930000000  0.5312120000000  0.5315130000000 1.0
C      1  0.5359900000000  0.5104600000000  0.4425200000000 1.0
C      1  0.5679160000000  0.4716560000000  0.5313190000000 1.0
C      1  0.4734980000000  0.5178290000000  0.5007000000000 1.0
C      1  0.4456050000000  0.5089480000000  0.5346900000000 1.0
C      1  0.4968660000000  0.5606010000000  0.4354550000000 1.0
C      1  0.4622980000000  0.5655270000000  0.5086360000000 1.0
C      1  0.4590620000000  0.5667030000000  0.4766350000000 1.0
C      1  0.4278190000000  0.5252590000000  0.5158500000000 1.0
C      1  0.4579660000000  0.4600520000000  0.4479230000000 1.0
C      1  0.4619280000000  0.4260380000000  0.5062010000000 1.0
C      1  0.5364880000000  0.4973790000000  0.5133760000000 1.0
C      1  0.4381500000000  0.4397750000000  0.4948010000000 1.0
C      1  0.5380540000000  0.4945190000000  0.5420070000000 1.0
C      1  0.5539920000000  0.4886970000000  0.4876800000000 1.0
C      1  0.5254860000000  0.5600310000000  0.4420490000000 1.0
C      1  0.5364000000000  0.4658190000000  0.4793960000000 1.0
END
