TITL C-2441158-471-727 -2.98419940547451e-07 125000 -2873.72369549984 0 0 22 (C3) n - 1
REM
REM in /home/bkarasulu/work/CARBON/AIRSS/Generating-Clusters/ReaxFF-fromJPCA2015/Units_Real/with-SteepDescent/Higher-Symm
REM
REM
REM
REM
REM
REM ./C.cell (1df0a924f5614ab8850e4351716899ee)
REM
REM compiler GCC version 9.2.1 20190827 (Red Hat 9.2.1-1)
REM options -cpp -mtune=generic -march=x86-64 -g -O0 -fpre-include=/usr/include/finclude/math-vector-fortran.h
REM seed 1452471718 -901573684 -839481361 -374461384 -474503644 -2142639734 489316115 1428754403 1371583775 -292176758 839149440 -1005566274 1340140640 1543599483 1653228523 -1056506187 1701904185 -1382267780 -1394103402 -719602081 1024891972 911400425 306732422 916204824 594213021 -1651146922 -1273545263 -693208341 570937396 -934846298 903245743 1528472806 2024383176
REM
CELL 1.54180   50.00000   50.00000   50.00000   90.00000   90.00000   90.00000
LATT -1
SFAC C  
C      1  0.5135670000000  0.5263940000000  0.4777940000000 1.0
C      1  0.4694440000000  0.4981970000000  0.4777940000000 1.0
C      1  0.5159250000000  0.4740840000000  0.4777940000000 1.0
C      1  0.5444720000000  0.4856380000000  0.5208640000000 1.0
C      1  0.4892880000000  0.5453400000000  0.5208640000000 1.0
C      1  0.4651770000000  0.4676980000000  0.5208630000000 1.0
C      1  0.4354430000000  0.5390230000000  0.5193770000000 1.0
C      1  0.4975690000000  0.4242260000000  0.5193770000000 1.0
C      1  0.5659240000000  0.5354270000000  0.5193770000000 1.0
C      1  0.5407060000000  0.4631610000000  0.5220580000000 1.0
C      1  0.5106360000000  0.5533170000000  0.5220590000000 1.0
C      1  0.4475940000000  0.4821970000000  0.5220580000000 1.0
C      1  0.5475260000000  0.5182630000000  0.5173260000000 1.0
C      1  0.4595070000000  0.5316720000000  0.5173260000000 1.0
C      1  0.4919040000000  0.4487410000000  0.5173260000000 1.0
C      1  0.5059240000000  0.5378820000000  0.4566730000000 1.0
C      1  0.4633180000000  0.4858350000000  0.4566730000000 1.0
C      1  0.5296950000000  0.4749600000000  0.4566730000000 1.0
C      1  0.5276440000000  0.5381070000000  0.5049820000000 1.0
C      1  0.4522620000000  0.5045310000000  0.5049820000000 1.0
C      1  0.5190310000000  0.4560370000000  0.5049820000000 1.0
C      1  0.4996460000000  0.4995590000000  0.4708180000000 1.0
END
