TITL C-2441159-1093-486 0.000301847323185882 125000 -6239.79904763056 0 0 44 (D2) n - 1
REM
REM in /home/bkarasulu/work/CARBON/AIRSS/Generating-Clusters/ReaxFF-fromJPCA2015/Units_Real/with-SteepDescent/Higher-Symm
REM
REM
REM
REM
REM
REM ./C.cell (1df0a924f5614ab8850e4351716899ee)
REM
REM compiler GCC version 9.2.1 20190827 (Red Hat 9.2.1-1)
REM options -cpp -mtune=generic -march=x86-64 -g -O0 -fpre-include=/usr/include/finclude/math-vector-fortran.h
REM seed -1840130153 -640052667 -1103216895 120480822 -1305069108 324863660 161886286 1168756398 716739877 -932421293 -1856471421 840282729 -960765857 1322880769 -209256995 673555165 1090316812 1943680251 -1795642274 317113380 -1684884909 1194880159 -383252775 -1268533044 -1969837496 184071920 -1494250571 1436624758 -1910461201 -1745702350 -1790647088 1733060036 568963559
REM
CELL 1.54180   50.00000   50.00000   50.00000   90.00000   90.00000   90.00000
LATT -1
SFAC C  
C      1  0.4488150000000  0.5279280000000  0.4811040000000 1.0
C      1  0.5511840000000  0.4720710000000  0.4811040000000 1.0
C      1  0.5511840000000  0.5279290000000  0.5188960000000 1.0
C      1  0.4488150000000  0.4720720000000  0.5188960000000 1.0
C      1  0.4433570000000  0.4953130000000  0.5253530000000 1.0
C      1  0.5566420000000  0.5046870000000  0.5253530000000 1.0
C      1  0.5566420000000  0.4953130000000  0.4746470000000 1.0
C      1  0.4433570000000  0.5046870000000  0.4746470000000 1.0
C      1  0.4702630000000  0.5126300000000  0.5505870000000 1.0
C      1  0.5297370000000  0.4873690000000  0.5505860000000 1.0
C      1  0.5297370000000  0.5126310000000  0.4494140000000 1.0
C      1  0.4702630000000  0.4873700000000  0.4494130000000 1.0
C      1  0.5140700000000  0.5515510000000  0.5340390000000 1.0
C      1  0.4859310000000  0.4484500000000  0.5340380000000 1.0
C      1  0.4859310000000  0.5515500000000  0.4659620000000 1.0
C      1  0.5140700000000  0.4484490000000  0.4659610000000 1.0
C      1  0.5483840000000  0.4798090000000  0.5299690000000 1.0
C      1  0.4516160000000  0.5201920000000  0.5299700000000 1.0
C      1  0.4516160000000  0.4798080000000  0.4700300000000 1.0
C      1  0.5483840000000  0.5201910000000  0.4700310000000 1.0
C      1  0.5095280000000  0.4817110000000  0.5103580000000 1.0
C      1  0.4904730000000  0.5182900000000  0.5103590000000 1.0
C      1  0.4904730000000  0.4817100000000  0.4896410000000 1.0
C      1  0.5095280000000  0.5182890000000  0.4896420000000 1.0
C      1  0.4871470000000  0.5571580000000  0.4938880000000 1.0
C      1  0.5128530000000  0.4428410000000  0.4938880000000 1.0
C      1  0.5128530000000  0.5571590000000  0.5061120000000 1.0
C      1  0.4871470000000  0.4428420000000  0.5061120000000 1.0
C      1  0.4648820000000  0.4660000000000  0.4960440000000 1.0
C      1  0.5351180000000  0.5340010000000  0.4960430000000 1.0
C      1  0.5351180000000  0.4659990000000  0.5039570000000 1.0
C      1  0.4648820000000  0.5340000000000  0.5039560000000 1.0
C      1  0.4979860000000  0.4744200000000  0.4601030000000 1.0
C      1  0.5020140000000  0.5255800000000  0.4601030000000 1.0
C      1  0.5020140000000  0.4744200000000  0.5398970000000 1.0
C      1  0.4979860000000  0.5255800000000  0.5398970000000 1.0
C      1  0.4762440000000  0.5155210000000  0.4467760000000 1.0
C      1  0.5237570000000  0.4844790000000  0.4467760000000 1.0
C      1  0.5237570000000  0.5155210000000  0.5532240000000 1.0
C      1  0.4762440000000  0.4844790000000  0.5532240000000 1.0
C      1  0.5398040000000  0.5378910000000  0.5414440000000 1.0
C      1  0.4601960000000  0.4621090000000  0.5414440000000 1.0
C      1  0.4601960000000  0.5378910000000  0.4585560000000 1.0
C      1  0.5398040000000  0.4621090000000  0.4585560000000 1.0
END
