TITL C-2441158-471-1353 0.0208050688708381 125000 -6081.39930139502 0 0 46 (C1) n - 1
REM
REM in /home/bkarasulu/work/CARBON/AIRSS/Generating-Clusters/ReaxFF-fromJPCA2015/Units_Real/with-SteepDescent/Higher-Symm
REM
REM
REM
REM
REM
REM ./C.cell (1df0a924f5614ab8850e4351716899ee)
REM
REM compiler GCC version 9.2.1 20190827 (Red Hat 9.2.1-1)
REM options -cpp -mtune=generic -march=x86-64 -g -O0 -fpre-include=/usr/include/finclude/math-vector-fortran.h
REM seed -1307347680 1014851495 280742041 -489004611 843512110 -952125124 398281107 -1788488464 -1916033524 -861814765 1378610304 1115229878 -691207582 -1028330874 -1728423083 -7193585 -1784205024 219095951 1116987310 1573905872 564525195 -368124748 -119138535 1512664247 -2072509165 -1769550541 -866781971 -1718965438 616055236 782545735 1453223755 -173778567 1710799394
REM
CELL 1.54180   50.00000   50.00000   50.00000   90.00000   90.00000   90.00000
LATT -1
SFAC C  
C      1  0.4670540000000  0.4449750000000  0.4874480000000 1.0
C      1  0.4609620000000  0.5544180000000  0.4849830000000 1.0
C      1  0.5620950000000  0.5061420000000  0.4920780000000 1.0
C      1  0.5184930000000  0.4769860000000  0.4442160000000 1.0
C      1  0.4711010000000  0.4964390000000  0.4461350000000 1.0
C      1  0.5116180000000  0.5230630000000  0.4482860000000 1.0
C      1  0.4765110000000  0.5359580000000  0.5526270000000 1.0
C      1  0.5428030000000  0.5027890000000  0.5419080000000 1.0
C      1  0.4822010000000  0.4582930000000  0.5427360000000 1.0
C      1  0.5579310000000  0.4978030000000  0.4662440000000 1.0
C      1  0.4803930000000  0.4536110000000  0.4650000000000 1.0
C      1  0.4751490000000  0.5492940000000  0.4619550000000 1.0
C      1  0.5313430000000  0.4765920000000  0.5388750000000 1.0
C      1  0.4670940000000  0.4830020000000  0.5382100000000 1.0
C      1  0.5023450000000  0.5355830000000  0.5376660000000 1.0
C      1  0.4427960000000  0.4597590000000  0.4791840000000 1.0
C      1  0.4971670000000  0.5655890000000  0.4720800000000 1.0
C      1  0.5595160000000  0.4688570000000  0.4723740000000 1.0
C      1  0.4843230000000  0.4462540000000  0.5147290000000 1.0
C      1  0.4491820000000  0.5411850000000  0.5044030000000 1.0
C      1  0.5579020000000  0.5161750000000  0.5180980000000 1.0
C      1  0.5156540000000  0.5431310000000  0.4663350000000 1.0
C      1  0.5308780000000  0.4619490000000  0.4662800000000 1.0
C      1  0.4515260000000  0.4858470000000  0.4657170000000 1.0
C      1  0.4912910000000  0.5239250000000  0.5117540000000 1.0
C      1  0.5358130000000  0.4785760000000  0.5093130000000 1.0
C      1  0.4736320000000  0.4818180000000  0.5102680000000 1.0
C      1  0.5204040000000  0.4821990000000  0.4849690000000 1.0
C      1  0.4683940000000  0.4939390000000  0.4864270000000 1.0
C      1  0.5052820000000  0.5279040000000  0.4879570000000 1.0
C      1  0.4730860000000  0.5058840000000  0.5566460000000 1.0
C      1  0.5206470000000  0.5179840000000  0.5528390000000 1.0
C      1  0.5065890000000  0.4709050000000  0.5535050000000 1.0
C      1  0.5273230000000  0.5014430000000  0.4575460000000 1.0
C      1  0.4894040000000  0.4720310000000  0.4458790000000 1.0
C      1  0.4824810000000  0.5231620000000  0.4493710000000 1.0
C      1  0.5116140000000  0.4392950000000  0.5089190000000 1.0
C      1  0.4597790000000  0.5199610000000  0.5168320000000 1.0
C      1  0.5459320000000  0.5403060000000  0.5110540000000 1.0
C      1  0.5340190000000  0.4375820000000  0.5041660000000 1.0
C      1  0.4369210000000  0.5039610000000  0.5111120000000 1.0
C      1  0.5331120000000  0.5608670000000  0.5086980000000 1.0
C      1  0.4305510000000  0.4772310000000  0.5012570000000 1.0
C      1  0.5123530000000  0.5694830000000  0.4962240000000 1.0
C      1  0.5552150000000  0.4575810000000  0.4993860000000 1.0
C      1  0.5007640000000  0.4982110000000  0.5616570000000 1.0
END
