TITL C-2441160-1326-847 0.0601999472033931 125000 -8019.01840239273 0 0 71 (C1) n - 1
REM
REM in /home/bkarasulu/work/CARBON/AIRSS/Generating-Clusters/ReaxFF-fromJPCA2015/Units_Real/with-SteepDescent/Higher-Symm
REM
REM
REM
REM
REM
REM ./C.cell (1df0a924f5614ab8850e4351716899ee)
REM
REM compiler GCC version 9.2.1 20190827 (Red Hat 9.2.1-1)
REM options -cpp -mtune=generic -march=x86-64 -g -O0 -fpre-include=/usr/include/finclude/math-vector-fortran.h
REM seed -583874491 842501917 -597856773 1133715024 258074534 1891471266 -473915385 2017976204 -568271763 1695760498 -1020573462 -183903625 -988743073 32496972 1492325406 -1889660264 -3616894 156079415 1480349449 -408789669 -1388464284 -2136629733 1604616679 439291351 -2016172397 -132102471 -193011972 151969866 -1627527395 -2093621773 1993064909 2100092626 1213937861
REM
CELL 1.54180   50.00000   50.00000   50.00000   90.00000   90.00000   90.00000
LATT -1
SFAC C  
C      1  0.4889970000000  0.4214430000000  0.5086090000000 1.0
C      1  0.4899060000000  0.4866940000000  0.5758920000000 1.0
C      1  0.4856400000000  0.5601740000000  0.5409780000000 1.0
C      1  0.4872410000000  0.5577520000000  0.4468760000000 1.0
C      1  0.4887300000000  0.4667810000000  0.4295130000000 1.0
C      1  0.5111240000000  0.4229360000000  0.4906000000000 1.0
C      1  0.5101810000000  0.4851760000000  0.4240130000000 1.0
C      1  0.5096100000000  0.5675700000000  0.4622810000000 1.0
C      1  0.5121630000000  0.5527710000000  0.5530290000000 1.0
C      1  0.5105330000000  0.4657620000000  0.5702860000000 1.0
C      1  0.5483880000000  0.4677960000000  0.4628740000000 1.0
C      1  0.5491800000000  0.4547980000000  0.5182230000000 1.0
C      1  0.5496230000000  0.5031950000000  0.5464900000000 1.0
C      1  0.5508090000000  0.5451630000000  0.5105620000000 1.0
C      1  0.5482810000000  0.5238540000000  0.4587480000000 1.0
C      1  0.4510010000000  0.4675530000000  0.5363470000000 1.0
C      1  0.4516760000000  0.4559710000000  0.4816680000000 1.0
C      1  0.4510170000000  0.5039660000000  0.4497330000000 1.0
C      1  0.4510730000000  0.5458990000000  0.4885470000000 1.0
C      1  0.4496110000000  0.5241630000000  0.5412630000000 1.0
C      1  0.4900930000000  0.4485040000000  0.5158720000000 1.0
C      1  0.4903120000000  0.5062880000000  0.5549370000000 1.0
C      1  0.4890870000000  0.5460670000000  0.5179660000000 1.0
C      1  0.4913300000000  0.5321290000000  0.4515040000000 1.0
C      1  0.4887080000000  0.4674960000000  0.4577970000000 1.0
C      1  0.5110670000000  0.4498300000000  0.4822270000000 1.0
C      1  0.5103570000000  0.4989270000000  0.4486690000000 1.0
C      1  0.5083340000000  0.5489630000000  0.4837250000000 1.0
C      1  0.5155010000000  0.5295710000000  0.5363560000000 1.0
C      1  0.5074990000000  0.4669690000000  0.5456940000000 1.0
C      1  0.4573870000000  0.5525450000000  0.4472240000000 1.0
C      1  0.4574560000000  0.4658440000000  0.4332750000000 1.0
C      1  0.4584670000000  0.4254280000000  0.5109610000000 1.0
C      1  0.4590780000000  0.4882390000000  0.5735260000000 1.0
C      1  0.4545620000000  0.5667120000000  0.5314430000000 1.0
C      1  0.5429340000000  0.5519430000000  0.5527950000000 1.0
C      1  0.5414980000000  0.4647330000000  0.5649130000000 1.0
C      1  0.5422650000000  0.4255500000000  0.4881240000000 1.0
C      1  0.5413080000000  0.4879570000000  0.4272240000000 1.0
C      1  0.5406980000000  0.5652290000000  0.4667670000000 1.0
C      1  0.4427490000000  0.4756640000000  0.4560390000000 1.0
C      1  0.4422790000000  0.4494340000000  0.5114890000000 1.0
C      1  0.4420320000000  0.4945420000000  0.5511310000000 1.0
C      1  0.4409520000000  0.5465040000000  0.5184900000000 1.0
C      1  0.4424530000000  0.5313350000000  0.4602300000000 1.0
C      1  0.5580690000000  0.4723130000000  0.5431110000000 1.0
C      1  0.5576540000000  0.4493430000000  0.4887560000000 1.0
C      1  0.5575950000000  0.4954060000000  0.4490290000000 1.0
C      1  0.5574530000000  0.5458410000000  0.4798530000000 1.0
C      1  0.5587710000000  0.5330370000000  0.5378310000000 1.0
C      1  0.4758890000000  0.5327780000000  0.5535960000000 1.0
C      1  0.4821030000000  0.5574200000000  0.4919670000000 1.0
C      1  0.4794340000000  0.5068480000000  0.4416370000000 1.0
C      1  0.4805430000000  0.4455510000000  0.4751450000000 1.0
C      1  0.4810340000000  0.4571240000000  0.5427330000000 1.0
C      1  0.5206450000000  0.5256570000000  0.4469200000000 1.0
C      1  0.5196650000000  0.5592500000000  0.5112710000000 1.0
C      1  0.5188260000000  0.5100390000000  0.5573010000000 1.0
C      1  0.5177220000000  0.4471310000000  0.5265750000000 1.0
C      1  0.5195370000000  0.4589190000000  0.4560590000000 1.0
C      1  0.5329360000000  0.5215670000000  0.5083390000000 1.0
C      1  0.5305720000000  0.5116400000000  0.4828110000000 1.0
C      1  0.5358190000000  0.4856770000000  0.4823610000000 1.0
C      1  0.5331000000000  0.4777230000000  0.5076400000000 1.0
C      1  0.5366990000000  0.4998060000000  0.5212250000000 1.0
C      1  0.4632920000000  0.5205340000000  0.4928780000000 1.0
C      1  0.4672070000000  0.5137530000000  0.5183080000000 1.0
C      1  0.4641260000000  0.4863820000000  0.5171680000000 1.0
C      1  0.4651330000000  0.4792820000000  0.4922180000000 1.0
C      1  0.4753100000000  0.5005050000000  0.4801720000000 1.0
C      1  0.5022050000000  0.5008310000000  0.4870690000000 1.0
END
