TITL C-2441165-58-187 0.182714536361837 125000 -21701.4537143977 0 0 178 (C1) n - 1
REM
REM in /home/bkarasulu/work/CARBON/AIRSS/Generating-Clusters/ReaxFF-fromJPCA2015/Units_Real/with-SteepDescent/Higher-Symm
REM
REM
REM
REM
REM
REM ./C.cell (1df0a924f5614ab8850e4351716899ee)
REM
REM compiler GCC version 9.2.1 20190827 (Red Hat 9.2.1-1)
REM options -cpp -mtune=generic -march=x86-64 -g -O0 -fpre-include=/usr/include/finclude/math-vector-fortran.h
REM seed 1556081751 -1984827293 -677620464 648681892 -549080968 -1828642901 1350630517 470692579 1254677737 1452382027 -5056060 1639142767 -1758863730 1217834741 -1383882940 -1022567607 -987677234 1516746352 -940043828 1640878587 536573398 -1148385300 -655070112 404391094 778720995 2137673275 -642225594 -1089235122 1892640340 -1507900741 -1901084142 -75329992 -1487555594
REM
CELL 1.54180   50.00000   50.00000   50.00000   90.00000   90.00000   90.00000
LATT -1
SFAC C  
C      1  0.4812350000000  0.5181820000000  0.4763480000000 1.0
C      1  0.4863570000000  0.5148770000000  0.5269170000000 1.0
C      1  0.5222170000000  0.5133980000000  0.4969320000000 1.0
C      1  0.5095620000000  0.5197980000000  0.4745680000000 1.0
C      1  0.5167700000000  0.5162740000000  0.5239760000000 1.0
C      1  0.4695860000000  0.5126830000000  0.5032480000000 1.0
C      1  0.4505650000000  0.4647660000000  0.4958710000000 1.0
C      1  0.5216420000000  0.4769450000000  0.5535020000000 1.0
C      1  0.5326750000000  0.4697700000000  0.4555340000000 1.0
C      1  0.5564480000000  0.4825960000000  0.4979560000000 1.0
C      1  0.4755550000000  0.4803110000000  0.5525940000000 1.0
C      1  0.4726060000000  0.4842070000000  0.4493580000000 1.0
C      1  0.4328630000000  0.5024420000000  0.4789070000000 1.0
C      1  0.5141300000000  0.5023210000000  0.5701430000000 1.0
C      1  0.5494920000000  0.4957980000000  0.4536160000000 1.0
C      1  0.5673770000000  0.4984840000000  0.4773810000000 1.0
C      1  0.4848980000000  0.5011510000000  0.5707320000000 1.0
C      1  0.4452630000000  0.4977130000000  0.4544610000000 1.0
C      1  0.6057350000000  0.5205370000000  0.4884750000000 1.0
C      1  0.4368370000000  0.5199740000000  0.4132380000000 1.0
C      1  0.4571600000000  0.5206760000000  0.5957590000000 1.0
C      1  0.3945610000000  0.5210850000000  0.4892690000000 1.0
C      1  0.5626890000000  0.5217150000000  0.4141990000000 1.0
C      1  0.5432450000000  0.5217120000000  0.5948970000000 1.0
C      1  0.5996110000000  0.4818940000000  0.5398620000000 1.0
C      1  0.4860530000000  0.4816960000000  0.3932750000000 1.0
C      1  0.4149850000000  0.4820970000000  0.5667420000000 1.0
C      1  0.3998360000000  0.4809840000000  0.5409870000000 1.0
C      1  0.5150530000000  0.4840730000000  0.3913840000000 1.0
C      1  0.5851320000000  0.4820260000000  0.5661000000000 1.0
C      1  0.5170730000000  0.5420520000000  0.5580980000000 1.0
C      1  0.5419280000000  0.5450870000000  0.4600880000000 1.0
C      1  0.4429730000000  0.5420730000000  0.4857640000000 1.0
C      1  0.4868630000000  0.5401730000000  0.5588660000000 1.0
C      1  0.4585030000000  0.5441940000000  0.4578050000000 1.0
C      1  0.5568830000000  0.5443970000000  0.4852130000000 1.0
C      1  0.5573180000000  0.5227650000000  0.5695060000000 1.0
C      1  0.5364950000000  0.5250730000000  0.4089340000000 1.0
C      1  0.4048240000000  0.5241300000000  0.5146150000000 1.0
C      1  0.4430610000000  0.5271400000000  0.5695780000000 1.0
C      1  0.4624980000000  0.5256240000000  0.4043720000000 1.0
C      1  0.6000090000000  0.5271620000000  0.5152740000000 1.0
C      1  0.4842330000000  0.4855460000000  0.5273870000000 1.0
C      1  0.5272870000000  0.4856280000000  0.4929520000000 1.0
C      1  0.4859480000000  0.4847600000000  0.4750380000000 1.0
C      1  0.5074970000000  0.4749570000000  0.5294800000000 1.0
C      1  0.4723350000000  0.4835870000000  0.5009290000000 1.0
C      1  0.5126190000000  0.4800290000000  0.4713720000000 1.0
C      1  0.4595290000000  0.4215480000000  0.4390390000000 1.0
C      1  0.4675360000000  0.4221340000000  0.5648480000000 1.0
C      1  0.5716350000000  0.4225090000000  0.4964580000000 1.0
C      1  0.5388050000000  0.4224840000000  0.4392780000000 1.0
C      1  0.5322470000000  0.4219430000000  0.5637190000000 1.0
C      1  0.4275470000000  0.4228560000000  0.4968260000000 1.0
C      1  0.5255250000000  0.4607890000000  0.4290400000000 1.0
C      1  0.4271640000000  0.4608460000000  0.5122430000000 1.0
C      1  0.5460940000000  0.4620880000000  0.5568510000000 1.0
C      1  0.4724690000000  0.4615910000000  0.4316250000000 1.0
C      1  0.5727560000000  0.4613650000000  0.5105160000000 1.0
C      1  0.4517840000000  0.4680990000000  0.5542150000000 1.0
C      1  0.5182010000000  0.4381120000000  0.4756680000000 1.0
C      1  0.4714730000000  0.4452800000000  0.4955680000000 1.0
C      1  0.5115320000000  0.4331590000000  0.5240150000000 1.0
C      1  0.4885830000000  0.4385350000000  0.4722810000000 1.0
C      1  0.5256440000000  0.4431410000000  0.5032170000000 1.0
C      1  0.4824170000000  0.4373480000000  0.5220520000000 1.0
C      1  0.4399700000000  0.4918010000000  0.4097200000000 1.0
C      1  0.4513990000000  0.4923240000000  0.5975720000000 1.0
C      1  0.6087250000000  0.4922370000000  0.4925410000000 1.0
C      1  0.5602750000000  0.4931490000000  0.4088080000000 1.0
C      1  0.5488030000000  0.4934000000000  0.5971000000000 1.0
C      1  0.3917430000000  0.4927640000000  0.4931750000000 1.0
C      1  0.5374040000000  0.4751590000000  0.4067980000000 1.0
C      1  0.4017990000000  0.4745500000000  0.5132320000000 1.0
C      1  0.5605670000000  0.4741810000000  0.5783480000000 1.0
C      1  0.4626200000000  0.4722710000000  0.4068760000000 1.0
C      1  0.5994240000000  0.4723820000000  0.5125750000000 1.0
C      1  0.4390720000000  0.4734770000000  0.5793370000000 1.0
C      1  0.5808300000000  0.5626410000000  0.5348240000000 1.0
C      1  0.4837700000000  0.5641480000000  0.4209980000000 1.0
C      1  0.4370630000000  0.5730110000000  0.5515640000000 1.0
C      1  0.4245150000000  0.5640720000000  0.5259560000000 1.0
C      1  0.5135500000000  0.5633080000000  0.4202250000000 1.0
C      1  0.5625020000000  0.5651500000000  0.5542390000000 1.0
C      1  0.5137270000000  0.5709410000000  0.5658460000000 1.0
C      1  0.5431570000000  0.5712240000000  0.4486660000000 1.0
C      1  0.4317450000000  0.5686600000000  0.4877210000000 1.0
C      1  0.4836950000000  0.5706780000000  0.5662550000000 1.0
C      1  0.4545700000000  0.5711460000000  0.4472290000000 1.0
C      1  0.5734950000000  0.5681690000000  0.4922630000000 1.0
C      1  0.4269250000000  0.5652300000000  0.4399630000000 1.0
C      1  0.4839860000000  0.5637010000000  0.5955290000000 1.0
C      1  0.5882330000000  0.5654320000000  0.4661590000000 1.0
C      1  0.5719020000000  0.5662630000000  0.4410750000000 1.0
C      1  0.5137670000000  0.5641280000000  0.5956570000000 1.0
C      1  0.4118080000000  0.5647590000000  0.4660700000000 1.0
C      1  0.4587540000000  0.4023430000000  0.4600480000000 1.0
C      1  0.4851630000000  0.4018180000000  0.5544420000000 1.0
C      1  0.5549430000000  0.4017790000000  0.4860580000000 1.0
C      1  0.5413490000000  0.4017980000000  0.4596340000000 1.0
C      1  0.5142340000000  0.4016250000000  0.5544950000000 1.0
C      1  0.4448410000000  0.4025260000000  0.4864500000000 1.0
C      1  0.4083100000000  0.4875580000000  0.4712640000000 1.0
C      1  0.5217590000000  0.4870080000000  0.5951180000000 1.0
C      1  0.5698220000000  0.4859950000000  0.4337960000000 1.0
C      1  0.5932590000000  0.4867040000000  0.4688620000000 1.0
C      1  0.4794830000000  0.4865910000000  0.5965510000000 1.0
C      1  0.4272030000000  0.4865610000000  0.4345720000000 1.0
C      1  0.5143680000000  0.4342570000000  0.4290940000000 1.0
C      1  0.4314840000000  0.4344340000000  0.5235990000000 1.0
C      1  0.5500900000000  0.4357830000000  0.5453790000000 1.0
C      1  0.4846740000000  0.4371760000000  0.4381280000000 1.0
C      1  0.5652800000000  0.4358120000000  0.5214580000000 1.0
C      1  0.4548260000000  0.4371200000000  0.5422260000000 1.0
C      1  0.4018310000000  0.5092190000000  0.5393260000000 1.0
C      1  0.5829110000000  0.5106290000000  0.5639960000000 1.0
C      1  0.5153280000000  0.5125420000000  0.3959900000000 1.0
C      1  0.5976060000000  0.5107220000000  0.5390630000000 1.0
C      1  0.4170940000000  0.5108550000000  0.5636490000000 1.0
C      1  0.4879520000000  0.5078880000000  0.4081840000000 1.0
C      1  0.4647560000000  0.5308740000000  0.5420710000000 1.0
C      1  0.5549300000000  0.5342620000000  0.5115770000000 1.0
C      1  0.4859840000000  0.5455310000000  0.4468860000000 1.0
C      1  0.5390850000000  0.5486970000000  0.5366830000000 1.0
C      1  0.4513020000000  0.5464930000000  0.5151250000000 1.0
C      1  0.5152720000000  0.5425820000000  0.4430860000000 1.0
C      1  0.4431990000000  0.4922720000000  0.5335520000000 1.0
C      1  0.5598370000000  0.5071820000000  0.5170930000000 1.0
C      1  0.4930240000000  0.5011360000000  0.4350730000000 1.0
C      1  0.5408270000000  0.5083380000000  0.5398650000000 1.0
C      1  0.4404930000000  0.5071570000000  0.5106460000000 1.0
C      1  0.5166640000000  0.5124960000000  0.4472970000000 1.0
C      1  0.4863040000000  0.5916780000000  0.4538450000000 1.0
C      1  0.4591500000000  0.5878220000000  0.5353470000000 1.0
C      1  0.5512890000000  0.5926870000000  0.5058110000000 1.0
C      1  0.5174830000000  0.5896540000000  0.4510990000000 1.0
C      1  0.5355130000000  0.5939070000000  0.5312420000000 1.0
C      1  0.4523070000000  0.5911870000000  0.5050680000000 1.0
C      1  0.4243450000000  0.4391710000000  0.4731640000000 1.0
C      1  0.5150160000000  0.4386930000000  0.5798140000000 1.0
C      1  0.5611260000000  0.4386460000000  0.4480600000000 1.0
C      1  0.5751500000000  0.4393440000000  0.4729830000000 1.0
C      1  0.4859520000000  0.4385240000000  0.5800000000000 1.0
C      1  0.4377160000000  0.4376310000000  0.4476630000000 1.0
C      1  0.4838060000000  0.5634380000000  0.4816030000000 1.0
C      1  0.4927640000000  0.5671420000000  0.5269120000000 1.0
C      1  0.5255000000000  0.5638360000000  0.4975970000000 1.0
C      1  0.5100430000000  0.5638400000000  0.4793650000000 1.0
C      1  0.5191520000000  0.5587840000000  0.5205060000000 1.0
C      1  0.4754360000000  0.5572910000000  0.5068320000000 1.0
C      1  0.5169490000000  0.4072490000000  0.4747230000000 1.0
C      1  0.4700200000000  0.3993390000000  0.4995470000000 1.0
C      1  0.5167500000000  0.4054720000000  0.5249390000000 1.0
C      1  0.4840760000000  0.4049090000000  0.4748340000000 1.0
C      1  0.5299230000000  0.3982280000000  0.4992260000000 1.0
C      1  0.4826080000000  0.4046370000000  0.5248010000000 1.0
C      1  0.4055450000000  0.5362790000000  0.4614640000000 1.0
C      1  0.5138890000000  0.5353240000000  0.6014470000000 1.0
C      1  0.5794920000000  0.5373170000000  0.4366980000000 1.0
C      1  0.5943300000000  0.5370920000000  0.4618350000000 1.0
C      1  0.4839050000000  0.5346850000000  0.6022400000000 1.0
C      1  0.4204100000000  0.5361130000000  0.4366190000000 1.0
C      1  0.5945090000000  0.5567940000000  0.5131060000000 1.0
C      1  0.4637150000000  0.5496430000000  0.4080650000000 1.0
C      1  0.4363990000000  0.5569370000000  0.5757960000000 1.0
C      1  0.4046090000000  0.5472400000000  0.5176300000000 1.0
C      1  0.5323010000000  0.5480930000000  0.4060340000000 1.0
C      1  0.5616030000000  0.5471940000000  0.5747360000000 1.0
C      1  0.5791200000000  0.4589490000000  0.4370010000000 1.0
C      1  0.4065440000000  0.4596700000000  0.4626220000000 1.0
C      1  0.5146240000000  0.4600950000000  0.5998620000000 1.0
C      1  0.4200650000000  0.4584600000000  0.4372650000000 1.0
C      1  0.5939980000000  0.4586670000000  0.4619560000000 1.0
C      1  0.4862890000000  0.4595310000000  0.6003620000000 1.0
C      1  0.5060610000000  0.5956080000000  0.5334920000000 1.0
C      1  0.4754220000000  0.5936900000000  0.4828900000000 1.0
C      1  0.5247460000000  0.5894280000000  0.4821890000000 1.0
C      1  0.5159160000000  0.4678140000000  0.5086080000000 1.0
END
