TITL C-2441167-4473-761 -1.04874873761192e-05 125000 -8147.44852618852 0 0 54 (C1) n - 1
REM
REM in /home/bkarasulu/work/CARBON/AIRSS/Generating-Clusters/ReaxFF-fromJPCA2015/Units_Real/with-SteepDescent/Higher-Symm
REM
REM
REM
REM
REM
REM ./C.cell (1df0a924f5614ab8850e4351716899ee)
REM
REM compiler GCC version 9.2.1 20190827 (Red Hat 9.2.1-1)
REM options -cpp -mtune=generic -march=x86-64 -g -O0 -fpre-include=/usr/include/finclude/math-vector-fortran.h
REM seed -698705786 1486936240 -1452826209 -1574913142 -1108507461 -1529322317 -348062727 1071657039 15626526 -1070041933 1879638238 -1170963597 1530782712 1013943867 -1523630421 290895847 -276577325 -72886835 2033377599 2101729159 -1051585494 -410164780 -224297643 332916089 -1258922724 -539072503 1897047976 -1079690869 -103346635 238287123 -364231027 -112830862 -919964465
REM
CELL 1.54180   50.00000   50.00000   50.00000   90.00000   90.00000   90.00000
LATT -1
SFAC C  
C      1  0.4853120000000  0.5060520000000  0.4326260000000 1.0
C      1  0.5094100000000  0.4634100000000  0.4440370000000 1.0
C      1  0.4857240000000  0.4319610000000  0.4733190000000 1.0
C      1  0.5172000000000  0.4263140000000  0.5151190000000 1.0
C      1  0.4850890000000  0.4518550000000  0.5499200000000 1.0
C      1  0.5125150000000  0.4901980000000  0.5665580000000 1.0
C      1  0.4857600000000  0.5304250000000  0.5625560000000 1.0
C      1  0.5132470000000  0.5550200000000  0.5293830000000 1.0
C      1  0.4898970000000  0.5634060000000  0.4866050000000 1.0
C      1  0.5122870000000  0.5472000000000  0.4463360000000 1.0
C      1  0.5506610000000  0.4811040000000  0.4674710000000 1.0
C      1  0.4497440000000  0.4705320000000  0.4754820000000 1.0
C      1  0.5515310000000  0.4562120000000  0.4808420000000 1.0
C      1  0.4515390000000  0.4820050000000  0.5239820000000 1.0
C      1  0.5543690000000  0.5033210000000  0.5375450000000 1.0
C      1  0.4479390000000  0.4976510000000  0.5479030000000 1.0
C      1  0.5539890000000  0.5297290000000  0.5512420000000 1.0
C      1  0.4492930000000  0.5408910000000  0.5062470000000 1.0
C      1  0.5526640000000  0.5356420000000  0.4750210000000 1.0
C      1  0.4480440000000  0.5260890000000  0.4611750000000 1.0
C      1  0.5322380000000  0.4578810000000  0.5365710000000 1.0
C      1  0.4633240000000  0.4892930000000  0.5703240000000 1.0
C      1  0.5331190000000  0.5354960000000  0.5688420000000 1.0
C      1  0.4637320000000  0.5539250000000  0.5265790000000 1.0
C      1  0.5386780000000  0.5574410000000  0.4862140000000 1.0
C      1  0.4638150000000  0.5459510000000  0.4491500000000 1.0
C      1  0.5300420000000  0.5035200000000  0.4404310000000 1.0
C      1  0.4612360000000  0.4674550000000  0.4500720000000 1.0
C      1  0.5345860000000  0.4366500000000  0.4744130000000 1.0
C      1  0.4724240000000  0.4369180000000  0.5123090000000 1.0
C      1  0.4853140000000  0.4782660000000  0.4392560000000 1.0
C      1  0.5102060000000  0.4408610000000  0.4609440000000 1.0
C      1  0.4914240000000  0.4208040000000  0.5004770000000 1.0
C      1  0.5110680000000  0.4399250000000  0.5403390000000 1.0
C      1  0.4880200000000  0.4749070000000  0.5669610000000 1.0
C      1  0.5103340000000  0.5185700000000  0.5717250000000 1.0
C      1  0.4875610000000  0.5483550000000  0.5408350000000 1.0
C      1  0.5145670000000  0.5603520000000  0.5012560000000 1.0
C      1  0.4883960000000  0.5563950000000  0.4588450000000 1.0
C      1  0.5106560000000  0.5211150000000  0.4330310000000 1.0
C      1  0.4621330000000  0.4545240000000  0.5310130000000 1.0
C      1  0.5354280000000  0.4814340000000  0.5501850000000 1.0
C      1  0.4619870000000  0.5158740000000  0.5654310000000 1.0
C      1  0.5360260000000  0.5512330000000  0.5463610000000 1.0
C      1  0.4651540000000  0.5633410000000  0.5011050000000 1.0
C      1  0.5371010000000  0.5524830000000  0.4590150000000 1.0
C      1  0.4619180000000  0.5212550000000  0.4373730000000 1.0
C      1  0.5351510000000  0.4779740000000  0.4439600000000 1.0
C      1  0.4614300000000  0.4462720000000  0.4674570000000 1.0
C      1  0.5404400000000  0.4396730000000  0.5025110000000 1.0
C      1  0.4500740000000  0.4904460000000  0.4967340000000 1.0
C      1  0.5538120000000  0.5048240000000  0.5108000000000 1.0
C      1  0.5532120000000  0.5068940000000  0.4837240000000 1.0
C      1  0.4491790000000  0.5179450000000  0.4888570000000 1.0
END
