TITL C-2441156-4686-1433 0.041153309973176 125000 -16002.4684040341 0 0 117 (C1) n - 1
REM
REM in /home/bkarasulu/work/CARBON/AIRSS/Generating-Clusters/ReaxFF-fromJPCA2015/Units_Real/with-SteepDescent/Higher-Symm
REM
REM
REM
REM
REM
REM ./C.cell (1df0a924f5614ab8850e4351716899ee)
REM
REM compiler GCC version 9.2.1 20190827 (Red Hat 9.2.1-1)
REM options -cpp -mtune=generic -march=x86-64 -g -O0 -fpre-include=/usr/include/finclude/math-vector-fortran.h
REM seed -1145211473 -1605530273 996037046 46417489 529285231 -691262281 1062452055 2101135558 858213623 1314992691 -1098790747 -1244068442 -904772310 -2003664420 694676651 1420648868 -1680455076 979528965 -1351622051 1489939942 195062850 -719572369 -1241184342 191799892 953288798 1905648580 -865440381 777372931 1007312930 -1149648168 906011305 1612856436 -1371003327
REM
CELL 1.54180   50.00000   50.00000   50.00000   90.00000   90.00000   90.00000
LATT -1
SFAC C  
C      1  0.5242990000000  0.4040480000000  0.4715630000000 1.0
C      1  0.5397870000000  0.4167980000000  0.5071120000000 1.0
C      1  0.5158480000000  0.4047120000000  0.5362500000000 1.0
C      1  0.4879660000000  0.4107670000000  0.5410240000000 1.0
C      1  0.4555080000000  0.4038410000000  0.5009950000000 1.0
C      1  0.4645380000000  0.4132890000000  0.4742300000000 1.0
C      1  0.5021610000000  0.4172850000000  0.4572870000000 1.0
C      1  0.4852730000000  0.4562460000000  0.4224250000000 1.0
C      1  0.5422000000000  0.4379930000000  0.4338810000000 1.0
C      1  0.5595790000000  0.4670570000000  0.5045410000000 1.0
C      1  0.5442530000000  0.4560570000000  0.5520300000000 1.0
C      1  0.4857800000000  0.4628300000000  0.5607540000000 1.0
C      1  0.4432190000000  0.4639080000000  0.5255460000000 1.0
C      1  0.4349220000000  0.4588320000000  0.4665170000000 1.0
C      1  0.4644080000000  0.4288200000000  0.4998950000000 1.0
C      1  0.4809810000000  0.4329360000000  0.4634190000000 1.0
C      1  0.5289670000000  0.4329480000000  0.4601060000000 1.0
C      1  0.5432620000000  0.4191030000000  0.4826520000000 1.0
C      1  0.5348570000000  0.4250920000000  0.5314600000000 1.0
C      1  0.5080530000000  0.4313540000000  0.5432450000000 1.0
C      1  0.4648130000000  0.4150670000000  0.5249480000000 1.0
C      1  0.5321260000000  0.5048450000000  0.4120600000000 1.0
C      1  0.5894310000000  0.5077530000000  0.4707100000000 1.0
C      1  0.5796700000000  0.5073160000000  0.5502980000000 1.0
C      1  0.5093470000000  0.5070600000000  0.5955140000000 1.0
C      1  0.4350690000000  0.5068660000000  0.5654850000000 1.0
C      1  0.4076990000000  0.5070520000000  0.4872090000000 1.0
C      1  0.4485070000000  0.5055290000000  0.4169490000000 1.0
C      1  0.4271210000000  0.5322060000000  0.4531710000000 1.0
C      1  0.4886350000000  0.5272250000000  0.4117740000000 1.0
C      1  0.5589680000000  0.5313410000000  0.4403060000000 1.0
C      1  0.5884510000000  0.5339290000000  0.5092020000000 1.0
C      1  0.5461920000000  0.5328380000000  0.5731190000000 1.0
C      1  0.4709220000000  0.5339590000000  0.5857780000000 1.0
C      1  0.4197480000000  0.5331490000000  0.5280940000000 1.0
C      1  0.5746840000000  0.4578090000000  0.5492070000000 1.0
C      1  0.4993540000000  0.4618340000000  0.5874920000000 1.0
C      1  0.4350560000000  0.4580390000000  0.5530500000000 1.0
C      1  0.4093750000000  0.4571560000000  0.4848260000000 1.0
C      1  0.4579630000000  0.4606780000000  0.4157190000000 1.0
C      1  0.5363610000000  0.4557860000000  0.4120290000000 1.0
C      1  0.5909320000000  0.4628710000000  0.4792740000000 1.0
C      1  0.4691170000000  0.5705670000000  0.4648740000000 1.0
C      1  0.4936080000000  0.5572160000000  0.4555830000000 1.0
C      1  0.5348490000000  0.5657680000000  0.4772610000000 1.0
C      1  0.5403360000000  0.5469460000000  0.5081340000000 1.0
C      1  0.5117450000000  0.5657830000000  0.5399830000000 1.0
C      1  0.4878040000000  0.5502570000000  0.5412550000000 1.0
C      1  0.4601280000000  0.5466920000000  0.5083620000000 1.0
C      1  0.4432240000000  0.4864960000000  0.4595800000000 1.0
C      1  0.5025300000000  0.4750250000000  0.4326780000000 1.0
C      1  0.5675520000000  0.4820650000000  0.4382160000000 1.0
C      1  0.5658250000000  0.4940620000000  0.5119410000000 1.0
C      1  0.5340340000000  0.4869500000000  0.5603470000000 1.0
C      1  0.4771890000000  0.4965400000000  0.5582480000000 1.0
C      1  0.4203150000000  0.4820200000000  0.5234400000000 1.0
C      1  0.4143700000000  0.5320990000000  0.4991830000000 1.0
C      1  0.4443410000000  0.5310080000000  0.4297180000000 1.0
C      1  0.5172850000000  0.5289080000000  0.4162350000000 1.0
C      1  0.5790560000000  0.5324240000000  0.4612130000000 1.0
C      1  0.5791420000000  0.5337360000000  0.5371690000000 1.0
C      1  0.5204120000000  0.5328280000000  0.5876230000000 1.0
C      1  0.4456930000000  0.5333730000000  0.5703720000000 1.0
C      1  0.4811490000000  0.5068840000000  0.5862770000000 1.0
C      1  0.4219570000000  0.5077850000000  0.5402390000000 1.0
C      1  0.4214480000000  0.5060270000000  0.4631660000000 1.0
C      1  0.4743660000000  0.5031790000000  0.4043380000000 1.0
C      1  0.5559560000000  0.5058960000000  0.4280950000000 1.0
C      1  0.5871730000000  0.5077300000000  0.4982070000000 1.0
C      1  0.5561960000000  0.5062710000000  0.5676020000000 1.0
C      1  0.5374670000000  0.5151080000000  0.5137420000000 1.0
C      1  0.5187820000000  0.5042350000000  0.5365960000000 1.0
C      1  0.4878700000000  0.5145860000000  0.5368000000000 1.0
C      1  0.4699550000000  0.5192320000000  0.5123710000000 1.0
C      1  0.4691220000000  0.5055680000000  0.4860420000000 1.0
C      1  0.4919200000000  0.5219490000000  0.4735780000000 1.0
C      1  0.5138500000000  0.5026380000000  0.4688760000000 1.0
C      1  0.4691060000000  0.4670730000000  0.5160500000000 1.0
C      1  0.4714920000000  0.4772050000000  0.4893670000000 1.0
C      1  0.4889530000000  0.4597600000000  0.4734640000000 1.0
C      1  0.5065810000000  0.4774750000000  0.4583000000000 1.0
C      1  0.5311610000000  0.4631310000000  0.5017860000000 1.0
C      1  0.5135810000000  0.4816220000000  0.5180510000000 1.0
C      1  0.4931640000000  0.4611590000000  0.5312170000000 1.0
C      1  0.4372740000000  0.5486310000000  0.5464940000000 1.0
C      1  0.4265740000000  0.5467750000000  0.4777760000000 1.0
C      1  0.4680910000000  0.5449660000000  0.4222800000000 1.0
C      1  0.5338200000000  0.5448620000000  0.4346200000000 1.0
C      1  0.5807700000000  0.5489830000000  0.4851140000000 1.0
C      1  0.5571090000000  0.5479090000000  0.5501830000000 1.0
C      1  0.4963100000000  0.5492230000000  0.5853890000000 1.0
C      1  0.4419440000000  0.4802800000000  0.4305720000000 1.0
C      1  0.5185320000000  0.4792330000000  0.4103750000000 1.0
C      1  0.5878470000000  0.4824190000000  0.4585530000000 1.0
C      1  0.5826160000000  0.4825360000000  0.5348960000000 1.0
C      1  0.5203470000000  0.4817320000000  0.5868030000000 1.0
C      1  0.4487200000000  0.4804300000000  0.5713040000000 1.0
C      1  0.4054100000000  0.4823250000000  0.4991570000000 1.0
C      1  0.4797060000000  0.4741530000000  0.4000970000000 1.0
C      1  0.5602690000000  0.4575050000000  0.4269780000000 1.0
C      1  0.5855560000000  0.4548950000000  0.5036870000000 1.0
C      1  0.5617210000000  0.4513090000000  0.5737570000000 1.0
C      1  0.4702400000000  0.4660830000000  0.5869330000000 1.0
C      1  0.4076860000000  0.4578720000000  0.5456100000000 1.0
C      1  0.4099560000000  0.4487230000000  0.4581500000000 1.0
C      1  0.5374050000000  0.5601510000000  0.5330650000000 1.0
C      1  0.4979190000000  0.5671450000000  0.5629580000000 1.0
C      1  0.4600280000000  0.5605300000000  0.5336870000000 1.0
C      1  0.4500670000000  0.5600590000000  0.4838320000000 1.0
C      1  0.4749220000000  0.5661170000000  0.4379260000000 1.0
C      1  0.5218180000000  0.5607840000000  0.4543480000000 1.0
C      1  0.5568820000000  0.5615150000000  0.4908680000000 1.0
C      1  0.4985230000000  0.5965480000000  0.5022510000000 1.0
C      1  0.5185630000000  0.5013460000000  0.4964410000000 1.0
C      1  0.5104980000000  0.4461400000000  0.4945150000000 1.0
C      1  0.4997180000000  0.5438980000000  0.4931400000000 1.0
C      1  0.5006850000000  0.5720810000000  0.4991760000000 1.0
END
