TITL C-2441155-8282-21 0.085363458172581 125000 -24388.2197351486 0 0 177 (C1) n - 1
REM
REM in /home/bkarasulu/work/CARBON/AIRSS/Generating-Clusters/ReaxFF-fromJPCA2015/Units_Real/with-SteepDescent/Higher-Symm
REM
REM
REM
REM
REM
REM ./C.cell (1df0a924f5614ab8850e4351716899ee)
REM
REM compiler GCC version 9.2.1 20190827 (Red Hat 9.2.1-1)
REM options -cpp -mtune=generic -march=x86-64 -g -O0 -fpre-include=/usr/include/finclude/math-vector-fortran.h
REM seed 702965162 1253731201 -1120775078 593206098 -807706731 894216517 -942719150 -1896795273 269917023 -859655218 1964450898 366089298 839108292 -2135147242 612030768 1449539773 2130669223 1493626841 987969591 -1611519977 -995841713 2025719265 126569108 -2057963478 -1702054945 963034979 1298085003 252827821 -2082407448 774011798 -242554884 -602223113 110117983
REM
CELL 1.54180   50.00000   50.00000   50.00000   90.00000   90.00000   90.00000
LATT -1
SFAC C  
C      1  0.5181630000000  0.5136470000000  0.4994880000000 1.0
C      1  0.4705050000000  0.4896230000000  0.5036510000000 1.0
C      1  0.5131050000000  0.4410700000000  0.5295570000000 1.0
C      1  0.4931260000000  0.5564350000000  0.4811960000000 1.0
C      1  0.5291780000000  0.4999070000000  0.4034440000000 1.0
C      1  0.4646450000000  0.5075540000000  0.5907820000000 1.0
C      1  0.4794460000000  0.4544580000000  0.5961710000000 1.0
C      1  0.5191140000000  0.5448210000000  0.4046490000000 1.0
C      1  0.5113500000000  0.5144410000000  0.5582230000000 1.0
C      1  0.4847050000000  0.4819810000000  0.4440970000000 1.0
C      1  0.4042140000000  0.4781700000000  0.4712910000000 1.0
C      1  0.5974260000000  0.5224850000000  0.5281700000000 1.0
C      1  0.5522290000000  0.5822220000000  0.5215340000000 1.0
C      1  0.4551750000000  0.4183200000000  0.4743550000000 1.0
C      1  0.5639080000000  0.4651500000000  0.5755250000000 1.0
C      1  0.4404770000000  0.5363010000000  0.4233100000000 1.0
C      1  0.5563270000000  0.4078420000000  0.5022490000000 1.0
C      1  0.4375080000000  0.5859410000000  0.4931150000000 1.0
C      1  0.4891970000000  0.3998320000000  0.5253820000000 1.0
C      1  0.5119350000000  0.6055640000000  0.4728750000000 1.0
C      1  0.5285560000000  0.4472810000000  0.5904980000000 1.0
C      1  0.4720140000000  0.5592260000000  0.4094830000000 1.0
C      1  0.4822000000000  0.5835620000000  0.5644940000000 1.0
C      1  0.5119780000000  0.4206650000000  0.4367040000000 1.0
C      1  0.4326080000000  0.5311130000000  0.5703040000000 1.0
C      1  0.5626710000000  0.4704520000000  0.4303720000000 1.0
C      1  0.5541700000000  0.5150910000000  0.4068070000000 1.0
C      1  0.4446450000000  0.4861080000000  0.5914420000000 1.0
C      1  0.4625990000000  0.3888320000000  0.5112410000000 1.0
C      1  0.5375890000000  0.6078210000000  0.4843620000000 1.0
C      1  0.5707060000000  0.5163300000000  0.4475460000000 1.0
C      1  0.4292340000000  0.4857270000000  0.5498690000000 1.0
C      1  0.5834530000000  0.5474070000000  0.5206950000000 1.0
C      1  0.4171270000000  0.4486880000000  0.4788250000000 1.0
C      1  0.5427960000000  0.4745900000000  0.5935820000000 1.0
C      1  0.4604080000000  0.5326360000000  0.4021570000000 1.0
C      1  0.4665430000000  0.5217910000000  0.5352570000000 1.0
C      1  0.5333390000000  0.4944760000000  0.4829300000000 1.0
C      1  0.5082790000000  0.3909540000000  0.4824040000000 1.0
C      1  0.5007080000000  0.5976990000000  0.5202770000000 1.0
C      1  0.4868760000000  0.5365540000000  0.5231250000000 1.0
C      1  0.5019190000000  0.4512300000000  0.4776750000000 1.0
C      1  0.4885850000000  0.3804680000000  0.5005900000000 1.0
C      1  0.5140910000000  0.6131640000000  0.5001570000000 1.0
C      1  0.5010750000000  0.5014640000000  0.4603730000000 1.0
C      1  0.4995110000000  0.4958830000000  0.5402380000000 1.0
C      1  0.4647860000000  0.5655660000000  0.5503300000000 1.0
C      1  0.5205510000000  0.4376420000000  0.4584270000000 1.0
C      1  0.4404370000000  0.5783590000000  0.4653510000000 1.0
C      1  0.5545850000000  0.4182030000000  0.5293990000000 1.0
C      1  0.4679650000000  0.4338730000000  0.5479570000000 1.0
C      1  0.5338080000000  0.5595050000000  0.4511170000000 1.0
C      1  0.6001500000000  0.4426600000000  0.4950960000000 1.0
C      1  0.4076370000000  0.5584760000000  0.5027000000000 1.0
C      1  0.4081760000000  0.5418970000000  0.4775490000000 1.0
C      1  0.5909250000000  0.4569490000000  0.5188340000000 1.0
C      1  0.4898450000000  0.5469610000000  0.5955700000000 1.0
C      1  0.5122000000000  0.4451800000000  0.4012160000000 1.0
C      1  0.4635990000000  0.4613950000000  0.4139200000000 1.0
C      1  0.5430560000000  0.5288120000000  0.5891460000000 1.0
C      1  0.5636480000000  0.4466370000000  0.5251950000000 1.0
C      1  0.4361050000000  0.5473540000000  0.4717360000000 1.0
C      1  0.3984120000000  0.4669220000000  0.5160240000000 1.0
C      1  0.6017720000000  0.5329680000000  0.4821690000000 1.0
C      1  0.4266680000000  0.5024940000000  0.5757270000000 1.0
C      1  0.5699280000000  0.4988070000000  0.4239760000000 1.0
C      1  0.6142350000000  0.4668960000000  0.4852570000000 1.0
C      1  0.3885330000000  0.5378810000000  0.5139870000000 1.0
C      1  0.5457740000000  0.4681980000000  0.5152460000000 1.0
C      1  0.4511630000000  0.5297350000000  0.4880020000000 1.0
C      1  0.5779470000000  0.5628520000000  0.4516840000000 1.0
C      1  0.4233170000000  0.4372880000000  0.5446150000000 1.0
C      1  0.5254450000000  0.4553930000000  0.5492850000000 1.0
C      1  0.4809640000000  0.5497190000000  0.4539840000000 1.0
C      1  0.6044050000000  0.4822910000000  0.5078310000000 1.0
C      1  0.3946920000000  0.5195000000000  0.4924550000000 1.0
C      1  0.3975570000000  0.4897540000000  0.4956480000000 1.0
C      1  0.6029160000000  0.5114820000000  0.5033510000000 1.0
C      1  0.5769300000000  0.4434980000000  0.4768030000000 1.0
C      1  0.4289800000000  0.5541130000000  0.5224890000000 1.0
C      1  0.5232080000000  0.5080200000000  0.4437740000000 1.0
C      1  0.4832570000000  0.4830180000000  0.5588980000000 1.0
C      1  0.5696700000000  0.5666890000000  0.5386830000000 1.0
C      1  0.4323120000000  0.4311100000000  0.4617380000000 1.0
C      1  0.4846820000000  0.5199670000000  0.6077990000000 1.0
C      1  0.5061420000000  0.4728470000000  0.3924500000000 1.0
C      1  0.5311940000000  0.4842360000000  0.4286300000000 1.0
C      1  0.4654340000000  0.5232780000000  0.5644430000000 1.0
C      1  0.4819210000000  0.4342050000000  0.4926910000000 1.0
C      1  0.5284120000000  0.5667120000000  0.5139590000000 1.0
C      1  0.5310490000000  0.4272980000000  0.4134090000000 1.0
C      1  0.4725770000000  0.5697390000000  0.5890240000000 1.0
C      1  0.5394240000000  0.5532670000000  0.4903290000000 1.0
C      1  0.4624550000000  0.4429430000000  0.5135060000000 1.0
C      1  0.4326430000000  0.5879510000000  0.5581100000000 1.0
C      1  0.5633120000000  0.4182600000000  0.4397270000000 1.0
C      1  0.5799390000000  0.4823130000000  0.5580840000000 1.0
C      1  0.4358680000000  0.5111290000000  0.4394460000000 1.0
C      1  0.4362180000000  0.4651250000000  0.4225930000000 1.0
C      1  0.5614730000000  0.5259640000000  0.5684370000000 1.0
C      1  0.4686990000000  0.4680610000000  0.5229960000000 1.0
C      1  0.5174540000000  0.5374570000000  0.4817410000000 1.0
C      1  0.5006720000000  0.4248570000000  0.5121040000000 1.0
C      1  0.4830200000000  0.5797860000000  0.5055170000000 1.0
C      1  0.4223800000000  0.4890990000000  0.4281740000000 1.0
C      1  0.5827240000000  0.5072090000000  0.5706270000000 1.0
C      1  0.5064380000000  0.5931200000000  0.5503720000000 1.0
C      1  0.4982340000000  0.4022070000000  0.4548900000000 1.0
C      1  0.5077690000000  0.5188240000000  0.4044540000000 1.0
C      1  0.4940080000000  0.4778230000000  0.5860010000000 1.0
C      1  0.4080710000000  0.4938330000000  0.4492690000000 1.0
C      1  0.5975530000000  0.5040470000000  0.5499770000000 1.0
C      1  0.5628940000000  0.5551390000000  0.5639830000000 1.0
C      1  0.4360370000000  0.4378430000000  0.4342660000000 1.0
C      1  0.5593890000000  0.5055030000000  0.4893400000000 1.0
C      1  0.4470430000000  0.5122000000000  0.5149090000000 1.0
C      1  0.4632550000000  0.5992390000000  0.4937380000000 1.0
C      1  0.5299650000000  0.3945880000000  0.5033120000000 1.0
C      1  0.4784250000000  0.4815820000000  0.3985850000000 1.0
C      1  0.5333030000000  0.5027180000000  0.5977790000000 1.0
C      1  0.5057180000000  0.4013560000000  0.5487660000000 1.0
C      1  0.4935010000000  0.5935620000000  0.4550900000000 1.0
C      1  0.5560940000000  0.4284610000000  0.4842900000000 1.0
C      1  0.4568660000000  0.5687780000000  0.5244430000000 1.0
C      1  0.5086720000000  0.4654700000000  0.4226450000000 1.0
C      1  0.4939080000000  0.5350470000000  0.5693260000000 1.0
C      1  0.5782220000000  0.5755010000000  0.4784000000000 1.0
C      1  0.4237880000000  0.4225780000000  0.5187880000000 1.0
C      1  0.4910080000000  0.4225600000000  0.5620170000000 1.0
C      1  0.5051820000000  0.5699180000000  0.4411320000000 1.0
C      1  0.5002050000000  0.5644930000000  0.4133190000000 1.0
C      1  0.5008250000000  0.4365610000000  0.5865720000000 1.0
C      1  0.4517910000000  0.4571820000000  0.5873860000000 1.0
C      1  0.5475260000000  0.5433570000000  0.4107950000000 1.0
C      1  0.5300270000000  0.4013470000000  0.5329890000000 1.0
C      1  0.4663490000000  0.5956810000000  0.4646590000000 1.0
C      1  0.4422840000000  0.4567400000000  0.4950900000000 1.0
C      1  0.5574620000000  0.5322740000000  0.5030640000000 1.0
C      1  0.4772290000000  0.5375170000000  0.4959380000000 1.0
C      1  0.5213370000000  0.4714660000000  0.4971860000000 1.0
C      1  0.4592830000000  0.4744020000000  0.4807900000000 1.0
C      1  0.5340690000000  0.5251960000000  0.5229660000000 1.0
C      1  0.5556810000000  0.5624680000000  0.4321110000000 1.0
C      1  0.4452120000000  0.4378910000000  0.5652180000000 1.0
C      1  0.4567940000000  0.5578340000000  0.4351140000000 1.0
C      1  0.5462230000000  0.4423430000000  0.5680900000000 1.0
C      1  0.5936570000000  0.5571940000000  0.4943960000000 1.0
C      1  0.4057350000000  0.4408350000000  0.5049720000000 1.0
C      1  0.5389070000000  0.5574520000000  0.5797560000000 1.0
C      1  0.4634770000000  0.4340290000000  0.4270900000000 1.0
C      1  0.5570530000000  0.4397630000000  0.4204780000000 1.0
C      1  0.4467440000000  0.5634200000000  0.5733920000000 1.0
C      1  0.5790970000000  0.5003380000000  0.4686210000000 1.0
C      1  0.4225450000000  0.5034050000000  0.5283760000000 1.0
C      1  0.5139410000000  0.5467640000000  0.5289900000000 1.0
C      1  0.4794100000000  0.4635830000000  0.4642340000000 1.0
C      1  0.5051740000000  0.4991300000000  0.6031810000000 1.0
C      1  0.4804300000000  0.5107030000000  0.4012330000000 1.0
C      1  0.4801550000000  0.5205640000000  0.4582030000000 1.0
C      1  0.5372310000000  0.4806650000000  0.5398430000000 1.0
C      1  0.4637700000000  0.5032530000000  0.4450230000000 1.0
C      1  0.5383140000000  0.5089260000000  0.5481200000000 1.0
C      1  0.5990500000000  0.4793640000000  0.4631500000000 1.0
C      1  0.4006560000000  0.5209080000000  0.5349210000000 1.0
C      1  0.4729060000000  0.4153020000000  0.4493720000000 1.0
C      1  0.5228870000000  0.5756110000000  0.5651950000000 1.0
C      1  0.4185670000000  0.5408490000000  0.5464860000000 1.0
C      1  0.5783470000000  0.4616350000000  0.4544300000000 1.0
C      1  0.5591580000000  0.5914430000000  0.4944080000000 1.0
C      1  0.4433820000000  0.4074560000000  0.5019420000000 1.0
C      1  0.4104900000000  0.4628680000000  0.5415160000000 1.0
C      1  0.5900230000000  0.5367960000000  0.4556950000000 1.0
C      1  0.4398080000000  0.5920920000000  0.5312590000000 1.0
C      1  0.5432980000000  0.4233240000000  0.4630660000000 1.0
C      1  0.5381110000000  0.5300530000000  0.4544690000000 1.0
C      1  0.4586040000000  0.4733560000000  0.5482110000000 1.0
C      1  0.5002590000000  0.4937690000000  0.5111470000000 1.0
END
