TITL C-2441160-1326-461 0.0325488781763218 125000 -13818.8896003656 0 0 101 (C1) n - 1
REM
REM in /home/bkarasulu/work/CARBON/AIRSS/Generating-Clusters/ReaxFF-fromJPCA2015/Units_Real/with-SteepDescent/Higher-Symm
REM
REM
REM
REM
REM
REM ./C.cell (1df0a924f5614ab8850e4351716899ee)
REM
REM compiler GCC version 9.2.1 20190827 (Red Hat 9.2.1-1)
REM options -cpp -mtune=generic -march=x86-64 -g -O0 -fpre-include=/usr/include/finclude/math-vector-fortran.h
REM seed -375162316 558987765 2118672499 -905186967 479306436 -1106285298 -486838528 170685715 1492817368 84176663 562911536 -1248844262 606047814 2035544730 -194309784 1273679679 130089684 -2032868398 1871136794 1314986039 -1625294073 -1774051788 1243705654 -426329944 -1742890665 178568200 1524953735 2013774992 -780337369 333149915 1677565948 -322698727 968389013
REM
CELL 1.54180   50.00000   50.00000   50.00000   90.00000   90.00000   90.00000
LATT -1
SFAC C  
C      1  0.5223070000000  0.5307430000000  0.4299370000000 1.0
C      1  0.4799510000000  0.4683490000000  0.4267710000000 1.0
C      1  0.5192830000000  0.5353520000000  0.5703580000000 1.0
C      1  0.4776100000000  0.4680260000000  0.5716000000000 1.0
C      1  0.4753390000000  0.5258510000000  0.4265100000000 1.0
C      1  0.5223580000000  0.4713650000000  0.4286650000000 1.0
C      1  0.4818430000000  0.5359320000000  0.5708560000000 1.0
C      1  0.5217160000000  0.4688700000000  0.5709910000000 1.0
C      1  0.4855940000000  0.5859700000000  0.5156610000000 1.0
C      1  0.5144350000000  0.4149460000000  0.5149790000000 1.0
C      1  0.4843740000000  0.5846580000000  0.4843530000000 1.0
C      1  0.5137600000000  0.4140820000000  0.4856300000000 1.0
C      1  0.5154680000000  0.5848190000000  0.5142290000000 1.0
C      1  0.4854270000000  0.4146300000000  0.5166080000000 1.0
C      1  0.5145490000000  0.5844080000000  0.4845620000000 1.0
C      1  0.4839850000000  0.4151260000000  0.4843640000000 1.0
C      1  0.5661190000000  0.5321790000000  0.4473300000000 1.0
C      1  0.4360150000000  0.4691060000000  0.4476030000000 1.0
C      1  0.5628700000000  0.5306220000000  0.5518190000000 1.0
C      1  0.4346780000000  0.4689040000000  0.5513350000000 1.0
C      1  0.4336810000000  0.5332220000000  0.4451290000000 1.0
C      1  0.5651630000000  0.4682800000000  0.4475600000000 1.0
C      1  0.4373910000000  0.5303720000000  0.5523190000000 1.0
C      1  0.5656890000000  0.4685770000000  0.5516570000000 1.0
C      1  0.5501590000000  0.5203190000000  0.4278950000000 1.0
C      1  0.4515510000000  0.4782980000000  0.4272730000000 1.0
C      1  0.5447590000000  0.5212390000000  0.5719910000000 1.0
C      1  0.4489650000000  0.4764840000000  0.5731530000000 1.0
C      1  0.4477560000000  0.5265690000000  0.4261810000000 1.0
C      1  0.5506460000000  0.4766440000000  0.4276320000000 1.0
C      1  0.4566550000000  0.5217040000000  0.5720530000000 1.0
C      1  0.5516570000000  0.4769170000000  0.5728370000000 1.0
C      1  0.5333480000000  0.5691140000000  0.5302380000000 1.0
C      1  0.4689530000000  0.4273240000000  0.5363080000000 1.0
C      1  0.5308840000000  0.5662460000000  0.4686550000000 1.0
C      1  0.4663890000000  0.4305070000000  0.4660180000000 1.0
C      1  0.4681670000000  0.5721990000000  0.5333880000000 1.0
C      1  0.5314200000000  0.4351440000000  0.5300410000000 1.0
C      1  0.4654280000000  0.5697750000000  0.4671930000000 1.0
C      1  0.5300180000000  0.4346780000000  0.4711150000000 1.0
C      1  0.4572700000000  0.4905710000000  0.5129560000000 1.0
C      1  0.5483870000000  0.5142850000000  0.5102550000000 1.0
C      1  0.4565630000000  0.4877150000000  0.4843730000000 1.0
C      1  0.5442200000000  0.5134420000000  0.4798110000000 1.0
C      1  0.5484330000000  0.4840350000000  0.5104610000000 1.0
C      1  0.4572910000000  0.5169960000000  0.5132660000000 1.0
C      1  0.5450350000000  0.4854410000000  0.4809600000000 1.0
C      1  0.4556790000000  0.5162630000000  0.4792020000000 1.0
C      1  0.5755800000000  0.4607120000000  0.4719810000000 1.0
C      1  0.4251370000000  0.5397120000000  0.4709840000000 1.0
C      1  0.5766620000000  0.4603900000000  0.5284130000000 1.0
C      1  0.4259280000000  0.5389970000000  0.5293350000000 1.0
C      1  0.4254020000000  0.4604140000000  0.4710260000000 1.0
C      1  0.5758310000000  0.5406410000000  0.4717160000000 1.0
C      1  0.4261220000000  0.4606000000000  0.5278630000000 1.0
C      1  0.5749430000000  0.5393510000000  0.5288210000000 1.0
C      1  0.4122440000000  0.4838440000000  0.5146780000000 1.0
C      1  0.5913390000000  0.5156600000000  0.5140640000000 1.0
C      1  0.4119850000000  0.4846080000000  0.4864760000000 1.0
C      1  0.5894360000000  0.5163800000000  0.4858550000000 1.0
C      1  0.5912460000000  0.4854940000000  0.5138080000000 1.0
C      1  0.4129150000000  0.5159000000000  0.5146420000000 1.0
C      1  0.5891500000000  0.4850490000000  0.4857560000000 1.0
C      1  0.4123480000000  0.5148890000000  0.4865920000000 1.0
C      1  0.5168830000000  0.5205610000000  0.4763290000000 1.0
C      1  0.4811780000000  0.4772920000000  0.4743650000000 1.0
C      1  0.5062780000000  0.5138840000000  0.5318500000000 1.0
C      1  0.4782450000000  0.4777880000000  0.5255470000000 1.0
C      1  0.4783420000000  0.5315100000000  0.4687980000000 1.0
C      1  0.5202280000000  0.4769420000000  0.4748750000000 1.0
C      1  0.4798670000000  0.5230820000000  0.5296250000000 1.0
C      1  0.5050030000000  0.4859110000000  0.5259770000000 1.0
C      1  0.5570440000000  0.4418300000000  0.4858280000000 1.0
C      1  0.4439470000000  0.5601500000000  0.4837760000000 1.0
C      1  0.5575300000000  0.4408770000000  0.5143880000000 1.0
C      1  0.4458500000000  0.5602130000000  0.5155970000000 1.0
C      1  0.4449870000000  0.4410510000000  0.4824790000000 1.0
C      1  0.5551590000000  0.5581490000000  0.4848690000000 1.0
C      1  0.4479330000000  0.4411050000000  0.5142180000000 1.0
C      1  0.5557680000000  0.5592620000000  0.5142410000000 1.0
C      1  0.5148520000000  0.5530330000000  0.4471680000000 1.0
C      1  0.4846090000000  0.4450590000000  0.4445810000000 1.0
C      1  0.5160930000000  0.5573050000000  0.5536070000000 1.0
C      1  0.4853100000000  0.4440080000000  0.5549620000000 1.0
C      1  0.4843160000000  0.5499470000000  0.4461180000000 1.0
C      1  0.5124910000000  0.4484610000000  0.4446510000000 1.0
C      1  0.4857370000000  0.5590800000000  0.5552260000000 1.0
C      1  0.5141750000000  0.4465880000000  0.5542250000000 1.0
C      1  0.5251190000000  0.5305580000000  0.5178830000000 1.0
C      1  0.4740200000000  0.4552960000000  0.5092850000000 1.0
C      1  0.5133490000000  0.5407600000000  0.4944150000000 1.0
C      1  0.4894340000000  0.4532620000000  0.4878460000000 1.0
C      1  0.4714550000000  0.5405830000000  0.5113220000000 1.0
C      1  0.5252490000000  0.4664110000000  0.5171670000000 1.0
C      1  0.4881340000000  0.5464810000000  0.4910490000000 1.0
C      1  0.5159770000000  0.4547630000000  0.4892640000000 1.0
C      1  0.4711750000000  0.4960350000000  0.5660130000000 1.0
C      1  0.5259050000000  0.5018850000000  0.4359370000000 1.0
C      1  0.4752100000000  0.4975020000000  0.4329350000000 1.0
C      1  0.5302840000000  0.4960570000000  0.5641740000000 1.0
C      1  0.5012040000000  0.4969790000000  0.4839490000000 1.0
END
