TITL C-2441157-2117-151 0.000990097427740168 125000 -7558.72488961745 0 0 54 (C1) n - 1
REM
REM in /home/bkarasulu/work/CARBON/AIRSS/Generating-Clusters/ReaxFF-fromJPCA2015/Units_Real/with-SteepDescent/Higher-Symm
REM
REM
REM
REM
REM
REM ./C.cell (1df0a924f5614ab8850e4351716899ee)
REM
REM compiler GCC version 9.2.1 20190827 (Red Hat 9.2.1-1)
REM options -cpp -mtune=generic -march=x86-64 -g -O0 -fpre-include=/usr/include/finclude/math-vector-fortran.h
REM seed 289622321 1300541454 1083762005 566085520 343147202 502698202 -1055179739 2130175980 1517786712 1790139783 -49660787 1605314878 817683396 285759133 -2085986382 -2097910994 -405098975 409611604 -864468284 -1915603800 -1811842633 -955007896 -2033733878 1283871867 -78801428 -1986863891 1746593431 -1510737507 717924563 240554166 1125650684 -547749680 -70945362
REM
CELL 1.54180   50.00000   50.00000   50.00000   90.00000   90.00000   90.00000
LATT -1
SFAC C  
C      1  0.4672440000000  0.5670950000000  0.5027820000000 1.0
C      1  0.5003030000000  0.4327220000000  0.5310530000000 1.0
C      1  0.5327260000000  0.5657610000000  0.5064130000000 1.0
C      1  0.5081470000000  0.4344040000000  0.4642690000000 1.0
C      1  0.4722780000000  0.5222360000000  0.5534610000000 1.0
C      1  0.5529960000000  0.4786530000000  0.5273730000000 1.0
C      1  0.5272830000000  0.5224230000000  0.4464110000000 1.0
C      1  0.4465840000000  0.4758380000000  0.4714650000000 1.0
C      1  0.4943810000000  0.5066260000000  0.5665150000000 1.0
C      1  0.5659710000000  0.4927450000000  0.5051440000000 1.0
C      1  0.5055090000000  0.5076360000000  0.4340640000000 1.0
C      1  0.4342430000000  0.4922580000000  0.4919040000000 1.0
C      1  0.4565800000000  0.4544120000000  0.5231210000000 1.0
C      1  0.5224800000000  0.5455330000000  0.5415640000000 1.0
C      1  0.5418860000000  0.4532820000000  0.4768720000000 1.0
C      1  0.4783440000000  0.5464000000000  0.4561810000000 1.0
C      1  0.5564630000000  0.5237710000000  0.5023840000000 1.0
C      1  0.5019370000000  0.4798240000000  0.4438790000000 1.0
C      1  0.4433070000000  0.5237610000000  0.4972970000000 1.0
C      1  0.4968370000000  0.4760650000000  0.5562270000000 1.0
C      1  0.5157870000000  0.4511680000000  0.5453500000000 1.0
C      1  0.5447150000000  0.5493520000000  0.4856180000000 1.0
C      1  0.4839980000000  0.4467800000000  0.4580910000000 1.0
C      1  0.4537600000000  0.5478760000000  0.5176330000000 1.0
C      1  0.4386550000000  0.4721500000000  0.5105490000000 1.0
C      1  0.5129830000000  0.5261880000000  0.5601870000000 1.0
C      1  0.5602290000000  0.4717300000000  0.4880920000000 1.0
C      1  0.4819150000000  0.5241560000000  0.4377530000000 1.0
C      1  0.4614260000000  0.4508220000000  0.4759070000000 1.0
C      1  0.4763430000000  0.5453980000000  0.5352250000000 1.0
C      1  0.5348420000000  0.4542840000000  0.5234820000000 1.0
C      1  0.5256280000000  0.5472510000000  0.4632420000000 1.0
C      1  0.4738400000000  0.4747190000000  0.5380110000000 1.0
C      1  0.5375970000000  0.5247240000000  0.5246200000000 1.0
C      1  0.5234920000000  0.4766270000000  0.4633500000000 1.0
C      1  0.4632430000000  0.5276620000000  0.4756030000000 1.0
C      1  0.4637140000000  0.5095260000000  0.5126330000000 1.0
C      1  0.5122000000000  0.4896170000000  0.5350330000000 1.0
C      1  0.5358720000000  0.5109200000000  0.4871500000000 1.0
C      1  0.4808530000000  0.4862490000000  0.4631350000000 1.0
C      1  0.4639590000000  0.5082590000000  0.4543850000000 1.0
C      1  0.4606260000000  0.4996730000000  0.5392800000000 1.0
C      1  0.5385540000000  0.5005920000000  0.5402490000000 1.0
C      1  0.5390240000000  0.5008230000000  0.4607100000000 1.0
C      1  0.5009130000000  0.4815660000000  0.4850120000000 1.0
C      1  0.4858680000000  0.5186220000000  0.4980270000000 1.0
C      1  0.4983800000000  0.4803280000000  0.5123310000000 1.0
C      1  0.5132900000000  0.5190790000000  0.5005650000000 1.0
C      1  0.4701720000000  0.4390430000000  0.5019630000000 1.0
C      1  0.5056470000000  0.5634250000000  0.5237280000000 1.0
C      1  0.5269110000000  0.4393690000000  0.4985380000000 1.0
C      1  0.5002550000000  0.5603240000000  0.4689240000000 1.0
C      1  0.4978840000000  0.4274480000000  0.5035940000000 1.0
C      1  0.4934420000000  0.5728070000000  0.4958120000000 1.0
END
