TITL C-2441161-5029-838 0.0216166546322601 125000 -8777.0380341682 0 0 65 (C1) n - 1
REM
REM in /home/bkarasulu/work/CARBON/AIRSS/Generating-Clusters/ReaxFF-fromJPCA2015/Units_Real/with-SteepDescent/Higher-Symm
REM
REM
REM
REM
REM
REM ./C.cell (1df0a924f5614ab8850e4351716899ee)
REM
REM compiler GCC version 9.2.1 20190827 (Red Hat 9.2.1-1)
REM options -cpp -mtune=generic -march=x86-64 -g -O0 -fpre-include=/usr/include/finclude/math-vector-fortran.h
REM seed -752791933 -15942749 -395997424 -1919158657 483012013 1599945586 1131528401 -1259066017 -1989684889 2073883969 -744732023 -533411281 305863322 -1734908160 630197673 -2137899058 -518113568 765195268 -895693063 1264337368 -1263525147 1035883635 -1633278788 -2056155037 -1132762077 487982826 -1369250244 580368050 -1139430364 1116528342 -1054919640 1214003131 -2030144965
REM
CELL 1.54180   50.00000   50.00000   50.00000   90.00000   90.00000   90.00000
LATT -1
SFAC C  
C      1  0.5034400000000  0.4530180000000  0.4476770000000 1.0
C      1  0.4904580000000  0.5424600000000  0.5535080000000 1.0
C      1  0.5695490000000  0.5299350000000  0.5178490000000 1.0
C      1  0.4282890000000  0.4681500000000  0.4796020000000 1.0
C      1  0.5262650000000  0.4294330000000  0.4853110000000 1.0
C      1  0.4732700000000  0.5695160000000  0.5132860000000 1.0
C      1  0.5152240000000  0.5110970000000  0.4441380000000 1.0
C      1  0.4847420000000  0.4909990000000  0.5500410000000 1.0
C      1  0.5631310000000  0.4813890000000  0.4911380000000 1.0
C      1  0.4343500000000  0.5161230000000  0.5067180000000 1.0
C      1  0.4445220000000  0.4873500000000  0.4993280000000 1.0
C      1  0.5512150000000  0.5107200000000  0.4995960000000 1.0
C      1  0.4773350000000  0.5178120000000  0.4954340000000 1.0
C      1  0.5194940000000  0.4785770000000  0.5060800000000 1.0
C      1  0.4959570000000  0.5802530000000  0.4984900000000 1.0
C      1  0.5029850000000  0.4184910000000  0.5023860000000 1.0
C      1  0.4920170000000  0.5545840000000  0.4543950000000 1.0
C      1  0.5056330000000  0.4465950000000  0.5484160000000 1.0
C      1  0.4434930000000  0.5278550000000  0.4553580000000 1.0
C      1  0.5550660000000  0.4727790000000  0.5481040000000 1.0
C      1  0.5629240000000  0.5253460000000  0.5464240000000 1.0
C      1  0.4380860000000  0.4728590000000  0.4524980000000 1.0
C      1  0.4727060000000  0.5165740000000  0.5625730000000 1.0
C      1  0.5227160000000  0.4815940000000  0.4376510000000 1.0
C      1  0.4798120000000  0.4432300000000  0.5385710000000 1.0
C      1  0.5183620000000  0.5602470000000  0.4609290000000 1.0
C      1  0.4338470000000  0.5261220000000  0.4811720000000 1.0
C      1  0.5630920000000  0.4781750000000  0.5203640000000 1.0
C      1  0.5415940000000  0.5673380000000  0.5062090000000 1.0
C      1  0.4620410000000  0.4343060000000  0.4913200000000 1.0
C      1  0.5269310000000  0.5073300000000  0.5687320000000 1.0
C      1  0.4721170000000  0.4946280000000  0.4293800000000 1.0
C      1  0.4655880000000  0.4759640000000  0.5166840000000 1.0
C      1  0.5273180000000  0.5176020000000  0.4839460000000 1.0
C      1  0.5096630000000  0.4848670000000  0.5629200000000 1.0
C      1  0.4880970000000  0.5178510000000  0.4352960000000 1.0
C      1  0.5418350000000  0.5442240000000  0.5546190000000 1.0
C      1  0.4611370000000  0.4559250000000  0.4456430000000 1.0
C      1  0.5138360000000  0.4442450000000  0.5055710000000 1.0
C      1  0.4933870000000  0.5520600000000  0.5039850000000 1.0
C      1  0.5300070000000  0.5545490000000  0.5304720000000 1.0
C      1  0.4793140000000  0.4525530000000  0.4697230000000 1.0
C      1  0.5270640000000  0.4616270000000  0.5567130000000 1.0
C      1  0.4704560000000  0.5401580000000  0.4462130000000 1.0
C      1  0.4463570000000  0.4999300000000  0.4433650000000 1.0
C      1  0.5534870000000  0.5005750000000  0.5582430000000 1.0
C      1  0.5215280000000  0.5756230000000  0.4857770000000 1.0
C      1  0.4771370000000  0.4248800000000  0.5142780000000 1.0
C      1  0.5053950000000  0.5413340000000  0.5273470000000 1.0
C      1  0.4843050000000  0.4799580000000  0.4806590000000 1.0
C      1  0.4630190000000  0.4985400000000  0.4790910000000 1.0
C      1  0.5388930000000  0.4951050000000  0.5195370000000 1.0
C      1  0.4371950000000  0.4448580000000  0.4916460000000 1.0
C      1  0.5664590000000  0.5541560000000  0.5044710000000 1.0
C      1  0.5465910000000  0.4779590000000  0.4301050000000 1.0
C      1  0.4488100000000  0.5188640000000  0.5715230000000 1.0
C      1  0.5295990000000  0.5315940000000  0.4590400000000 1.0
C      1  0.4683970000000  0.4715960000000  0.5392570000000 1.0
C      1  0.5286400000000  0.4499040000000  0.4642490000000 1.0
C      1  0.4661930000000  0.5498890000000  0.5332160000000 1.0
C      1  0.4831760000000  0.4673200000000  0.4302600000000 1.0
C      1  0.5174070000000  0.5341010000000  0.5659590000000 1.0
C      1  0.4598430000000  0.5261010000000  0.5176640000000 1.0
C      1  0.5379350000000  0.4712280000000  0.4827490000000 1.0
C      1  0.5040070000000  0.4997400000000  0.4922580000000 1.0
END
