TITL C-2441164-471-1205 0.0301007168221336 125000 -9832.19192492613 0 0 73 (C1) n - 1
REM
REM in /home/bkarasulu/work/CARBON/AIRSS/Generating-Clusters/ReaxFF-fromJPCA2015/Units_Real/with-SteepDescent/Higher-Symm
REM
REM
REM
REM
REM
REM ./C.cell (1df0a924f5614ab8850e4351716899ee)
REM
REM compiler GCC version 9.2.1 20190827 (Red Hat 9.2.1-1)
REM options -cpp -mtune=generic -march=x86-64 -g -O0 -fpre-include=/usr/include/finclude/math-vector-fortran.h
REM seed -1470215524 1011326094 -1441506999 885814273 -1359436004 -497317023 -593691943 -730901241 1292793105 127867670 -1719484269 559157750 1579306402 -1805411487 -706625605 214302127 889821613 -1356208640 -429819027 -979666022 1446229990 -1402469760 -783850718 -498011497 -1746046986 1136824698 -550332821 -205369968 -1251016616 -1072556881 -666400621 -314248547 981074675
REM
CELL 1.54180   50.00000   50.00000   50.00000   90.00000   90.00000   90.00000
LATT -1
SFAC C  
C      1  0.4844000000000  0.4410250000000  0.5106520000000 1.0
C      1  0.5555210000000  0.4784220000000  0.5095140000000 1.0
C      1  0.5208010000000  0.5584020000000  0.5101590000000 1.0
C      1  0.4482240000000  0.5172220000000  0.5115480000000 1.0
C      1  0.4798160000000  0.5595740000000  0.5098670000000 1.0
C      1  0.5571910000000  0.5223130000000  0.5093380000000 1.0
C      1  0.5146680000000  0.4401930000000  0.5107110000000 1.0
C      1  0.4446300000000  0.4879170000000  0.5162540000000 1.0
C      1  0.4581820000000  0.4346820000000  0.4911100000000 1.0
C      1  0.5616080000000  0.4551360000000  0.4934650000000 1.0
C      1  0.5433170000000  0.5653650000000  0.4926470000000 1.0
C      1  0.4378500000000  0.5403570000000  0.4942520000000 1.0
C      1  0.4561000000000  0.5631550000000  0.4939480000000 1.0
C      1  0.5646760000000  0.5449350000000  0.4925660000000 1.0
C      1  0.5372250000000  0.4376010000000  0.4928550000000 1.0
C      1  0.4378820000000  0.4560720000000  0.4914570000000 1.0
C      1  0.4340950000000  0.4729110000000  0.5662340000000 1.0
C      1  0.5250180000000  0.4417020000000  0.5592230000000 1.0
C      1  0.5578180000000  0.5245220000000  0.5596330000000 1.0
C      1  0.4756050000000  0.5605540000000  0.5593960000000 1.0
C      1  0.4347830000000  0.5289840000000  0.5654850000000 1.0
C      1  0.5246040000000  0.5596090000000  0.5601110000000 1.0
C      1  0.5580670000000  0.4762850000000  0.5597290000000 1.0
C      1  0.4740890000000  0.4341540000000  0.5666130000000 1.0
C      1  0.5158290000000  0.4596450000000  0.5328970000000 1.0
C      1  0.5415720000000  0.5179980000000  0.5340450000000 1.0
C      1  0.4848640000000  0.5425830000000  0.5334360000000 1.0
C      1  0.4675240000000  0.4879330000000  0.5359450000000 1.0
C      1  0.5177920000000  0.5423810000000  0.5351970000000 1.0
C      1  0.5414210000000  0.4833550000000  0.5348870000000 1.0
C      1  0.4860800000000  0.4638400000000  0.5349120000000 1.0
C      1  0.4678150000000  0.5181560000000  0.5345920000000 1.0
C      1  0.4414580000000  0.4590100000000  0.4620100000000 1.0
C      1  0.5365230000000  0.4415280000000  0.4637870000000 1.0
C      1  0.5587400000000  0.5396120000000  0.4638080000000 1.0
C      1  0.4604110000000  0.5594980000000  0.4647190000000 1.0
C      1  0.4407660000000  0.5377390000000  0.4653580000000 1.0
C      1  0.5379260000000  0.5601120000000  0.4640080000000 1.0
C      1  0.5579120000000  0.4610870000000  0.4647350000000 1.0
C      1  0.4624490000000  0.4383250000000  0.4628170000000 1.0
C      1  0.4841890000000  0.4648050000000  0.4941570000000 1.0
C      1  0.5324990000000  0.4878590000000  0.4938990000000 1.0
C      1  0.5147680000000  0.5353810000000  0.4939290000000 1.0
C      1  0.4723950000000  0.5161240000000  0.4891370000000 1.0
C      1  0.4890100000000  0.5397260000000  0.4907850000000 1.0
C      1  0.5335700000000  0.5149980000000  0.4932490000000 1.0
C      1  0.5072440000000  0.4783820000000  0.4836340000000 1.0
C      1  0.4585550000000  0.4760430000000  0.4949860000000 1.0
C      1  0.5136730000000  0.5513370000000  0.4491820000000 1.0
C      1  0.4491600000000  0.5137330000000  0.4502330000000 1.0
C      1  0.4862210000000  0.4489600000000  0.4486480000000 1.0
C      1  0.5513760000000  0.4854400000000  0.4493970000000 1.0
C      1  0.5146000000000  0.4503110000000  0.4490640000000 1.0
C      1  0.4488010000000  0.4842690000000  0.4483490000000 1.0
C      1  0.4843640000000  0.5518900000000  0.4489300000000 1.0
C      1  0.5493810000000  0.5147650000000  0.4506280000000 1.0
C      1  0.4589410000000  0.5187220000000  0.5685140000000 1.0
C      1  0.4835700000000  0.4586790000000  0.5692400000000 1.0
C      1  0.5365680000000  0.4847980000000  0.5784830000000 1.0
C      1  0.5146130000000  0.5380880000000  0.5776350000000 1.0
C      1  0.4573420000000  0.4829950000000  0.5686530000000 1.0
C      1  0.4845760000000  0.5394400000000  0.5762310000000 1.0
C      1  0.5359690000000  0.5154550000000  0.5772330000000 1.0
C      1  0.5165660000000  0.4626480000000  0.5763770000000 1.0
C      1  0.5133520000000  0.5344380000000  0.4253720000000 1.0
C      1  0.4658550000000  0.5142860000000  0.4265770000000 1.0
C      1  0.4862270000000  0.4658990000000  0.4246510000000 1.0
C      1  0.5346980000000  0.4860740000000  0.4256770000000 1.0
C      1  0.5151550000000  0.4664810000000  0.4259620000000 1.0
C      1  0.4655330000000  0.4858910000000  0.4243520000000 1.0
C      1  0.4848520000000  0.5342160000000  0.4257930000000 1.0
C      1  0.5334710000000  0.5142860000000  0.4262030000000 1.0
C      1  0.4932140000000  0.5015270000000  0.4823060000000 1.0
END
