TITL C-2441161-5029-477 0.0288324036627679 125000 -17619.5644910536 0 0 119 (C1) n - 1
REM
REM in /home/bkarasulu/work/CARBON/AIRSS/Generating-Clusters/ReaxFF-fromJPCA2015/Units_Real/with-SteepDescent/Higher-Symm
REM
REM
REM
REM
REM
REM ./C.cell (1df0a924f5614ab8850e4351716899ee)
REM
REM compiler GCC version 9.2.1 20190827 (Red Hat 9.2.1-1)
REM options -cpp -mtune=generic -march=x86-64 -g -O0 -fpre-include=/usr/include/finclude/math-vector-fortran.h
REM seed -288921813 1138070423 450186376 1483665872 -368715713 -109989791 -969758979 292266869 -660150070 -1660598291 1842183949 -1557582883 2062282993 -85334474 696011436 -1340363846 -1480076969 653217006 629344006 -959671670 -1526700376 -2042151665 236378302 306823423 -1836909352 -1121249433 1689229353 -849834211 1370090094 -123798177 -332179388 -1579645199 -1270629388
REM
CELL 1.54180   50.00000   50.00000   50.00000   90.00000   90.00000   90.00000
LATT -1
SFAC C  
C      1  0.4727430000000  0.5224030000000  0.5222750000000 1.0
C      1  0.5004720000000  0.5204940000000  0.5359330000000 1.0
C      1  0.5290930000000  0.5205860000000  0.5199410000000 1.0
C      1  0.5317110000000  0.5320370000000  0.4912960000000 1.0
C      1  0.5146880000000  0.5218840000000  0.4691870000000 1.0
C      1  0.4840080000000  0.5205670000000  0.4705650000000 1.0
C      1  0.4677500000000  0.5322000000000  0.4946970000000 1.0
C      1  0.4620890000000  0.5288670000000  0.4390690000000 1.0
C      1  0.4328070000000  0.5294480000000  0.4912100000000 1.0
C      1  0.4502120000000  0.5290950000000  0.5488410000000 1.0
C      1  0.5066080000000  0.5285140000000  0.5704220000000 1.0
C      1  0.5589630000000  0.5293040000000  0.5380090000000 1.0
C      1  0.5644140000000  0.5293500000000  0.4783480000000 1.0
C      1  0.5232350000000  0.5285350000000  0.4353750000000 1.0
C      1  0.4980750000000  0.5762010000000  0.5342400000000 1.0
C      1  0.5245970000000  0.5742220000000  0.5227670000000 1.0
C      1  0.5317600000000  0.5659070000000  0.4942320000000 1.0
C      1  0.5156110000000  0.5757290000000  0.4693160000000 1.0
C      1  0.4875630000000  0.5748980000000  0.4681590000000 1.0
C      1  0.4686350000000  0.5660030000000  0.4918980000000 1.0
C      1  0.4725820000000  0.5760140000000  0.5203130000000 1.0
C      1  0.5346610000000  0.4143270000000  0.4910390000000 1.0
C      1  0.5123030000000  0.4129520000000  0.4702760000000 1.0
C      1  0.4818000000000  0.4162470000000  0.4741570000000 1.0
C      1  0.4609420000000  0.4156320000000  0.4984390000000 1.0
C      1  0.4847640000000  0.4262550000000  0.5350010000000 1.0
C      1  0.5049490000000  0.4076350000000  0.5365670000000 1.0
C      1  0.5306550000000  0.4104750000000  0.5222800000000 1.0
C      1  0.5370020000000  0.4942050000000  0.5303080000000 1.0
C      1  0.5489440000000  0.4864820000000  0.4869120000000 1.0
C      1  0.5302180000000  0.4927670000000  0.4640220000000 1.0
C      1  0.4797160000000  0.4952290000000  0.4559280000000 1.0
C      1  0.4497600000000  0.4872120000000  0.4907730000000 1.0
C      1  0.4564680000000  0.4933770000000  0.5193770000000 1.0
C      1  0.4965400000000  0.4947550000000  0.5494010000000 1.0
C      1  0.4824500000000  0.4623670000000  0.4188900000000 1.0
C      1  0.4223430000000  0.4635900000000  0.4609470000000 1.0
C      1  0.4233490000000  0.4620230000000  0.5335100000000 1.0
C      1  0.4801030000000  0.4618200000000  0.5792420000000 1.0
C      1  0.5509900000000  0.4631900000000  0.5657170000000 1.0
C      1  0.5866110000000  0.4628980000000  0.5007610000000 1.0
C      1  0.5541660000000  0.4625490000000  0.4350020000000 1.0
C      1  0.5820240000000  0.5141790000000  0.5256690000000 1.0
C      1  0.5705680000000  0.5144540000000  0.4531710000000 1.0
C      1  0.5066090000000  0.5134590000000  0.4162530000000 1.0
C      1  0.4372190000000  0.5138060000000  0.4412790000000 1.0
C      1  0.4165640000000  0.5147450000000  0.5113760000000 1.0
C      1  0.4566600000000  0.5132520000000  0.5720690000000 1.0
C      1  0.5307610000000  0.5134730000000  0.5805590000000 1.0
C      1  0.5861630000000  0.5274800000000  0.5001380000000 1.0
C      1  0.5542220000000  0.5275170000000  0.4331170000000 1.0
C      1  0.4813470000000  0.5280380000000  0.4156890000000 1.0
C      1  0.4235110000000  0.5278260000000  0.4624430000000 1.0
C      1  0.4225320000000  0.5278950000000  0.5366510000000 1.0
C      1  0.4790490000000  0.5273650000000  0.5839980000000 1.0
C      1  0.5534670000000  0.5275290000000  0.5685180000000 1.0
C      1  0.5805420000000  0.5562670000000  0.5057820000000 1.0
C      1  0.5545650000000  0.5561880000000  0.4406580000000 1.0
C      1  0.4880180000000  0.5565190000000  0.4201400000000 1.0
C      1  0.4301420000000  0.5562360000000  0.4596710000000 1.0
C      1  0.4250300000000  0.5564050000000  0.5291790000000 1.0
C      1  0.4757520000000  0.5560170000000  0.5769090000000 1.0
C      1  0.5448730000000  0.5556870000000  0.5665010000000 1.0
C      1  0.5221890000000  0.4276410000000  0.4499280000000 1.0
C      1  0.4727310000000  0.4297890000000  0.4535880000000 1.0
C      1  0.4406750000000  0.4290150000000  0.4897750000000 1.0
C      1  0.4581650000000  0.4244600000000  0.5271950000000 1.0
C      1  0.4967730000000  0.4218810000000  0.5594240000000 1.0
C      1  0.5474600000000  0.4272700000000  0.5343650000000 1.0
C      1  0.5561250000000  0.4292540000000  0.4846650000000 1.0
C      1  0.5196090000000  0.4879760000000  0.5883840000000 1.0
C      1  0.5814090000000  0.4885610000000  0.5391060000000 1.0
C      1  0.5831510000000  0.4894440000000  0.4601590000000 1.0
C      1  0.5202670000000  0.4881410000000  0.4149820000000 1.0
C      1  0.4442030000000  0.4884260000000  0.4295950000000 1.0
C      1  0.4077900000000  0.4900780000000  0.4993690000000 1.0
C      1  0.4445830000000  0.4874790000000  0.5670220000000 1.0
C      1  0.4332780000000  0.4888280000000  0.5404140000000 1.0
C      1  0.4918550000000  0.4892120000000  0.5780180000000 1.0
C      1  0.5550800000000  0.4897390000000  0.5535620000000 1.0
C      1  0.5784180000000  0.4890210000000  0.4894930000000 1.0
C      1  0.5419070000000  0.4888230000000  0.4346740000000 1.0
C      1  0.4737030000000  0.4894400000000  0.4272190000000 1.0
C      1  0.4250780000000  0.4895500000000  0.4749930000000 1.0
C      1  0.5268380000000  0.4603840000000  0.5811090000000 1.0
C      1  0.5834210000000  0.4613970000000  0.5291350000000 1.0
C      1  0.5761610000000  0.4618600000000  0.4535140000000 1.0
C      1  0.5106930000000  0.4603640000000  0.4150620000000 1.0
C      1  0.4382110000000  0.4611280000000  0.4373280000000 1.0
C      1  0.4104430000000  0.4623170000000  0.5075470000000 1.0
C      1  0.4540810000000  0.4594370000000  0.5666940000000 1.0
C      1  0.5026210000000  0.4442780000000  0.5763980000000 1.0
C      1  0.5645410000000  0.4443560000000  0.5466540000000 1.0
C      1  0.5780520000000  0.4446030000000  0.4783830000000 1.0
C      1  0.5311820000000  0.4432600000000  0.4291410000000 1.0
C      1  0.4628970000000  0.4441680000000  0.4321770000000 1.0
C      1  0.4187620000000  0.4451670000000  0.4842580000000 1.0
C      1  0.4439020000000  0.4439190000000  0.5438410000000 1.0
C      1  0.4985350000000  0.4712090000000  0.5326350000000 1.0
C      1  0.5241050000000  0.4696810000000  0.5214350000000 1.0
C      1  0.5305140000000  0.4661450000000  0.4948100000000 1.0
C      1  0.5150480000000  0.4696860000000  0.4727650000000 1.0
C      1  0.4875450000000  0.4704310000000  0.4693090000000 1.0
C      1  0.4696180000000  0.4668080000000  0.4909330000000 1.0
C      1  0.4750000000000  0.4704030000000  0.5180280000000 1.0
C      1  0.4533740000000  0.5556810000000  0.5600850000000 1.0
C      1  0.5178530000000  0.5560000000000  0.5747750000000 1.0
C      1  0.5695000000000  0.5562140000000  0.5319170000000 1.0
C      1  0.5690650000000  0.5564750000000  0.4652350000000 1.0
C      1  0.5156290000000  0.5554930000000  0.4251010000000 1.0
C      1  0.4511570000000  0.5558280000000  0.4408240000000 1.0
C      1  0.4224880000000  0.5565470000000  0.5009680000000 1.0
C      1  0.4750840000000  0.5719990000000  0.4416970000000 1.0
C      1  0.4394320000000  0.5706990000000  0.4831440000000 1.0
C      1  0.4488320000000  0.5722980000000  0.5370350000000 1.0
C      1  0.4967640000000  0.5719460000000  0.5640670000000 1.0
C      1  0.5465970000000  0.5704670000000  0.5412360000000 1.0
C      1  0.5617880000000  0.5705430000000  0.4888110000000 1.0
C      1  0.5298440000000  0.5721980000000  0.4436040000000 1.0
END
