TITL C-2441163-1170-1320 4.22375446873858e-06 125000 -8220.85537510052 0 0 56 (D2d) n - 1
REM
REM in /home/bkarasulu/work/CARBON/AIRSS/Generating-Clusters/ReaxFF-fromJPCA2015/Units_Real/with-SteepDescent/Higher-Symm
REM
REM
REM
REM
REM
REM ./C.cell (1df0a924f5614ab8850e4351716899ee)
REM
REM compiler GCC version 9.2.1 20190827 (Red Hat 9.2.1-1)
REM options -cpp -mtune=generic -march=x86-64 -g -O0 -fpre-include=/usr/include/finclude/math-vector-fortran.h
REM seed 324428413 1530742054 94204701 1819219828 -515439887 1578422077 1544712952 -542202220 -20836909 -1991832566 -1258868722 1993272884 2126314895 1625510914 1727225387 -466654266 -1149437290 483438199 -1209818258 -1080078151 -116367075 1726827364 920412510 -1093579878 -555486180 -718203164 477861286 1914993423 532175641 -243939797 10455361 461784469 -726207556
REM
CELL 1.54180   50.00000   50.00000   50.00000   90.00000   90.00000   90.00000
LATT -1
SFAC C  
C      1  0.5128320000000  0.4699930000000  0.4960330000000 1.0
C      1  0.4871680000000  0.5300070000000  0.4960330000000 1.0
C      1  0.4871680000000  0.4699930000000  0.5039670000000 1.0
C      1  0.5128320000000  0.5300070000000  0.5039670000000 1.0
C      1  0.4699930000000  0.5128320000000  0.4960330000000 1.0
C      1  0.5300070000000  0.4871680000000  0.4960330000000 1.0
C      1  0.4699930000000  0.4871680000000  0.5039670000000 1.0
C      1  0.5300070000000  0.5128320000000  0.5039670000000 1.0
C      1  0.4858390000000  0.4274930000000  0.4978630000000 1.0
C      1  0.5141610000000  0.5725070000000  0.4978630000000 1.0
C      1  0.5141610000000  0.4274930000000  0.5021370000000 1.0
C      1  0.4858390000000  0.5725070000000  0.5021370000000 1.0
C      1  0.4274930000000  0.4858390000000  0.4978640000000 1.0
C      1  0.5725070000000  0.5141610000000  0.4978630000000 1.0
C      1  0.4274930000000  0.5141610000000  0.5021370000000 1.0
C      1  0.5725070000000  0.4858390000000  0.5021360000000 1.0
C      1  0.5669880000000  0.5165850000000  0.4694340000000 1.0
C      1  0.4330120000000  0.4834150000000  0.4694340000000 1.0
C      1  0.4330120000000  0.5165850000000  0.5305660000000 1.0
C      1  0.5669880000000  0.4834150000000  0.5305660000000 1.0
C      1  0.5165850000000  0.5669880000000  0.4694340000000 1.0
C      1  0.4834150000000  0.4330120000000  0.4694340000000 1.0
C      1  0.5165850000000  0.4330120000000  0.5305660000000 1.0
C      1  0.4834150000000  0.5669880000000  0.5305660000000 1.0
C      1  0.4626600000000  0.4463690000000  0.4603590000000 1.0
C      1  0.5373400000000  0.5536310000000  0.4603590000000 1.0
C      1  0.5373400000000  0.4463690000000  0.5396410000000 1.0
C      1  0.4626600000000  0.5536310000000  0.5396410000000 1.0
C      1  0.4463690000000  0.4626600000000  0.4603590000000 1.0
C      1  0.5536310000000  0.5373400000000  0.4603590000000 1.0
C      1  0.4463690000000  0.5373400000000  0.5396410000000 1.0
C      1  0.5536310000000  0.4626600000000  0.5396410000000 1.0
C      1  0.5037980000000  0.5495360000000  0.5397920000000 1.0
C      1  0.4962020000000  0.4504640000000  0.5397920000000 1.0
C      1  0.4962020000000  0.5495360000000  0.4602080000000 1.0
C      1  0.5037980000000  0.4504640000000  0.4602080000000 1.0
C      1  0.5495360000000  0.5037980000000  0.5397920000000 1.0
C      1  0.4504640000000  0.4962020000000  0.5397920000000 1.0
C      1  0.5495360000000  0.4962020000000  0.4602080000000 1.0
C      1  0.4504640000000  0.5037980000000  0.4602080000000 1.0
C      1  0.5210590000000  0.4996040000000  0.4506770000000 1.0
C      1  0.4789410000000  0.5003960000000  0.4506770000000 1.0
C      1  0.4789410000000  0.4996040000000  0.5493230000000 1.0
C      1  0.5210590000000  0.5003960000000  0.5493230000000 1.0
C      1  0.4996040000000  0.5210590000000  0.4506770000000 1.0
C      1  0.5003960000000  0.4789410000000  0.4506770000000 1.0
C      1  0.4996040000000  0.4789410000000  0.5493230000000 1.0
C      1  0.5003960000000  0.5210590000000  0.5493230000000 1.0
C      1  0.5530080000000  0.5240310000000  0.5179960000000 1.0
C      1  0.4469920000000  0.4759690000000  0.5179960000000 1.0
C      1  0.4469920000000  0.5240310000000  0.4820040000000 1.0
C      1  0.5530080000000  0.4759690000000  0.4820040000000 1.0
C      1  0.5240310000000  0.5530080000000  0.5179960000000 1.0
C      1  0.4759690000000  0.4469920000000  0.5179960000000 1.0
C      1  0.5240310000000  0.4469920000000  0.4820040000000 1.0
C      1  0.4759690000000  0.5530080000000  0.4820040000000 1.0
END
