TITL C-2441162-9305-921 0.0744978773753669 125000 -16305.0714765696 0 0 120 (C1) n - 1
REM
REM in /home/bkarasulu/work/CARBON/AIRSS/Generating-Clusters/ReaxFF-fromJPCA2015/Units_Real/with-SteepDescent/Higher-Symm
REM
REM
REM
REM
REM
REM ./C.cell (1df0a924f5614ab8850e4351716899ee)
REM
REM compiler GCC version 9.2.1 20190827 (Red Hat 9.2.1-1)
REM options -cpp -mtune=generic -march=x86-64 -g -O0 -fpre-include=/usr/include/finclude/math-vector-fortran.h
REM seed -1648446677 957287896 -1081596948 1624544487 906372625 -1211714505 1334291830 -1035964374 909904782 885027955 -827149308 218352062 1015296958 -487582888 -125170358 -1548175571 878754867 1434601542 147811215 -500747021 789445186 -1215841896 11528450 1648235396 -945547751 960544607 -1255207697 756292820 -134678987 -954406596 -1695584621 1577937274 1476780114
REM
CELL 1.54180   50.00000   50.00000   50.00000   90.00000   90.00000   90.00000
LATT -1
SFAC C  
C      1  0.5057080000000  0.4489150000000  0.5441480000000 1.0
C      1  0.4567750000000  0.4390500000000  0.5191900000000 1.0
C      1  0.4534100000000  0.4352010000000  0.4920080000000 1.0
C      1  0.4764880000000  0.4468990000000  0.4578540000000 1.0
C      1  0.5212810000000  0.4322150000000  0.4474870000000 1.0
C      1  0.5459850000000  0.4469560000000  0.4858740000000 1.0
C      1  0.5440170000000  0.4363370000000  0.5305870000000 1.0
C      1  0.4148240000000  0.5204800000000  0.5256090000000 1.0
C      1  0.4268300000000  0.5202890000000  0.4485800000000 1.0
C      1  0.4971030000000  0.5171090000000  0.4149940000000 1.0
C      1  0.5638430000000  0.5236240000000  0.4416750000000 1.0
C      1  0.5899910000000  0.5198990000000  0.5134470000000 1.0
C      1  0.5457850000000  0.5207640000000  0.5778620000000 1.0
C      1  0.4664050000000  0.5216830000000  0.5852320000000 1.0
C      1  0.4854930000000  0.4470590000000  0.4295230000000 1.0
C      1  0.5345470000000  0.4576310000000  0.4464440000000 1.0
C      1  0.5736590000000  0.4489720000000  0.4974400000000 1.0
C      1  0.5462150000000  0.4469910000000  0.5574380000000 1.0
C      1  0.4739350000000  0.4472010000000  0.5763000000000 1.0
C      1  0.4366130000000  0.4486030000000  0.5365040000000 1.0
C      1  0.4344060000000  0.4463340000000  0.4708150000000 1.0
C      1  0.5224060000000  0.5283170000000  0.4797850000000 1.0
C      1  0.5324140000000  0.5205720000000  0.5058290000000 1.0
C      1  0.5189360000000  0.5247170000000  0.5296040000000 1.0
C      1  0.4900990000000  0.5191620000000  0.5325590000000 1.0
C      1  0.4718160000000  0.5303520000000  0.5123830000000 1.0
C      1  0.4700080000000  0.5191970000000  0.4858740000000 1.0
C      1  0.4983150000000  0.5177940000000  0.4685900000000 1.0
C      1  0.4837140000000  0.5698610000000  0.4621740000000 1.0
C      1  0.5172390000000  0.5737450000000  0.4618000000000 1.0
C      1  0.5404420000000  0.5722440000000  0.4950400000000 1.0
C      1  0.5347570000000  0.5761090000000  0.5265890000000 1.0
C      1  0.4951540000000  0.5691780000000  0.5377260000000 1.0
C      1  0.4663080000000  0.5759590000000  0.5278610000000 1.0
C      1  0.4606720000000  0.5713080000000  0.4885650000000 1.0
C      1  0.5871160000000  0.4978700000000  0.4711900000000 1.0
C      1  0.5768940000000  0.4962140000000  0.5505520000000 1.0
C      1  0.5078750000000  0.4973390000000  0.5913930000000 1.0
C      1  0.4332490000000  0.4976410000000  0.5632180000000 1.0
C      1  0.4094340000000  0.4977690000000  0.4872380000000 1.0
C      1  0.4538470000000  0.4963490000000  0.4198630000000 1.0
C      1  0.5345270000000  0.4926790000000  0.3994240000000 1.0
C      1  0.5080330000000  0.5495130000000  0.5835490000000 1.0
C      1  0.4346360000000  0.5506630000000  0.5602530000000 1.0
C      1  0.4134400000000  0.5507250000000  0.4867650000000 1.0
C      1  0.4577940000000  0.5490010000000  0.4227330000000 1.0
C      1  0.5325460000000  0.5497600000000  0.4191580000000 1.0
C      1  0.5840120000000  0.5516180000000  0.4741830000000 1.0
C      1  0.5749750000000  0.5497560000000  0.5490430000000 1.0
C      1  0.4470540000000  0.4466100000000  0.5633480000000 1.0
C      1  0.4170190000000  0.4478220000000  0.4914970000000 1.0
C      1  0.4575490000000  0.4468040000000  0.4338400000000 1.0
C      1  0.5292550000000  0.4436280000000  0.4225480000000 1.0
C      1  0.5723190000000  0.4491020000000  0.4695500000000 1.0
C      1  0.5692590000000  0.4454470000000  0.5416540000000 1.0
C      1  0.5029640000000  0.4487550000000  0.5727000000000 1.0
C      1  0.5293210000000  0.5489830000000  0.5438300000000 1.0
C      1  0.4830990000000  0.5449260000000  0.5486660000000 1.0
C      1  0.4540510000000  0.5494560000000  0.5214370000000 1.0
C      1  0.4554230000000  0.5447060000000  0.4776390000000 1.0
C      1  0.4906110000000  0.5414840000000  0.4520200000000 1.0
C      1  0.5325600000000  0.5491340000000  0.4628440000000 1.0
C      1  0.5507190000000  0.5456550000000  0.5034390000000 1.0
C      1  0.4441330000000  0.5223680000000  0.4270350000000 1.0
C      1  0.5253220000000  0.5175510000000  0.4177580000000 1.0
C      1  0.5822070000000  0.5243660000000  0.4614740000000 1.0
C      1  0.5832090000000  0.5221490000000  0.5400510000000 1.0
C      1  0.5203550000000  0.5232280000000  0.5885470000000 1.0
C      1  0.4423420000000  0.5234260000000  0.5712450000000 1.0
C      1  0.4092520000000  0.5236620000000  0.4987580000000 1.0
C      1  0.5349100000000  0.4188760000000  0.4902960000000 1.0
C      1  0.5292380000000  0.4158740000000  0.5177730000000 1.0
C      1  0.5015940000000  0.4228190000000  0.5278690000000 1.0
C      1  0.4724080000000  0.4141790000000  0.5213000000000 1.0
C      1  0.4676930000000  0.4101580000000  0.4926000000000 1.0
C      1  0.4887780000000  0.4205770000000  0.4750290000000 1.0
C      1  0.5169520000000  0.4138350000000  0.4690070000000 1.0
C      1  0.4808120000000  0.4978330000000  0.5873430000000 1.0
C      1  0.4211740000000  0.4960380000000  0.5385990000000 1.0
C      1  0.4214830000000  0.4962200000000  0.4623550000000 1.0
C      1  0.4816220000000  0.4948610000000  0.4150690000000 1.0
C      1  0.5448330000000  0.5037800000000  0.4375390000000 1.0
C      1  0.5888320000000  0.4955940000000  0.4990940000000 1.0
C      1  0.5552930000000  0.4961240000000  0.5685840000000 1.0
C      1  0.5609530000000  0.5715410000000  0.5361100000000 1.0
C      1  0.5135730000000  0.5678460000000  0.5607880000000 1.0
C      1  0.4491400000000  0.5754560000000  0.5525100000000 1.0
C      1  0.4311610000000  0.5745500000000  0.4923420000000 1.0
C      1  0.4644320000000  0.5704820000000  0.4403190000000 1.0
C      1  0.5213460000000  0.5740070000000  0.4319750000000 1.0
C      1  0.5653510000000  0.5746840000000  0.4775900000000 1.0
C      1  0.5553400000000  0.4771150000000  0.4407700000000 1.0
C      1  0.5855400000000  0.4705930000000  0.5107980000000 1.0
C      1  0.5417940000000  0.4714460000000  0.5718160000000 1.0
C      1  0.4679740000000  0.4737880000000  0.5841620000000 1.0
C      1  0.4196050000000  0.4704010000000  0.5282090000000 1.0
C      1  0.4311810000000  0.4714270000000  0.4535910000000 1.0
C      1  0.4949170000000  0.4697960000000  0.4154220000000 1.0
C      1  0.4067930000000  0.4717560000000  0.5020450000000 1.0
C      1  0.4431000000000  0.4711960000000  0.4287990000000 1.0
C      1  0.5216200000000  0.4672820000000  0.4072580000000 1.0
C      1  0.5793470000000  0.4737000000000  0.4562970000000 1.0
C      1  0.5828290000000  0.4706570000000  0.5380350000000 1.0
C      1  0.5177830000000  0.4709480000000  0.5856350000000 1.0
C      1  0.4426340000000  0.4730550000000  0.5744300000000 1.0
C      1  0.5511410000000  0.5436920000000  0.5639890000000 1.0
C      1  0.4805020000000  0.5452590000000  0.5771960000000 1.0
C      1  0.4280290000000  0.5448820000000  0.5325800000000 1.0
C      1  0.4304220000000  0.5444110000000  0.4640860000000 1.0
C      1  0.4865240000000  0.5405370000000  0.4237630000000 1.0
C      1  0.5502060000000  0.5467270000000  0.4410440000000 1.0
C      1  0.5795370000000  0.5444800000000  0.5021870000000 1.0
C      1  0.5272560000000  0.4879780000000  0.5132840000000 1.0
C      1  0.5058460000000  0.4749570000000  0.5301120000000 1.0
C      1  0.4817380000000  0.4891210000000  0.5222320000000 1.0
C      1  0.4703320000000  0.4883220000000  0.4961680000000 1.0
C      1  0.4812920000000  0.4736890000000  0.4735480000000 1.0
C      1  0.5067210000000  0.4865500000000  0.4709280000000 1.0
C      1  0.5274580000000  0.4748950000000  0.4878890000000 1.0
C      1  0.4975690000000  0.4373510000000  0.4991780000000 1.0
END
