TITL C-2441166-8118-445 0.074783985738911 125000 -20513.811280467 0 0 155 (C1) n - 1
REM
REM in /home/bkarasulu/work/CARBON/AIRSS/Generating-Clusters/ReaxFF-fromJPCA2015/Units_Real/with-SteepDescent/Higher-Symm
REM
REM
REM
REM
REM
REM ./C.cell (1df0a924f5614ab8850e4351716899ee)
REM
REM compiler GCC version 9.2.1 20190827 (Red Hat 9.2.1-1)
REM options -cpp -mtune=generic -march=x86-64 -g -O0 -fpre-include=/usr/include/finclude/math-vector-fortran.h
REM seed -1217614731 976730615 884057137 -2135907209 944527910 1907875052 691680166 1526418837 -1078913782 -2141566319 -1761744105 -1517467879 1994596724 -1091917856 1693514760 1798622608 -434950465 1686543911 -110038656 -46470114 1664535525 360018229 502689005 725466285 294672296 320289841 -549817184 -1667823112 -207620857 63179918 645500786 -2072166293 -1984659548
REM
CELL 1.54180   50.00000   50.00000   50.00000   90.00000   90.00000   90.00000
LATT -1
SFAC C  
C      1  0.4390470000000  0.5645110000000  0.5684020000000 1.0
C      1  0.4440500000000  0.5886410000000  0.4978100000000 1.0
C      1  0.4451650000000  0.5518030000000  0.4293420000000 1.0
C      1  0.4449920000000  0.4780560000000  0.4104540000000 1.0
C      1  0.4432630000000  0.4226690000000  0.4630450000000 1.0
C      1  0.4474750000000  0.4230260000000  0.5397260000000 1.0
C      1  0.4448930000000  0.4864360000000  0.5834280000000 1.0
C      1  0.5122570000000  0.4431340000000  0.5413460000000 1.0
C      1  0.5127660000000  0.4982550000000  0.5722810000000 1.0
C      1  0.5092600000000  0.5478870000000  0.5540430000000 1.0
C      1  0.5031080000000  0.5584800000000  0.4930170000000 1.0
C      1  0.5053900000000  0.5280580000000  0.4457520000000 1.0
C      1  0.5052400000000  0.4767590000000  0.4442180000000 1.0
C      1  0.5011700000000  0.4362320000000  0.4785300000000 1.0
C      1  0.4061210000000  0.5377870000000  0.5251180000000 1.0
C      1  0.4150290000000  0.5447840000000  0.4990540000000 1.0
C      1  0.4191020000000  0.5151650000000  0.4641440000000 1.0
C      1  0.4039900000000  0.4863620000000  0.4540420000000 1.0
C      1  0.4201210000000  0.4513040000000  0.4862810000000 1.0
C      1  0.4148000000000  0.4629410000000  0.5260220000000 1.0
C      1  0.4221940000000  0.4996180000000  0.5467260000000 1.0
C      1  0.5453180000000  0.5837390000000  0.5121660000000 1.0
C      1  0.5479860000000  0.5637590000000  0.4411570000000 1.0
C      1  0.5480920000000  0.4954240000000  0.4129480000000 1.0
C      1  0.5474820000000  0.4303420000000  0.4500780000000 1.0
C      1  0.5474220000000  0.4157420000000  0.5223850000000 1.0
C      1  0.5496360000000  0.4616260000000  0.5756480000000 1.0
C      1  0.5438160000000  0.5590920000000  0.5783220000000 1.0
C      1  0.5283470000000  0.4314670000000  0.4250780000000 1.0
C      1  0.5272840000000  0.3993040000000  0.5081870000000 1.0
C      1  0.5297260000000  0.4417410000000  0.5815780000000 1.0
C      1  0.5289630000000  0.5376170000000  0.5914540000000 1.0
C      1  0.5263080000000  0.5913210000000  0.5337670000000 1.0
C      1  0.5269160000000  0.5855340000000  0.4463920000000 1.0
C      1  0.5280600000000  0.5130780000000  0.3992360000000 1.0
C      1  0.4396810000000  0.4736320000000  0.5167290000000 1.0
C      1  0.4408240000000  0.5001190000000  0.5250850000000 1.0
C      1  0.4576710000000  0.5215060000000  0.5116970000000 1.0
C      1  0.4635380000000  0.5319160000000  0.4843920000000 1.0
C      1  0.4494450000000  0.5101720000000  0.4682980000000 1.0
C      1  0.4512500000000  0.4851490000000  0.4781900000000 1.0
C      1  0.4504120000000  0.4597860000000  0.4913710000000 1.0
C      1  0.4134290000000  0.5268520000000  0.5505430000000 1.0
C      1  0.4096980000000  0.5643430000000  0.5180610000000 1.0
C      1  0.4159780000000  0.5431700000000  0.4707190000000 1.0
C      1  0.4117370000000  0.5057480000000  0.4351730000000 1.0
C      1  0.4113920000000  0.4588690000000  0.4593410000000 1.0
C      1  0.4105610000000  0.4381770000000  0.5100350000000 1.0
C      1  0.4123170000000  0.4727760000000  0.5537160000000 1.0
C      1  0.5741620000000  0.4623220000000  0.5576080000000 1.0
C      1  0.5754980000000  0.5143480000000  0.5696160000000 1.0
C      1  0.5675410000000  0.5646660000000  0.5156440000000 1.0
C      1  0.5715480000000  0.5519050000000  0.4556160000000 1.0
C      1  0.5729770000000  0.4998420000000  0.4327300000000 1.0
C      1  0.5723930000000  0.4468180000000  0.4557310000000 1.0
C      1  0.5725410000000  0.4306980000000  0.5116120000000 1.0
C      1  0.5317130000000  0.5386370000000  0.4388130000000 1.0
C      1  0.5324150000000  0.4783960000000  0.4314570000000 1.0
C      1  0.5316300000000  0.4310010000000  0.4749030000000 1.0
C      1  0.5356960000000  0.4333170000000  0.5405910000000 1.0
C      1  0.5371130000000  0.4901470000000  0.5788610000000 1.0
C      1  0.5383240000000  0.5522570000000  0.5498790000000 1.0
C      1  0.5307200000000  0.5688190000000  0.4907120000000 1.0
C      1  0.6049720000000  0.5024410000000  0.4611700000000 1.0
C      1  0.6035620000000  0.4803680000000  0.4802050000000 1.0
C      1  0.6025130000000  0.4755590000000  0.5099360000000 1.0
C      1  0.6012510000000  0.4952720000000  0.5318870000000 1.0
C      1  0.6013580000000  0.5241650000000  0.5269850000000 1.0
C      1  0.6034240000000  0.5385170000000  0.5004420000000 1.0
C      1  0.6047970000000  0.5255480000000  0.4763140000000 1.0
C      1  0.4321410000000  0.5609900000000  0.4546890000000 1.0
C      1  0.4317580000000  0.5048750000000  0.4137180000000 1.0
C      1  0.4294310000000  0.4409880000000  0.4430200000000 1.0
C      1  0.4313580000000  0.4182130000000  0.5156390000000 1.0
C      1  0.4322930000000  0.4621220000000  0.5717680000000 1.0
C      1  0.4301800000000  0.5361600000000  0.5718110000000 1.0
C      1  0.4298780000000  0.5845970000000  0.5237660000000 1.0
C      1  0.4468280000000  0.4503560000000  0.4206580000000 1.0
C      1  0.4449610000000  0.4095660000000  0.4909950000000 1.0
C      1  0.4481160000000  0.4377900000000  0.5647060000000 1.0
C      1  0.4471570000000  0.5161270000000  0.5855510000000 1.0
C      1  0.4455380000000  0.5859670000000  0.5485150000000 1.0
C      1  0.4463980000000  0.5821580000000  0.4687360000000 1.0
C      1  0.4473010000000  0.5296030000000  0.4099700000000 1.0
C      1  0.4736430000000  0.4052480000000  0.4952300000000 1.0
C      1  0.4773580000000  0.4343720000000  0.5667700000000 1.0
C      1  0.4762820000000  0.5201810000000  0.5909530000000 1.0
C      1  0.4762160000000  0.5887300000000  0.5480870000000 1.0
C      1  0.4761580000000  0.5853800000000  0.4689470000000 1.0
C      1  0.4767250000000  0.5310390000000  0.4049190000000 1.0
C      1  0.4765140000000  0.4473470000000  0.4152690000000 1.0
C      1  0.4728000000000  0.4804740000000  0.5774240000000 1.0
C      1  0.4641440000000  0.5532780000000  0.5604160000000 1.0
C      1  0.4678440000000  0.5761190000000  0.5095160000000 1.0
C      1  0.4693370000000  0.5452670000000  0.4416250000000 1.0
C      1  0.4681340000000  0.4877470000000  0.4270170000000 1.0
C      1  0.4677110000000  0.4334050000000  0.4548090000000 1.0
C      1  0.4727340000000  0.4331320000000  0.5264030000000 1.0
C      1  0.4907990000000  0.5342630000000  0.5379040000000 1.0
C      1  0.5005250000000  0.5388050000000  0.5128510000000 1.0
C      1  0.4959920000000  0.5183160000000  0.4709790000000 1.0
C      1  0.4931080000000  0.4907530000000  0.4642530000000 1.0
C      1  0.4985170000000  0.4688180000000  0.4826450000000 1.0
C      1  0.4838120000000  0.4768660000000  0.5058600000000 1.0
C      1  0.4890530000000  0.4817760000000  0.5327020000000 1.0
C      1  0.4856310000000  0.4090280000000  0.5388240000000 1.0
C      1  0.4879530000000  0.4667880000000  0.5974510000000 1.0
C      1  0.4902360000000  0.5594030000000  0.5739180000000 1.0
C      1  0.4850470000000  0.5969800000000  0.5014670000000 1.0
C      1  0.4836410000000  0.5649230000000  0.4262630000000 1.0
C      1  0.4847990000000  0.4846100000000  0.4036070000000 1.0
C      1  0.4930600000000  0.4210020000000  0.4526650000000 1.0
C      1  0.4808510000000  0.5566920000000  0.4759660000000 1.0
C      1  0.4813630000000  0.5217270000000  0.4322880000000 1.0
C      1  0.4793790000000  0.4627820000000  0.4401410000000 1.0
C      1  0.4771140000000  0.4341820000000  0.4955900000000 1.0
C      1  0.4861040000000  0.4511580000000  0.5444890000000 1.0
C      1  0.4872270000000  0.5069210000000  0.5654160000000 1.0
C      1  0.4733240000000  0.5615030000000  0.5348340000000 1.0
C      1  0.5276490000000  0.4729490000000  0.4860620000000 1.0
C      1  0.5317340000000  0.4697470000000  0.5141010000000 1.0
C      1  0.5164000000000  0.4838130000000  0.5332410000000 1.0
C      1  0.5275710000000  0.5090680000000  0.5330010000000 1.0
C      1  0.5200020000000  0.5233380000000  0.5095590000000 1.0
C      1  0.5195990000000  0.5177920000000  0.4847420000000 1.0
C      1  0.5358120000000  0.4978390000000  0.4741190000000 1.0
C      1  0.4964170000000  0.3980190000000  0.5155460000000 1.0
C      1  0.4986270000000  0.4439550000000  0.5861080000000 1.0
C      1  0.4986040000000  0.5393570000000  0.5936830000000 1.0
C      1  0.4970620000000  0.5975320000000  0.5282190000000 1.0
C      1  0.4960460000000  0.5832700000000  0.4430710000000 1.0
C      1  0.4962970000000  0.5091490000000  0.3965700000000 1.0
C      1  0.4983380000000  0.4293940000000  0.4256010000000 1.0
C      1  0.5860030000000  0.4893610000000  0.5565330000000 1.0
C      1  0.5883130000000  0.5346740000000  0.5520800000000 1.0
C      1  0.5808150000000  0.5561380000000  0.4892700000000 1.0
C      1  0.5800520000000  0.5269130000000  0.4439440000000 1.0
C      1  0.5808610000000  0.4748540000000  0.4463090000000 1.0
C      1  0.5755260000000  0.4361690000000  0.4824640000000 1.0
C      1  0.5821310000000  0.4473640000000  0.5336260000000 1.0
C      1  0.5374060000000  0.5881500000000  0.4719380000000 1.0
C      1  0.5394460000000  0.5348100000000  0.4124240000000 1.0
C      1  0.5404590000000  0.4555630000000  0.4182320000000 1.0
C      1  0.5388670000000  0.4059710000000  0.4836340000000 1.0
C      1  0.5411430000000  0.4239850000000  0.5623680000000 1.0
C      1  0.5491610000000  0.5169250000000  0.5848950000000 1.0
C      1  0.5390210000000  0.5808760000000  0.5578040000000 1.0
C      1  0.5608170000000  0.5089400000000  0.4772110000000 1.0
C      1  0.5742030000000  0.4834390000000  0.4794770000000 1.0
C      1  0.5739780000000  0.4697470000000  0.5045320000000 1.0
C      1  0.5560580000000  0.4815050000000  0.5223320000000 1.0
C      1  0.5563140000000  0.5091410000000  0.5313350000000 1.0
C      1  0.5588820000000  0.5366740000000  0.5188890000000 1.0
C      1  0.5608690000000  0.5339020000000  0.4902080000000 1.0
C      1  0.4787680000000  0.5029370000000  0.5098320000000 1.0
END
