TITL C-2441167-4473-1332 0.0844772591088877 125000 -25522.1682239839 0 0 187 (C1) n - 1
REM
REM in /home/bkarasulu/work/CARBON/AIRSS/Generating-Clusters/ReaxFF-fromJPCA2015/Units_Real/with-SteepDescent/Higher-Symm
REM
REM
REM
REM
REM
REM ./C.cell (1df0a924f5614ab8850e4351716899ee)
REM
REM compiler GCC version 9.2.1 20190827 (Red Hat 9.2.1-1)
REM options -cpp -mtune=generic -march=x86-64 -g -O0 -fpre-include=/usr/include/finclude/math-vector-fortran.h
REM seed 478527833 1504277013 -607350303 -2111060405 825976307 -1469353883 -1823602368 -1129026318 349119293 1538739035 500774437 1634298054 -286716283 -326600799 -1191751453 -442744274 1315802490 -1530666688 746971301 1844922907 805408653 364251807 -1348217553 1042794466 -480149367 -27459569 -763356705 726001412 -1328580159 1020765974 -1056316401 -1987930357 2116728957
REM
CELL 1.54180   50.00000   50.00000   50.00000   90.00000   90.00000   90.00000
LATT -1
SFAC C  
C      1  0.5292140000000  0.6071690000000  0.4984450000000 1.0
C      1  0.4699840000000  0.3891310000000  0.5078850000000 1.0
C      1  0.4671730000000  0.6069670000000  0.5040440000000 1.0
C      1  0.5321150000000  0.3918820000000  0.4917390000000 1.0
C      1  0.6109830000000  0.5286150000000  0.5092200000000 1.0
C      1  0.3939500000000  0.4713070000000  0.5035940000000 1.0
C      1  0.6072990000000  0.4760560000000  0.4905090000000 1.0
C      1  0.3906640000000  0.5290320000000  0.4906630000000 1.0
C      1  0.4911850000000  0.4032220000000  0.4556750000000 1.0
C      1  0.5242100000000  0.6094390000000  0.4689910000000 1.0
C      1  0.5026170000000  0.3928090000000  0.5487930000000 1.0
C      1  0.4778690000000  0.6111610000000  0.5310900000000 1.0
C      1  0.4046070000000  0.4878180000000  0.4550980000000 1.0
C      1  0.6044850000000  0.5124680000000  0.4533320000000 1.0
C      1  0.3993110000000  0.5099730000000  0.5459160000000 1.0
C      1  0.6040730000000  0.4900580000000  0.5463310000000 1.0
C      1  0.5131220000000  0.4697980000000  0.3977870000000 1.0
C      1  0.4749380000000  0.5364910000000  0.4049160000000 1.0
C      1  0.4901480000000  0.4715710000000  0.6090740000000 1.0
C      1  0.5236080000000  0.5385210000000  0.5950960000000 1.0
C      1  0.4730750000000  0.5080610000000  0.3983640000000 1.0
C      1  0.5403520000000  0.4757030000000  0.4067450000000 1.0
C      1  0.4651410000000  0.4840340000000  0.5984770000000 1.0
C      1  0.5268260000000  0.5102700000000  0.6045350000000 1.0
C      1  0.5544960000000  0.4965160000000  0.6006160000000 1.0
C      1  0.4464300000000  0.5071030000000  0.6015430000000 1.0
C      1  0.4472270000000  0.4954250000000  0.4039310000000 1.0
C      1  0.5539870000000  0.5008570000000  0.4012510000000 1.0
C      1  0.5041180000000  0.5592840000000  0.5991100000000 1.0
C      1  0.5055080000000  0.4452760000000  0.6029980000000 1.0
C      1  0.4976750000000  0.4437280000000  0.3989940000000 1.0
C      1  0.4966160000000  0.5557790000000  0.4008150000000 1.0
C      1  0.4980710000000  0.4171790000000  0.4117740000000 1.0
C      1  0.5039370000000  0.5913500000000  0.4367670000000 1.0
C      1  0.4965370000000  0.4213370000000  0.5886020000000 1.0
C      1  0.4998860000000  0.5921720000000  0.5604190000000 1.0
C      1  0.4219670000000  0.5073980000000  0.4117320000000 1.0
C      1  0.5784330000000  0.5032150000000  0.4195810000000 1.0
C      1  0.4213460000000  0.5054040000000  0.5858370000000 1.0
C      1  0.5773020000000  0.4996210000000  0.5832990000000 1.0
C      1  0.5297190000000  0.5542400000000  0.4820280000000 1.0
C      1  0.4595120000000  0.4388240000000  0.4767840000000 1.0
C      1  0.4677270000000  0.5501400000000  0.5195510000000 1.0
C      1  0.5249000000000  0.4441610000000  0.5166420000000 1.0
C      1  0.5528850000000  0.5356060000000  0.4803510000000 1.0
C      1  0.4429520000000  0.4621870000000  0.4775140000000 1.0
C      1  0.5484830000000  0.4605370000000  0.5177730000000 1.0
C      1  0.4508520000000  0.5266930000000  0.5196650000000 1.0
C      1  0.5339700000000  0.5195540000000  0.4345540000000 1.0
C      1  0.4394130000000  0.4589400000000  0.4359690000000 1.0
C      1  0.4576890000000  0.5291660000000  0.5642470000000 1.0
C      1  0.5506460000000  0.4672310000000  0.5644620000000 1.0
C      1  0.5247240000000  0.5480780000000  0.4372260000000 1.0
C      1  0.4786920000000  0.4522500000000  0.4395600000000 1.0
C      1  0.5338830000000  0.4438580000000  0.5652040000000 1.0
C      1  0.4752680000000  0.5521420000000  0.5615450000000 1.0
C      1  0.4894460000000  0.5176530000000  0.4454460000000 1.0
C      1  0.4940280000000  0.4740500000000  0.4522490000000 1.0
C      1  0.5050810000000  0.5181270000000  0.5559810000000 1.0
C      1  0.5093780000000  0.4670640000000  0.5609800000000 1.0
C      1  0.5093120000000  0.5037340000000  0.4299370000000 1.0
C      1  0.4763600000000  0.4963580000000  0.4555960000000 1.0
C      1  0.5205130000000  0.4941610000000  0.5569710000000 1.0
C      1  0.4788580000000  0.5095850000000  0.5619470000000 1.0
C      1  0.5026240000000  0.5281900000000  0.5273250000000 1.0
C      1  0.4933250000000  0.4710620000000  0.5372670000000 1.0
C      1  0.4999460000000  0.5276190000000  0.4687210000000 1.0
C      1  0.4992480000000  0.4659160000000  0.4794150000000 1.0
C      1  0.5341420000000  0.5005720000000  0.5312960000000 1.0
C      1  0.4722840000000  0.4899510000000  0.5439720000000 1.0
C      1  0.5167090000000  0.5084230000000  0.4822890000000 1.0
C      1  0.4636500000000  0.5004380000000  0.4792630000000 1.0
C      1  0.4230490000000  0.5602730000000  0.4814260000000 1.0
C      1  0.5797350000000  0.4420740000000  0.4698140000000 1.0
C      1  0.5778300000000  0.5594290000000  0.5227170000000 1.0
C      1  0.4265690000000  0.4499320000000  0.5189170000000 1.0
C      1  0.5586890000000  0.4239480000000  0.4768740000000 1.0
C      1  0.4442160000000  0.5798210000000  0.4817850000000 1.0
C      1  0.5564540000000  0.5785600000000  0.5216250000000 1.0
C      1  0.4462290000000  0.4286190000000  0.5247560000000 1.0
C      1  0.5744180000000  0.4561540000000  0.4428560000000 1.0
C      1  0.4303050000000  0.5541520000000  0.4251140000000 1.0
C      1  0.4298750000000  0.4567660000000  0.5714580000000 1.0
C      1  0.5695780000000  0.5549930000000  0.5716780000000 1.0
C      1  0.4571990000000  0.5685360000000  0.4268890000000 1.0
C      1  0.5469970000000  0.4273220000000  0.4267100000000 1.0
C      1  0.4504590000000  0.4322700000000  0.5567880000000 1.0
C      1  0.5436330000000  0.5681730000000  0.5694530000000 1.0
C      1  0.4813520000000  0.4309690000000  0.4593180000000 1.0
C      1  0.5087750000000  0.5547120000000  0.4621050000000 1.0
C      1  0.4991630000000  0.4453850000000  0.5282690000000 1.0
C      1  0.4908570000000  0.5547040000000  0.5370030000000 1.0
C      1  0.4319560000000  0.4774990000000  0.4569730000000 1.0
C      1  0.5432180000000  0.5088620000000  0.4672460000000 1.0
C      1  0.4481410000000  0.5023440000000  0.5348810000000 1.0
C      1  0.5536790000000  0.4798360000000  0.5386340000000 1.0
C      1  0.4128650000000  0.5140880000000  0.4837910000000 1.0
C      1  0.5837630000000  0.4915950000000  0.4951650000000 1.0
C      1  0.5881020000000  0.5115310000000  0.5149140000000 1.0
C      1  0.4115440000000  0.4916930000000  0.5081600000000 1.0
C      1  0.5127760000000  0.4113710000000  0.4881900000000 1.0
C      1  0.4851410000000  0.5951410000000  0.4837350000000 1.0
C      1  0.5115850000000  0.5890950000000  0.5113820000000 1.0
C      1  0.4865970000000  0.4121110000000  0.5006490000000 1.0
C      1  0.4278840000000  0.5862790000000  0.5302680000000 1.0
C      1  0.5683960000000  0.4188140000000  0.5242670000000 1.0
C      1  0.5717940000000  0.5873750000000  0.4750290000000 1.0
C      1  0.4342090000000  0.4104430000000  0.4806730000000 1.0
C      1  0.5900370000000  0.4383860000000  0.5197910000000 1.0
C      1  0.4096260000000  0.5622930000000  0.5285370000000 1.0
C      1  0.5895500000000  0.5637530000000  0.4761910000000 1.0
C      1  0.4151340000000  0.4298000000000  0.4730670000000 1.0
C      1  0.5071810000000  0.6056930000000  0.5336980000000 1.0
C      1  0.4883640000000  0.3837750000000  0.5288710000000 1.0
C      1  0.4965150000000  0.6074010000000  0.4602190000000 1.0
C      1  0.5132670000000  0.3901990000000  0.4689410000000 1.0
C      1  0.6159980000000  0.5083830000000  0.5294620000000 1.0
C      1  0.3893360000000  0.4939490000000  0.5275420000000 1.0
C      1  0.6146540000000  0.4931610000000  0.4698310000000 1.0
C      1  0.3909610000000  0.5105980000000  0.4671090000000 1.0
C      1  0.4442890000000  0.4040560000000  0.5066400000000 1.0
C      1  0.5563500000000  0.5964360000000  0.4993780000000 1.0
C      1  0.5556730000000  0.4066660000000  0.4997020000000 1.0
C      1  0.4406140000000  0.5967450000000  0.5044700000000 1.0
C      1  0.4076560000000  0.4472090000000  0.4975430000000 1.0
C      1  0.5982800000000  0.5540970000000  0.5030060000000 1.0
C      1  0.4026660000000  0.5533110000000  0.5003270000000 1.0
C      1  0.5959790000000  0.4487460000000  0.4925240000000 1.0
C      1  0.4547630000000  0.5339240000000  0.5941500000000 1.0
C      1  0.5520410000000  0.4686420000000  0.5930740000000 1.0
C      1  0.5436110000000  0.5273690000000  0.4062390000000 1.0
C      1  0.4484780000000  0.4670180000000  0.4090900000000 1.0
C      1  0.5325950000000  0.4464820000000  0.5948890000000 1.0
C      1  0.4760820000000  0.5545610000000  0.5909090000000 1.0
C      1  0.5245960000000  0.5500380000000  0.4082840000000 1.0
C      1  0.4715550000000  0.4493360000000  0.4107770000000 1.0
C      1  0.4564870000000  0.4681140000000  0.5754080000000 1.0
C      1  0.5583080000000  0.5298230000000  0.5574930000000 1.0
C      1  0.5469740000000  0.4665240000000  0.4346300000000 1.0
C      1  0.4416310000000  0.5353900000000  0.4446310000000 1.0
C      1  0.4742600000000  0.4481390000000  0.5649620000000 1.0
C      1  0.5315040000000  0.5414840000000  0.5660330000000 1.0
C      1  0.4674720000000  0.5417680000000  0.4346120000000 1.0
C      1  0.5317650000000  0.4449070000000  0.4436640000000 1.0
C      1  0.4778170000000  0.4564130000000  0.4952300000000 1.0
C      1  0.5267830000000  0.5459980000000  0.5110090000000 1.0
C      1  0.5239350000000  0.4551290000000  0.4878440000000 1.0
C      1  0.4743080000000  0.5486560000000  0.4926440000000 1.0
C      1  0.4572700000000  0.4780190000000  0.4968140000000 1.0
C      1  0.5483090000000  0.5295010000000  0.5090960000000 1.0
C      1  0.4565550000000  0.5262400000000  0.4900000000000 1.0
C      1  0.5468060000000  0.4704430000000  0.4925350000000 1.0
C      1  0.5862030000000  0.5258020000000  0.4378400000000 1.0
C      1  0.4059370000000  0.4997100000000  0.4303930000000 1.0
C      1  0.4113310000000  0.5267070000000  0.5645960000000 1.0
C      1  0.5908030000000  0.4772990000000  0.5635540000000 1.0
C      1  0.5326770000000  0.5912310000000  0.4471630000000 1.0
C      1  0.4759470000000  0.4024180000000  0.4305600000000 1.0
C      1  0.5093100000000  0.4057280000000  0.5691170000000 1.0
C      1  0.4695450000000  0.5936180000000  0.5539640000000 1.0
C      1  0.4849600000000  0.5761890000000  0.4185960000000 1.0
C      1  0.5260240000000  0.4156250000000  0.4165200000000 1.0
C      1  0.5171790000000  0.5780550000000  0.5798950000000 1.0
C      1  0.4719780000000  0.4202300000000  0.5727980000000 1.0
C      1  0.5854660000000  0.4810800000000  0.4357690000000 1.0
C      1  0.4174350000000  0.5328370000000  0.4129480000000 1.0
C      1  0.5794400000000  0.5286200000000  0.5796540000000 1.0
C      1  0.4176020000000  0.4785320000000  0.5785540000000 1.0
C      1  0.4284810000000  0.4316310000000  0.4456760000000 1.0
C      1  0.5732790000000  0.5498910000000  0.4550720000000 1.0
C      1  0.5846490000000  0.4503550000000  0.5478730000000 1.0
C      1  0.4201010000000  0.5518170000000  0.5526830000000 1.0
C      1  0.4496570000000  0.4123300000000  0.4397220000000 1.0
C      1  0.5588850000000  0.5774110000000  0.4506390000000 1.0
C      1  0.4443990000000  0.5795670000000  0.5518710000000 1.0
C      1  0.5621340000000  0.4323890000000  0.5498650000000 1.0
C      1  0.5613330000000  0.4887550000000  0.4790650000000 1.0
C      1  0.4330870000000  0.5350200000000  0.4722720000000 1.0
C      1  0.4360450000000  0.4797040000000  0.5192920000000 1.0
C      1  0.5677380000000  0.5318070000000  0.5272660000000 1.0
C      1  0.4729310000000  0.5710300000000  0.4749010000000 1.0
C      1  0.5330550000000  0.4345930000000  0.4694660000000 1.0
C      1  0.4784700000000  0.4352560000000  0.5144920000000 1.0
C      1  0.5274850000000  0.5705130000000  0.5267550000000 1.0
C      1  0.5050200000000  0.4935670000000  0.6065680000000 1.0
C      1  0.4990560000000  0.4948120000000  0.4039970000000 1.0
C      1  0.5134550000000  0.5059650000000  0.5105740000000 1.0
END
