TITL C-2441163-1170-1223 0.0101770701629732 125000 -17965.3742335903 0 0 120 (C1) n - 1
REM
REM in /home/bkarasulu/work/CARBON/AIRSS/Generating-Clusters/ReaxFF-fromJPCA2015/Units_Real/with-SteepDescent/Higher-Symm
REM
REM
REM
REM
REM
REM ./C.cell (1df0a924f5614ab8850e4351716899ee)
REM
REM compiler GCC version 9.2.1 20190827 (Red Hat 9.2.1-1)
REM options -cpp -mtune=generic -march=x86-64 -g -O0 -fpre-include=/usr/include/finclude/math-vector-fortran.h
REM seed 1004515416 794586994 -248976099 -1631356704 -339143109 -1191627036 939255551 -1128779141 -2065030848 2135980417 1580522118 839846324 1578929434 -345206305 -2106607643 -1165085722 -1722579283 -1417804128 1576540507 -746800953 -670346735 -1041225528 586381231 63833451 1020602419 606171300 -505484074 778008651 -1854800776 -1650731318 -1271641055 2027699365 -636142045
REM
CELL 1.54180   50.00000   50.00000   50.00000   90.00000   90.00000   90.00000
LATT -1
SFAC C  
C      1  0.5242390000000  0.5004030000000  0.4374070000000 1.0
C      1  0.5210190000000  0.5153440000000  0.5632660000000 1.0
C      1  0.5074630000000  0.5234830000000  0.4365280000000 1.0
C      1  0.4970890000000  0.5225920000000  0.5752060000000 1.0
C      1  0.4795180000000  0.5142400000000  0.4362490000000 1.0
C      1  0.4788660000000  0.5021200000000  0.5720470000000 1.0
C      1  0.4798350000000  0.4846650000000  0.4362530000000 1.0
C      1  0.4915210000000  0.4775530000000  0.5620960000000 1.0
C      1  0.5083390000000  0.4765850000000  0.4377680000000 1.0
C      1  0.5205650000000  0.4864190000000  0.5611420000000 1.0
C      1  0.5381550000000  0.5511970000000  0.5998870000000 1.0
C      1  0.4987090000000  0.5601260000000  0.4002140000000 1.0
C      1  0.4662240000000  0.5503910000000  0.5965850000000 1.0
C      1  0.4430870000000  0.5170500000000  0.3997710000000 1.0
C      1  0.4436300000000  0.4828140000000  0.5923640000000 1.0
C      1  0.4649240000000  0.4502850000000  0.3996650000000 1.0
C      1  0.5000170000000  0.4413490000000  0.5990690000000 1.0
C      1  0.5354000000000  0.4533200000000  0.4024330000000 1.0
C      1  0.5568910000000  0.4828430000000  0.5993190000000 1.0
C      1  0.5559030000000  0.5201680000000  0.4004930000000 1.0
C      1  0.4862740000000  0.5164760000000  0.5203370000000 1.0
C      1  0.4747310000000  0.5085080000000  0.4711270000000 1.0
C      1  0.4768210000000  0.4891920000000  0.5188370000000 1.0
C      1  0.4832790000000  0.4785510000000  0.4713010000000 1.0
C      1  0.4990440000000  0.4718670000000  0.5287230000000 1.0
C      1  0.5140780000000  0.4766510000000  0.4704500000000 1.0
C      1  0.5263080000000  0.4906700000000  0.5296090000000 1.0
C      1  0.5252990000000  0.5073060000000  0.4708850000000 1.0
C      1  0.5158230000000  0.5201690000000  0.5299650000000 1.0
C      1  0.5004610000000  0.5263300000000  0.4712730000000 1.0
C      1  0.5470640000000  0.5291310000000  0.5790050000000 1.0
C      1  0.5201000000000  0.5501390000000  0.4221750000000 1.0
C      1  0.4924660000000  0.5467560000000  0.5914610000000 1.0
C      1  0.4585010000000  0.5347070000000  0.4211460000000 1.0
C      1  0.4535490000000  0.5071930000000  0.5867740000000 1.0
C      1  0.4537130000000  0.4711530000000  0.4218200000000 1.0
C      1  0.4784280000000  0.4507200000000  0.5772620000000 1.0
C      1  0.5132820000000  0.4471820000000  0.4204150000000 1.0
C      1  0.5410900000000  0.4656650000000  0.5782240000000 1.0
C      1  0.5526280000000  0.4966630000000  0.4219420000000 1.0
C      1  0.5171620000000  0.4268090000000  0.5061390000000 1.0
C      1  0.5570330000000  0.4522960000000  0.4935570000000 1.0
C      1  0.5753800000000  0.4964600000000  0.5062000000000 1.0
C      1  0.5615030000000  0.5387220000000  0.4943010000000 1.0
C      1  0.5252080000000  0.5694640000000  0.5071090000000 1.0
C      1  0.4821890000000  0.5722030000000  0.4941570000000 1.0
C      1  0.4428250000000  0.5455970000000  0.5049370000000 1.0
C      1  0.4263430000000  0.5062280000000  0.4943140000000 1.0
C      1  0.4346410000000  0.4590270000000  0.5054520000000 1.0
C      1  0.4734270000000  0.4303880000000  0.4941270000000 1.0
C      1  0.4537410000000  0.5663150000000  0.4871330000000 1.0
C      1  0.4208350000000  0.5273760000000  0.5138970000000 1.0
C      1  0.4223280000000  0.4776830000000  0.4866080000000 1.0
C      1  0.4512870000000  0.4354020000000  0.5123950000000 1.0
C      1  0.4986600000000  0.4172330000000  0.4861950000000 1.0
C      1  0.5454340000000  0.4335380000000  0.5124990000000 1.0
C      1  0.5760780000000  0.4743780000000  0.4871100000000 1.0
C      1  0.5784090000000  0.5250490000000  0.5134360000000 1.0
C      1  0.5466540000000  0.5635960000000  0.4878930000000 1.0
C      1  0.4995920000000  0.5817750000000  0.5150840000000 1.0
C      1  0.5008940000000  0.4426660000000  0.5239960000000 1.0
C      1  0.5331630000000  0.4536060000000  0.4770380000000 1.0
C      1  0.5552780000000  0.4837150000000  0.5232190000000 1.0
C      1  0.5521860000000  0.5184080000000  0.4758430000000 1.0
C      1  0.5310640000000  0.5459660000000  0.5233970000000 1.0
C      1  0.4983800000000  0.5555790000000  0.4761460000000 1.0
C      1  0.4681300000000  0.5386600000000  0.5174040000000 1.0
C      1  0.4462920000000  0.5154690000000  0.4755520000000 1.0
C      1  0.4484730000000  0.4802650000000  0.5199020000000 1.0
C      1  0.4671190000000  0.4536100000000  0.4775700000000 1.0
C      1  0.4716130000000  0.5710290000000  0.5529380000000 1.0
C      1  0.4393690000000  0.5444770000000  0.4422700000000 1.0
C      1  0.4221470000000  0.5034470000000  0.5477960000000 1.0
C      1  0.4390200000000  0.4574530000000  0.4422060000000 1.0
C      1  0.4756110000000  0.4303290000000  0.5574620000000 1.0
C      1  0.5227010000000  0.4264800000000  0.4414430000000 1.0
C      1  0.5607000000000  0.4543940000000  0.5580840000000 1.0
C      1  0.5744620000000  0.5001920000000  0.4423300000000 1.0
C      1  0.5618120000000  0.5449750000000  0.5579700000000 1.0
C      1  0.5236620000000  0.5704770000000  0.4426690000000 1.0
C      1  0.4524400000000  0.4343340000000  0.5421810000000 1.0
C      1  0.5002280000000  0.4168920000000  0.4566420000000 1.0
C      1  0.5480060000000  0.4335790000000  0.5423510000000 1.0
C      1  0.5777250000000  0.4758590000000  0.4574540000000 1.0
C      1  0.5787090000000  0.5268720000000  0.5428550000000 1.0
C      1  0.5461810000000  0.5655440000000  0.4583080000000 1.0
C      1  0.4954720000000  0.5826700000000  0.5447600000000 1.0
C      1  0.4515380000000  0.5658350000000  0.4575040000000 1.0
C      1  0.4198870000000  0.5301450000000  0.5440270000000 1.0
C      1  0.4231220000000  0.4750520000000  0.4571490000000 1.0
C      1  0.4334900000000  0.4944670000000  0.4147090000000 1.0
C      1  0.4483180000000  0.4565500000000  0.5846070000000 1.0
C      1  0.4834110000000  0.4343120000000  0.4139910000000 1.0
C      1  0.5248250000000  0.4387590000000  0.5852570000000 1.0
C      1  0.5570830000000  0.4658710000000  0.4145590000000 1.0
C      1  0.5677890000000  0.5056960000000  0.5854950000000 1.0
C      1  0.5507880000000  0.5439580000000  0.4154760000000 1.0
C      1  0.5166970000000  0.5666830000000  0.5886250000000 1.0
C      1  0.4741310000000  0.5620730000000  0.4144700000000 1.0
C      1  0.4438300000000  0.5373820000000  0.5871840000000 1.0
C      1  0.5412130000000  0.5619260000000  0.5463610000000 1.0
C      1  0.4995380000000  0.5754050000000  0.4547010000000 1.0
C      1  0.4579720000000  0.5536280000000  0.5439800000000 1.0
C      1  0.4291270000000  0.5222680000000  0.4548300000000 1.0
C      1  0.4296610000000  0.4775160000000  0.5441930000000 1.0
C      1  0.4556950000000  0.4391690000000  0.4544990000000 1.0
C      1  0.4996470000000  0.4239230000000  0.5457830000000 1.0
C      1  0.5453560000000  0.4384640000000  0.4544540000000 1.0
C      1  0.5735540000000  0.4771800000000  0.5456270000000 1.0
C      1  0.5700510000000  0.5239500000000  0.4553710000000 1.0
C      1  0.4364090000000  0.4520450000000  0.5584070000000 1.0
C      1  0.4763830000000  0.4241350000000  0.4407910000000 1.0
C      1  0.5256290000000  0.4248450000000  0.5589300000000 1.0
C      1  0.5654920000000  0.4552550000000  0.4410040000000 1.0
C      1  0.5806000000000  0.5023370000000  0.5590730000000 1.0
C      1  0.5625490000000  0.5476760000000  0.4424490000000 1.0
C      1  0.5196080000000  0.5757250000000  0.5605910000000 1.0
C      1  0.4737390000000  0.5752030000000  0.4411750000000 1.0
C      1  0.4378820000000  0.5489880000000  0.5606160000000 1.0
C      1  0.4210810000000  0.4991190000000  0.4412880000000 1.0
END
