TITL C-2441166-8118-1279 0.0874124879877309 125000 -18678.1512784689 0 0 141 (C1) n - 1
REM
REM in /home/bkarasulu/work/CARBON/AIRSS/Generating-Clusters/ReaxFF-fromJPCA2015/Units_Real/with-SteepDescent/Higher-Symm
REM
REM
REM
REM
REM
REM ./C.cell (1df0a924f5614ab8850e4351716899ee)
REM
REM compiler GCC version 9.2.1 20190827 (Red Hat 9.2.1-1)
REM options -cpp -mtune=generic -march=x86-64 -g -O0 -fpre-include=/usr/include/finclude/math-vector-fortran.h
REM seed 1109316900 1870285708 -1146762576 1674437648 -1854385848 544910509 1291124721 1509630819 1647222872 1519283772 1934433465 112117235 -1300319969 286879538 -1059346177 747829022 -1116206727 300083205 190865164 534142326 523643270 277034209 -2101549360 -347062614 -848419132 253482115 1714078596 -1749938709 1239628544 17214662 1721319270 1826055274 480258117
REM
CELL 1.54180   50.00000   50.00000   50.00000   90.00000   90.00000   90.00000
LATT -1
SFAC C  
C      1  0.5242050000000  0.5427800000000  0.5802560000000 1.0
C      1  0.4743150000000  0.4508080000000  0.4291560000000 1.0
C      1  0.5487420000000  0.5353770000000  0.5637800000000 1.0
C      1  0.4478340000000  0.4601030000000  0.4401380000000 1.0
C      1  0.5586740000000  0.5274180000000  0.4180470000000 1.0
C      1  0.4490680000000  0.4773280000000  0.5879730000000 1.0
C      1  0.4807410000000  0.5111150000000  0.4556580000000 1.0
C      1  0.5214380000000  0.4975580000000  0.5401640000000 1.0
C      1  0.4950930000000  0.4811320000000  0.5908330000000 1.0
C      1  0.5074430000000  0.5171840000000  0.4101620000000 1.0
C      1  0.4393990000000  0.5296750000000  0.4238410000000 1.0
C      1  0.5517920000000  0.4654740000000  0.5840200000000 1.0
C      1  0.4897000000000  0.4445660000000  0.5257920000000 1.0
C      1  0.5108890000000  0.5601600000000  0.4856960000000 1.0
C      1  0.4597930000000  0.5434210000000  0.5551090000000 1.0
C      1  0.5369700000000  0.4546210000000  0.4479070000000 1.0
C      1  0.4612510000000  0.4165460000000  0.5502960000000 1.0
C      1  0.5375810000000  0.5885280000000  0.4478720000000 1.0
C      1  0.4196700000000  0.4539340000000  0.4877650000000 1.0
C      1  0.5755820000000  0.5443090000000  0.5177810000000 1.0
C      1  0.3981090000000  0.4791090000000  0.5230260000000 1.0
C      1  0.5827090000000  0.5262590000000  0.4783560000000 1.0
C      1  0.5473130000000  0.4990420000000  0.4374320000000 1.0
C      1  0.4530890000000  0.4977800000000  0.5662730000000 1.0
C      1  0.4926300000000  0.5393330000000  0.4919830000000 1.0
C      1  0.5078920000000  0.4531800000000  0.5066190000000 1.0
C      1  0.5065420000000  0.5240800000000  0.5938700000000 1.0
C      1  0.4975190000000  0.4766060000000  0.4072700000000 1.0
C      1  0.5252500000000  0.4709520000000  0.4694190000000 1.0
C      1  0.4777550000000  0.5211240000000  0.5313270000000 1.0
C      1  0.4219590000000  0.4359020000000  0.5114760000000 1.0
C      1  0.5693050000000  0.5623380000000  0.4949740000000 1.0
C      1  0.4358020000000  0.4469920000000  0.4635390000000 1.0
C      1  0.5595730000000  0.5520490000000  0.5414250000000 1.0
C      1  0.5323220000000  0.4061940000000  0.4898750000000 1.0
C      1  0.4724540000000  0.5901560000000  0.5057950000000 1.0
C      1  0.4063640000000  0.5015620000000  0.4776540000000 1.0
C      1  0.5958910000000  0.4982700000000  0.5248290000000 1.0
C      1  0.4778550000000  0.5637920000000  0.5645210000000 1.0
C      1  0.5141620000000  0.4408480000000  0.4337930000000 1.0
C      1  0.5639690000000  0.4880200000000  0.5017160000000 1.0
C      1  0.4286400000000  0.5158320000000  0.5163400000000 1.0
C      1  0.4667130000000  0.4031540000000  0.4737920000000 1.0
C      1  0.5288860000000  0.5941110000000  0.5307270000000 1.0
C      1  0.4544430000000  0.4511900000000  0.5758720000000 1.0
C      1  0.5480920000000  0.5552690000000  0.4244820000000 1.0
C      1  0.5187320000000  0.5611500000000  0.4290070000000 1.0
C      1  0.4786240000000  0.4350190000000  0.5704470000000 1.0
C      1  0.4193630000000  0.5310880000000  0.4443120000000 1.0
C      1  0.5795630000000  0.4607540000000  0.5538110000000 1.0
C      1  0.5890440000000  0.4504720000000  0.5014640000000 1.0
C      1  0.4103290000000  0.5516140000000  0.4955910000000 1.0
C      1  0.5574820000000  0.4493940000000  0.5679570000000 1.0
C      1  0.4548670000000  0.5489500000000  0.4401620000000 1.0
C      1  0.5658410000000  0.4861780000000  0.4572610000000 1.0
C      1  0.4262930000000  0.5177060000000  0.5453710000000 1.0
C      1  0.4766890000000  0.5195370000000  0.5971800000000 1.0
C      1  0.5280830000000  0.4816570000000  0.4015780000000 1.0
C      1  0.4319300000000  0.5467560000000  0.5433690000000 1.0
C      1  0.5665900000000  0.4562450000000  0.4545860000000 1.0
C      1  0.4673870000000  0.4753600000000  0.4816090000000 1.0
C      1  0.5265480000000  0.5195470000000  0.5187760000000 1.0
C      1  0.5452550000000  0.4737370000000  0.4232650000000 1.0
C      1  0.4574550000000  0.5244880000000  0.5767470000000 1.0
C      1  0.4443980000000  0.4207580000000  0.4724070000000 1.0
C      1  0.5535860000000  0.5793340000000  0.5331060000000 1.0
C      1  0.5152120000000  0.5400470000000  0.4494410000000 1.0
C      1  0.4744620000000  0.4611450000000  0.5554030000000 1.0
C      1  0.4895790000000  0.5558280000000  0.4221580000000 1.0
C      1  0.5107450000000  0.4483880000000  0.5702900000000 1.0
C      1  0.5322490000000  0.5992270000000  0.5007880000000 1.0
C      1  0.4806070000000  0.4010600000000  0.5000250000000 1.0
C      1  0.4469750000000  0.4695890000000  0.5268890000000 1.0
C      1  0.5533190000000  0.5286190000000  0.4773480000000 1.0
C      1  0.5600120000000  0.5876570000000  0.5053760000000 1.0
C      1  0.4420130000000  0.4209530000000  0.4998950000000 1.0
C      1  0.5192410000000  0.5141380000000  0.4385480000000 1.0
C      1  0.4811230000000  0.4871120000000  0.5649800000000 1.0
C      1  0.5449600000000  0.5559070000000  0.4775170000000 1.0
C      1  0.4593190000000  0.4448300000000  0.5214000000000 1.0
C      1  0.4753660000000  0.5866800000000  0.4561780000000 1.0
C      1  0.5303170000000  0.4193110000000  0.5357830000000 1.0
C      1  0.5527000000000  0.4866940000000  0.5275300000000 1.0
C      1  0.4580790000000  0.4972990000000  0.4659550000000 1.0
C      1  0.4946400000000  0.4955080000000  0.5263090000000 1.0
C      1  0.4986170000000  0.5133090000000  0.4786270000000 1.0
C      1  0.5007030000000  0.4674410000000  0.4841300000000 1.0
C      1  0.5015120000000  0.5342790000000  0.5178860000000 1.0
C      1  0.5514800000000  0.4577720000000  0.5255050000000 1.0
C      1  0.4466970000000  0.5462100000000  0.4722510000000 1.0
C      1  0.5458000000000  0.4877290000000  0.4808630000000 1.0
C      1  0.4561230000000  0.5133360000000  0.5128560000000 1.0
C      1  0.5049990000000  0.5639070000000  0.5755540000000 1.0
C      1  0.4895250000000  0.4265260000000  0.4383960000000 1.0
C      1  0.5466650000000  0.4931570000000  0.5875800000000 1.0
C      1  0.4541170000000  0.5056430000000  0.4156940000000 1.0
C      1  0.4055310000000  0.4962830000000  0.5452550000000 1.0
C      1  0.5894790000000  0.5070470000000  0.4574050000000 1.0
C      1  0.5553070000000  0.5670620000000  0.4496070000000 1.0
C      1  0.4389560000000  0.4321510000000  0.5393300000000 1.0
C      1  0.4260630000000  0.5033830000000  0.4547440000000 1.0
C      1  0.5776000000000  0.4917220000000  0.5484330000000 1.0
C      1  0.5338040000000  0.4440230000000  0.5103470000000 1.0
C      1  0.4634450000000  0.5496650000000  0.4941780000000 1.0
C      1  0.5185090000000  0.4983060000000  0.5964830000000 1.0
C      1  0.4824620000000  0.5014910000000  0.4062860000000 1.0
C      1  0.4550290000000  0.5675550000000  0.5156950000000 1.0
C      1  0.5466890000000  0.4313390000000  0.4868090000000 1.0
C      1  0.4642750000000  0.5956350000000  0.4801790000000 1.0
C      1  0.5370140000000  0.3956900000000  0.5171850000000 1.0
C      1  0.4873240000000  0.4165030000000  0.4638430000000 1.0
C      1  0.5100280000000  0.5741780000000  0.5306690000000 1.0
C      1  0.5006350000000  0.4198030000000  0.5378910000000 1.0
C      1  0.5027980000000  0.5752680000000  0.4636690000000 1.0
C      1  0.5911990000000  0.5216090000000  0.5088300000000 1.0
C      1  0.4043800000000  0.4779190000000  0.4936300000000 1.0
C      1  0.5780710000000  0.4463750000000  0.5281390000000 1.0
C      1  0.4191570000000  0.5509380000000  0.4674820000000 1.0
C      1  0.4584670000000  0.4854190000000  0.5076100000000 1.0
C      1  0.5338820000000  0.5129390000000  0.4907220000000 1.0
C      1  0.4983540000000  0.4646910000000  0.4306760000000 1.0
C      1  0.5003010000000  0.5567550000000  0.5493530000000 1.0
C      1  0.5727200000000  0.4411270000000  0.4785490000000 1.0
C      1  0.4264040000000  0.5611950000000  0.5188600000000 1.0
C      1  0.5920670000000  0.4798260000000  0.5020430000000 1.0
C      1  0.4068860000000  0.5228670000000  0.4975960000000 1.0
C      1  0.5605540000000  0.5096370000000  0.5680010000000 1.0
C      1  0.4383670000000  0.4860610000000  0.4311670000000 1.0
C      1  0.4685220000000  0.5734810000000  0.4309250000000 1.0
C      1  0.5349920000000  0.4325410000000  0.5646700000000 1.0
C      1  0.4205780000000  0.4718050000000  0.5400670000000 1.0
C      1  0.5799620000000  0.5230470000000  0.4368800000000 1.0
C      1  0.4703610000000  0.4914220000000  0.6038890000000 1.0
C      1  0.5338170000000  0.5101970000000  0.4004030000000 1.0
C      1  0.5033300000000  0.4132400000000  0.4867710000000 1.0
C      1  0.5019940000000  0.5798090000000  0.5049760000000 1.0
C      1  0.5198930000000  0.4704310000000  0.5555920000000 1.0
C      1  0.4785290000000  0.5338350000000  0.4377690000000 1.0
C      1  0.5226940000000  0.5962100000000  0.4709140000000 1.0
C      1  0.4787480000000  0.4026620000000  0.5298090000000 1.0
C      1  0.4987370000000  0.4929830000000  0.4982490000000 1.0
END
