TITL C-2441159-1093-1045 0.00194447071801311 125000 -3863.19759849581 0 0 30 (C1) n - 1
REM
REM in /home/bkarasulu/work/CARBON/AIRSS/Generating-Clusters/ReaxFF-fromJPCA2015/Units_Real/with-SteepDescent/Higher-Symm
REM
REM
REM
REM
REM
REM ./C.cell (1df0a924f5614ab8850e4351716899ee)
REM
REM compiler GCC version 9.2.1 20190827 (Red Hat 9.2.1-1)
REM options -cpp -mtune=generic -march=x86-64 -g -O0 -fpre-include=/usr/include/finclude/math-vector-fortran.h
REM seed 931112691 1672151346 -1166009422 -1375541595 -746453686 -140575706 -1067013335 783880067 -274877578 1565853752 771946279 617101625 432392200 -388061880 542181935 -1198128180 -664395189 1487565463 -789671157 1282981077 -1980793346 -938830493 -2069867802 459017995 604747156 -2121224541 1006680501 134051827 2072285509 -1478308186 1305341705 -1248480665 -1735769236
REM
CELL 1.54180   50.00000   50.00000   50.00000   90.00000   90.00000   90.00000
LATT -1
SFAC C  
C      1  0.5278040000000  0.4551650000000  0.4893520000000 1.0
C      1  0.4426470000000  0.5007230000000  0.4924900000000 1.0
C      1  0.5261050000000  0.5477920000000  0.4906120000000 1.0
C      1  0.5617760000000  0.5091340000000  0.4782210000000 1.0
C      1  0.4763040000000  0.4447310000000  0.4767130000000 1.0
C      1  0.4631990000000  0.5480820000000  0.4777070000000 1.0
C      1  0.4841100000000  0.5125540000000  0.4598280000000 1.0
C      1  0.5244000000000  0.5029780000000  0.4583210000000 1.0
C      1  0.4921400000000  0.4797980000000  0.4525680000000 1.0
C      1  0.4967630000000  0.5265630000000  0.5420320000000 1.0
C      1  0.5247540000000  0.4894690000000  0.5418180000000 1.0
C      1  0.4784560000000  0.4840050000000  0.5417970000000 1.0
C      1  0.4459640000000  0.4956580000000  0.5198510000000 1.0
C      1  0.5218590000000  0.5480160000000  0.5179040000000 1.0
C      1  0.5305980000000  0.4573060000000  0.5172640000000 1.0
C      1  0.4691460000000  0.4645760000000  0.4473760000000 1.0
C      1  0.4891570000000  0.5384630000000  0.4526490000000 1.0
C      1  0.5448770000000  0.4887530000000  0.4504080000000 1.0
C      1  0.5189520000000  0.5431800000000  0.5449200000000 1.0
C      1  0.5278890000000  0.4617600000000  0.5443170000000 1.0
C      1  0.4530650000000  0.4945490000000  0.5464440000000 1.0
C      1  0.5029110000000  0.4733810000000  0.5524270000000 1.0
C      1  0.4757580000000  0.5107050000000  0.5533570000000 1.0
C      1  0.5216480000000  0.5157280000000  0.5528280000000 1.0
C      1  0.5813270000000  0.5082320000000  0.4939530000000 1.0
C      1  0.4658420000000  0.4280710000000  0.4928990000000 1.0
C      1  0.4558430000000  0.5673880000000  0.4920510000000 1.0
C      1  0.5373740000000  0.5234840000000  0.4730850000000 1.0
C      1  0.5010710000000  0.4597410000000  0.4734820000000 1.0
C      1  0.4582580000000  0.5200170000000  0.4733290000000 1.0
END
