TITL C-2441168-9922-1161 0.0395574220865081 125000 -10139.6883638399 0 0 81 (C1) n - 1
REM
REM in /home/bkarasulu/work/CARBON/AIRSS/Generating-Clusters/ReaxFF-fromJPCA2015/Units_Real/with-SteepDescent/Higher-Symm
REM
REM
REM
REM
REM
REM ./C.cell (1df0a924f5614ab8850e4351716899ee)
REM
REM compiler GCC version 9.2.1 20190827 (Red Hat 9.2.1-1)
REM options -cpp -mtune=generic -march=x86-64 -g -O0 -fpre-include=/usr/include/finclude/math-vector-fortran.h
REM seed 670820431 717339295 -1507718463 55315787 -315244271 -369910350 743833793 1229622875 261202838 -104014538 839240334 -68019081 1879161910 -762832213 1061393887 -42320730 -494283605 1012080480 -1781554512 -1620799911 -1141356426 367376212 325101270 -257078103 235062685 1847060914 1170922319 1103520455 -675595063 -1111931156 1665759270 650441717 7967431
REM
CELL 1.54180   50.00000   50.00000   50.00000   90.00000   90.00000   90.00000
LATT -1
SFAC C  
C      1  0.5076180000000  0.4808770000000  0.5301620000000 1.0
C      1  0.5205220000000  0.5017080000000  0.5317710000000 1.0
C      1  0.5039300000000  0.5215350000000  0.5355680000000 1.0
C      1  0.4779270000000  0.5139240000000  0.5345060000000 1.0
C      1  0.4810460000000  0.4847960000000  0.5370400000000 1.0
C      1  0.4953300000000  0.5250140000000  0.5705760000000 1.0
C      1  0.4718140000000  0.5044310000000  0.5721930000000 1.0
C      1  0.4867450000000  0.4776290000000  0.5704750000000 1.0
C      1  0.5171800000000  0.4820900000000  0.5715270000000 1.0
C      1  0.5222650000000  0.5107970000000  0.5718070000000 1.0
C      1  0.4847450000000  0.4342110000000  0.4597680000000 1.0
C      1  0.5580360000000  0.4648800000000  0.4597100000000 1.0
C      1  0.5509400000000  0.5446010000000  0.4605090000000 1.0
C      1  0.4730100000000  0.5626310000000  0.4598090000000 1.0
C      1  0.4325150000000  0.4938810000000  0.4623090000000 1.0
C      1  0.4557390000000  0.4421920000000  0.5130200000000 1.0
C      1  0.5404040000000  0.4370960000000  0.5138920000000 1.0
C      1  0.5731420000000  0.5182080000000  0.5125130000000 1.0
C      1  0.5057210000000  0.5759820000000  0.5125760000000 1.0
C      1  0.4316130000000  0.5272560000000  0.5138740000000 1.0
C      1  0.4924230000000  0.4262950000000  0.4863580000000 1.0
C      1  0.5679410000000  0.4699530000000  0.4863290000000 1.0
C      1  0.5495130000000  0.5558480000000  0.4870800000000 1.0
C      1  0.4620950000000  0.5661420000000  0.4861330000000 1.0
C      1  0.4278060000000  0.4855230000000  0.4894520000000 1.0
C      1  0.4532010000000  0.5345580000000  0.5495940000000 1.0
C      1  0.4495590000000  0.4592940000000  0.5487250000000 1.0
C      1  0.5214700000000  0.4417740000000  0.5498250000000 1.0
C      1  0.5660810000000  0.5052180000000  0.5518740000000 1.0
C      1  0.5166680000000  0.5585910000000  0.5483510000000 1.0
C      1  0.4396610000000  0.4997670000000  0.5259750000000 1.0
C      1  0.4817290000000  0.4404130000000  0.5296160000000 1.0
C      1  0.5466720000000  0.4652070000000  0.5264460000000 1.0
C      1  0.5475690000000  0.5338700000000  0.5261060000000 1.0
C      1  0.4815720000000  0.5570460000000  0.5257320000000 1.0
C      1  0.4769660000000  0.4748370000000  0.5095790000000 1.0
C      1  0.5184500000000  0.4689310000000  0.5131220000000 1.0
C      1  0.5349700000000  0.5100140000000  0.5129610000000 1.0
C      1  0.5012210000000  0.5373770000000  0.5138200000000 1.0
C      1  0.4684400000000  0.5128490000000  0.5087280000000 1.0
C      1  0.5450380000000  0.4938690000000  0.4904170000000 1.0
C      1  0.5190470000000  0.5414690000000  0.4905400000000 1.0
C      1  0.4672290000000  0.5334310000000  0.4883830000000 1.0
C      1  0.4562080000000  0.4783510000000  0.4892200000000 1.0
C      1  0.5083390000000  0.4550320000000  0.4897780000000 1.0
C      1  0.4599850000000  0.4493680000000  0.4578350000000 1.0
C      1  0.5358860000000  0.4462580000000  0.4571830000000 1.0
C      1  0.5619720000000  0.5178340000000  0.4561390000000 1.0
C      1  0.5019620000000  0.5652310000000  0.4572340000000 1.0
C      1  0.4388510000000  0.5218230000000  0.4582130000000 1.0
C      1  0.5358020000000  0.4646770000000  0.5563540000000 1.0
C      1  0.5435460000000  0.5253600000000  0.5560960000000 1.0
C      1  0.4904960000000  0.5520320000000  0.5558630000000 1.0
C      1  0.4473180000000  0.5069860000000  0.5554010000000 1.0
C      1  0.4755690000000  0.4510810000000  0.5560670000000 1.0
C      1  0.5024550000000  0.4744550000000  0.4670700000000 1.0
C      1  0.5247130000000  0.4948940000000  0.4675660000000 1.0
C      1  0.5119530000000  0.5227590000000  0.4675090000000 1.0
C      1  0.4820270000000  0.5199340000000  0.4667020000000 1.0
C      1  0.4765590000000  0.4902270000000  0.4650610000000 1.0
C      1  0.4565480000000  0.4780340000000  0.4461350000000 1.0
C      1  0.5076970000000  0.4526460000000  0.4456340000000 1.0
C      1  0.5471920000000  0.4930870000000  0.4452070000000 1.0
C      1  0.5208260000000  0.5435470000000  0.4456720000000 1.0
C      1  0.4650480000000  0.5338780000000  0.4458550000000 1.0
C      1  0.5021530000000  0.4759810000000  0.4256980000000 1.0
C      1  0.5237060000000  0.4954420000000  0.4254910000000 1.0
C      1  0.5115750000000  0.5217970000000  0.4258370000000 1.0
C      1  0.4828060000000  0.5181130000000  0.4257760000000 1.0
C      1  0.4769160000000  0.4898850000000  0.4247680000000 1.0
C      1  0.5685020000000  0.5132600000000  0.4838730000000 1.0
C      1  0.5092400000000  0.5695740000000  0.4845410000000 1.0
C      1  0.4376940000000  0.5313440000000  0.4850610000000 1.0
C      1  0.4518200000000  0.4489250000000  0.4850510000000 1.0
C      1  0.5348360000000  0.4390330000000  0.4851150000000 1.0
C      1  0.5687070000000  0.4918420000000  0.5251750000000 1.0
C      1  0.5304200000000  0.5639350000000  0.5244070000000 1.0
C      1  0.4484660000000  0.5484650000000  0.5249820000000 1.0
C      1  0.4383600000000  0.4670590000000  0.5237280000000 1.0
C      1  0.5128390000000  0.4304940000000  0.5257330000000 1.0
C      1  0.4928290000000  0.4986350000000  0.5004680000000 1.0
END
