TITL C-2441154-10-691 0.0190976582219026 125000 -9994.40461353215 0 0 77 (C1) n - 1
REM
REM in /home/bkarasulu/work/CARBON/AIRSS/Generating-Clusters/ReaxFF-fromJPCA2015/Units_Real/with-SteepDescent/Higher-Symm
REM
REM
REM
REM
REM
REM ./C.cell (1df0a924f5614ab8850e4351716899ee)
REM
REM compiler GCC version 9.2.1 20190827 (Red Hat 9.2.1-1)
REM options -cpp -mtune=generic -march=x86-64 -g -O0 -fpre-include=/usr/include/finclude/math-vector-fortran.h
REM seed -1659659480 949178267 2084540199 817649561 -1387530207 1940983639 1575420072 -840928954 1439084627 -764228797 -750128829 -1517773732 715458756 821395448 -443022958 673628258 -1969279474 -1826879368 -408737836 -15765291 836576454 328321274 1678015954 -1600789100 1201658365 -530282954 258192128 -1230809013 1330648223 314425711 179624423 -930955938 -1571672133
REM
CELL 1.54180   50.00000   50.00000   50.00000   90.00000   90.00000   90.00000
LATT -1
SFAC C  
C      1  0.5837510000000  0.4846670000000  0.5033300000000 1.0
C      1  0.5822340000000  0.5117740000000  0.5140520000000 1.0
C      1  0.5833920000000  0.5076890000000  0.4853960000000 1.0
C      1  0.4209270000000  0.4810000000000  0.5025620000000 1.0
C      1  0.4187030000000  0.5079670000000  0.5117340000000 1.0
C      1  0.4204660000000  0.5050630000000  0.4827620000000 1.0
C      1  0.4846190000000  0.4973840000000  0.4316420000000 1.0
C      1  0.4842170000000  0.4409280000000  0.5373870000000 1.0
C      1  0.4841260000000  0.5624820000000  0.5339920000000 1.0
C      1  0.5190440000000  0.4977420000000  0.4305520000000 1.0
C      1  0.5182140000000  0.4406270000000  0.5371630000000 1.0
C      1  0.5189130000000  0.5619060000000  0.5326230000000 1.0
C      1  0.4363610000000  0.5309730000000  0.5330430000000 1.0
C      1  0.4365540000000  0.5151000000000  0.4585320000000 1.0
C      1  0.4356860000000  0.4548280000000  0.5082500000000 1.0
C      1  0.5670600000000  0.5292750000000  0.5351580000000 1.0
C      1  0.5680570000000  0.5165690000000  0.4563120000000 1.0
C      1  0.5709610000000  0.4533250000000  0.5093630000000 1.0
C      1  0.4581820000000  0.4991470000000  0.4458570000000 1.0
C      1  0.4585540000000  0.4503940000000  0.5261610000000 1.0
C      1  0.4592810000000  0.5495480000000  0.5297130000000 1.0
C      1  0.5455220000000  0.5005870000000  0.4451580000000 1.0
C      1  0.5440130000000  0.4513350000000  0.5268100000000 1.0
C      1  0.5444910000000  0.5466420000000  0.5293030000000 1.0
C      1  0.4776180000000  0.4534220000000  0.4511700000000 1.0
C      1  0.4784300000000  0.4813040000000  0.5643610000000 1.0
C      1  0.4783210000000  0.5628640000000  0.4882200000000 1.0
C      1  0.5226310000000  0.4584760000000  0.4528690000000 1.0
C      1  0.5250470000000  0.4802000000000  0.5647920000000 1.0
C      1  0.5240180000000  0.5645900000000  0.4839800000000 1.0
C      1  0.4888890000000  0.4640290000000  0.4984790000000 1.0
C      1  0.4884830000000  0.5198340000000  0.5277150000000 1.0
C      1  0.4860530000000  0.5212110000000  0.4723080000000 1.0
C      1  0.5159630000000  0.4686110000000  0.4972730000000 1.0
C      1  0.5161160000000  0.5162580000000  0.5331250000000 1.0
C      1  0.5134770000000  0.5140130000000  0.4688950000000 1.0
C      1  0.4492080000000  0.5412450000000  0.4595870000000 1.0
C      1  0.4491700000000  0.4442330000000  0.4851050000000 1.0
C      1  0.4500660000000  0.5166230000000  0.5553020000000 1.0
C      1  0.5529250000000  0.5413580000000  0.4574840000000 1.0
C      1  0.5524320000000  0.4423020000000  0.4861220000000 1.0
C      1  0.5538710000000  0.5162940000000  0.5574180000000 1.0
C      1  0.4892870000000  0.5355990000000  0.4967420000000 1.0
C      1  0.4857960000000  0.4753510000000  0.4729480000000 1.0
C      1  0.4869930000000  0.4872470000000  0.5355530000000 1.0
C      1  0.5171340000000  0.5366700000000  0.4935300000000 1.0
C      1  0.5119430000000  0.4806560000000  0.4706060000000 1.0
C      1  0.5148920000000  0.4881660000000  0.5371280000000 1.0
C      1  0.5166230000000  0.5795850000000  0.5105970000000 1.0
C      1  0.5161480000000  0.4698130000000  0.4253000000000 1.0
C      1  0.5159950000000  0.4509020000000  0.5639350000000 1.0
C      1  0.4872160000000  0.5801580000000  0.5114800000000 1.0
C      1  0.4864740000000  0.4694390000000  0.4262170000000 1.0
C      1  0.4866980000000  0.4510440000000  0.5638810000000 1.0
C      1  0.5506630000000  0.4859030000000  0.4738220000000 1.0
C      1  0.5465990000000  0.4821800000000  0.5248020000000 1.0
C      1  0.5433100000000  0.5297140000000  0.5023910000000 1.0
C      1  0.4607640000000  0.4887000000000  0.4751900000000 1.0
C      1  0.4599040000000  0.4834430000000  0.5247630000000 1.0
C      1  0.4507170000000  0.5310900000000  0.5055570000000 1.0
C      1  0.4517500000000  0.4882370000000  0.5542330000000 1.0
C      1  0.4514360000000  0.5530360000000  0.4854790000000 1.0
C      1  0.4516680000000  0.4619240000000  0.4620470000000 1.0
C      1  0.5508180000000  0.4877410000000  0.5537650000000 1.0
C      1  0.5511760000000  0.5530370000000  0.4838820000000 1.0
C      1  0.5501540000000  0.4591410000000  0.4628340000000 1.0
C      1  0.4787840000000  0.5237340000000  0.5570720000000 1.0
C      1  0.4783420000000  0.5405920000000  0.4517720000000 1.0
C      1  0.4787410000000  0.4377310000000  0.4916560000000 1.0
C      1  0.5240010000000  0.5230660000000  0.5602200000000 1.0
C      1  0.5234780000000  0.5373780000000  0.4502220000000 1.0
C      1  0.5231530000000  0.4394740000000  0.4900730000000 1.0
C      1  0.5005690000000  0.4344770000000  0.4718510000000 1.0
C      1  0.5027830000000  0.5567010000000  0.4569220000000 1.0
C      1  0.5001080000000  0.5101160000000  0.5711600000000 1.0
C      1  0.5427270000000  0.4974140000000  0.4991920000000 1.0
C      1  0.4578520000000  0.5017130000000  0.5015970000000 1.0
END
