TITL C-2441157-2117-1133 0.132378704722886 125000 -16115.033791294 0 0 135 (C1) n - 1
REM
REM in /home/bkarasulu/work/CARBON/AIRSS/Generating-Clusters/ReaxFF-fromJPCA2015/Units_Real/with-SteepDescent/Higher-Symm
REM
REM
REM
REM
REM
REM ./C.cell (1df0a924f5614ab8850e4351716899ee)
REM
REM compiler GCC version 9.2.1 20190827 (Red Hat 9.2.1-1)
REM options -cpp -mtune=generic -march=x86-64 -g -O0 -fpre-include=/usr/include/finclude/math-vector-fortran.h
REM seed 383176700 -2079719813 2057413139 -245872734 -851183199 1232590482 -267560017 618900926 1919520391 799960316 -545353524 816382227 964704043 -1049440762 -365233878 -187244612 -1055882384 -1681299949 -796741765 1216221819 947017539 -380934868 -1349883456 224750615 117793543 1481114262 -1426425811 -1061758368 -1315842917 1251491144 -1744213194 1137797407 -711418995
REM
CELL 1.54180   50.00000   50.00000   50.00000   90.00000   90.00000   90.00000
LATT -1
SFAC C  
C      1  0.4744500000000  0.4994610000000  0.4128950000000 1.0
C      1  0.4934430000000  0.4762020000000  0.4122610000000 1.0
C      1  0.5208390000000  0.4864580000000  0.4119890000000 1.0
C      1  0.5193520000000  0.5166750000000  0.4118890000000 1.0
C      1  0.4907830000000  0.5241180000000  0.4125330000000 1.0
C      1  0.4021680000000  0.4842920000000  0.4809220000000 1.0
C      1  0.4864080000000  0.4089930000000  0.4853740000000 1.0
C      1  0.5858680000000  0.4529680000000  0.4791850000000 1.0
C      1  0.5678560000000  0.5683100000000  0.4857040000000 1.0
C      1  0.4560750000000  0.5843700000000  0.4867160000000 1.0
C      1  0.5829070000000  0.5366470000000  0.5206770000000 1.0
C      1  0.4919530000000  0.5932880000000  0.5172530000000 1.0
C      1  0.4092650000000  0.5168950000000  0.5178560000000 1.0
C      1  0.4489580000000  0.4181040000000  0.5140530000000 1.0
C      1  0.5596700000000  0.4336320000000  0.5218720000000 1.0
C      1  0.4284210000000  0.5581370000000  0.5067030000000 1.0
C      1  0.4182900000000  0.4521150000000  0.5039930000000 1.0
C      1  0.5284980000000  0.4109660000000  0.4997210000000 1.0
C      1  0.5930650000000  0.5008920000000  0.4995990000000 1.0
C      1  0.5330820000000  0.5868980000000  0.5009560000000 1.0
C      1  0.4233190000000  0.4804050000000  0.5545680000000 1.0
C      1  0.4904060000000  0.4149870000000  0.5484400000000 1.0
C      1  0.5776210000000  0.4703130000000  0.5576620000000 1.0
C      1  0.5493820000000  0.5695610000000  0.5397450000000 1.0
C      1  0.4626050000000  0.5719800000000  0.5411830000000 1.0
C      1  0.4380690000000  0.5479620000000  0.4565560000000 1.0
C      1  0.4318300000000  0.4513190000000  0.4483150000000 1.0
C      1  0.5253080000000  0.4203940000000  0.4494120000000 1.0
C      1  0.5774790000000  0.4959740000000  0.4582800000000 1.0
C      1  0.5284110000000  0.5795530000000  0.4499520000000 1.0
C      1  0.5026740000000  0.5219690000000  0.4764970000000 1.0
C      1  0.4803740000000  0.5105900000000  0.4838700000000 1.0
C      1  0.4859740000000  0.4834330000000  0.4902670000000 1.0
C      1  0.5127190000000  0.4764190000000  0.4800220000000 1.0
C      1  0.5211100000000  0.5032490000000  0.4795030000000 1.0
C      1  0.5228350000000  0.5092710000000  0.5042340000000 1.0
C      1  0.5070170000000  0.5297750000000  0.5122600000000 1.0
C      1  0.4672900000000  0.5092490000000  0.5220060000000 1.0
C      1  0.4916450000000  0.4744120000000  0.5163120000000 1.0
C      1  0.5198870000000  0.4854370000000  0.5173730000000 1.0
C      1  0.4920250000000  0.5729770000000  0.5391600000000 1.0
C      1  0.4271040000000  0.5065990000000  0.5403790000000 1.0
C      1  0.4718870000000  0.4287650000000  0.5296240000000 1.0
C      1  0.5603010000000  0.4515390000000  0.5443130000000 1.0
C      1  0.5618250000000  0.5435740000000  0.5416690000000 1.0
C      1  0.4217900000000  0.5247040000000  0.4638850000000 1.0
C      1  0.4523020000000  0.4369390000000  0.4641210000000 1.0
C      1  0.5421070000000  0.4355030000000  0.4684070000000 1.0
C      1  0.5778600000000  0.5249300000000  0.4667450000000 1.0
C      1  0.5017330000000  0.5776130000000  0.4661690000000 1.0
C      1  0.4476830000000  0.4635990000000  0.4984820000000 1.0
C      1  0.5192930000000  0.4412160000000  0.5018230000000 1.0
C      1  0.5614150000000  0.5016310000000  0.5013880000000 1.0
C      1  0.5162410000000  0.5631460000000  0.4892240000000 1.0
C      1  0.4450990000000  0.5367590000000  0.4946130000000 1.0
C      1  0.4143430000000  0.5436370000000  0.5284250000000 1.0
C      1  0.4263570000000  0.4335230000000  0.5249320000000 1.0
C      1  0.5415700000000  0.4107250000000  0.5259970000000 1.0
C      1  0.5989740000000  0.5131520000000  0.5254170000000 1.0
C      1  0.5201180000000  0.5998360000000  0.5243100000000 1.0
C      1  0.4869130000000  0.5484840000000  0.5034900000000 1.0
C      1  0.4474070000000  0.5090660000000  0.5023120000000 1.0
C      1  0.4793110000000  0.4482830000000  0.5087180000000 1.0
C      1  0.5357810000000  0.4657530000000  0.5011030000000 1.0
C      1  0.5443890000000  0.5279510000000  0.5047610000000 1.0
C      1  0.4775390000000  0.4511600000000  0.4567000000000 1.0
C      1  0.5398840000000  0.4637310000000  0.4559230000000 1.0
C      1  0.5495900000000  0.5300290000000  0.4584800000000 1.0
C      1  0.4884220000000  0.5520760000000  0.4537630000000 1.0
C      1  0.4436970000000  0.5046800000000  0.4561790000000 1.0
C      1  0.5365080000000  0.5428380000000  0.4819400000000 1.0
C      1  0.4621880000000  0.5449620000000  0.4743660000000 1.0
C      1  0.4448030000000  0.4877730000000  0.4825190000000 1.0
C      1  0.4938290000000  0.4390380000000  0.4856960000000 1.0
C      1  0.5568620000000  0.4838430000000  0.4740920000000 1.0
C      1  0.5579820000000  0.5786460000000  0.5116060000000 1.0
C      1  0.4484250000000  0.5779450000000  0.5144740000000 1.0
C      1  0.4069720000000  0.4777770000000  0.5070930000000 1.0
C      1  0.5030670000000  0.4046910000000  0.5115040000000 1.0
C      1  0.5961970000000  0.4709450000000  0.5000970000000 1.0
C      1  0.4820340000000  0.4357000000000  0.5693920000000 1.0
C      1  0.5563890000000  0.4824520000000  0.5733110000000 1.0
C      1  0.5471150000000  0.5441020000000  0.5728510000000 1.0
C      1  0.4551080000000  0.5519810000000  0.5621400000000 1.0
C      1  0.4459180000000  0.4833400000000  0.5728030000000 1.0
C      1  0.4513840000000  0.5108660000000  0.5745960000000 1.0
C      1  0.4700500000000  0.4600820000000  0.5787740000000 1.0
C      1  0.5335560000000  0.4649710000000  0.5725320000000 1.0
C      1  0.5481710000000  0.5163560000000  0.5777210000000 1.0
C      1  0.4828030000000  0.5449900000000  0.5738990000000 1.0
C      1  0.5699650000000  0.4668360000000  0.4297300000000 1.0
C      1  0.5436390000000  0.5620750000000  0.4314630000000 1.0
C      1  0.4611870000000  0.5714430000000  0.4312920000000 1.0
C      1  0.4281100000000  0.4766300000000  0.4299000000000 1.0
C      1  0.4995830000000  0.4250300000000  0.4307090000000 1.0
C      1  0.5263060000000  0.5072000000000  0.4502850000000 1.0
C      1  0.4995620000000  0.5259000000000  0.4514640000000 1.0
C      1  0.4751030000000  0.5072740000000  0.4556080000000 1.0
C      1  0.4846630000000  0.4797130000000  0.4513900000000 1.0
C      1  0.5142670000000  0.4781570000000  0.4521920000000 1.0
C      1  0.4563630000000  0.4173740000000  0.4857610000000 1.0
C      1  0.5633750000000  0.4369930000000  0.4894140000000 1.0
C      1  0.5812920000000  0.5424500000000  0.4905750000000 1.0
C      1  0.4833180000000  0.5910750000000  0.4885630000000 1.0
C      1  0.4072690000000  0.5130380000000  0.4867240000000 1.0
C      1  0.5269130000000  0.4916560000000  0.5435830000000 1.0
C      1  0.5153060000000  0.5194900000000  0.5500200000000 1.0
C      1  0.4880750000000  0.5291560000000  0.5508090000000 1.0
C      1  0.4752190000000  0.4863550000000  0.5378810000000 1.0
C      1  0.5090330000000  0.4694720000000  0.5508440000000 1.0
C      1  0.4871860000000  0.4796450000000  0.5903320000000 1.0
C      1  0.5162310000000  0.4807570000000  0.5896580000000 1.0
C      1  0.5220600000000  0.5099850000000  0.5892910000000 1.0
C      1  0.4966540000000  0.5262360000000  0.5915270000000 1.0
C      1  0.4751300000000  0.5072050000000  0.5907950000000 1.0
C      1  0.4860500000000  0.4497600000000  0.4251700000000 1.0
C      1  0.5426820000000  0.4693670000000  0.4236630000000 1.0
C      1  0.5400620000000  0.5342880000000  0.4247390000000 1.0
C      1  0.4823820000000  0.5512210000000  0.4244440000000 1.0
C      1  0.4473840000000  0.4973370000000  0.4254130000000 1.0
C      1  0.5571680000000  0.4938090000000  0.5297530000000 1.0
C      1  0.5281490000000  0.5368220000000  0.5300890000000 1.0
C      1  0.4724670000000  0.5352210000000  0.5270910000000 1.0
C      1  0.4524440000000  0.4696980000000  0.5285050000000 1.0
C      1  0.5152640000000  0.4465570000000  0.5347700000000 1.0
C      1  0.5202540000000  0.4196470000000  0.5450890000000 1.0
C      1  0.5816570000000  0.4977640000000  0.5437950000000 1.0
C      1  0.5209340000000  0.5792580000000  0.5451720000000 1.0
C      1  0.4327070000000  0.5343690000000  0.5524710000000 1.0
C      1  0.4341020000000  0.4540870000000  0.5446240000000 1.0
C      1  0.4122950000000  0.4704750000000  0.4539420000000 1.0
C      1  0.5004440000000  0.4090950000000  0.4548430000000 1.0
C      1  0.5880780000000  0.4683660000000  0.4516940000000 1.0
C      1  0.5547250000000  0.5742790000000  0.4582220000000 1.0
C      1  0.4453180000000  0.5768850000000  0.4561730000000 1.0
END
