TITL C-2441165-58-1221 0.0476326176372842 125000 -17830.2258877785 0 0 130 (C1) n - 1
REM
REM in /home/bkarasulu/work/CARBON/AIRSS/Generating-Clusters/ReaxFF-fromJPCA2015/Units_Real/with-SteepDescent/Higher-Symm
REM
REM
REM
REM
REM
REM ./C.cell (1df0a924f5614ab8850e4351716899ee)
REM
REM compiler GCC version 9.2.1 20190827 (Red Hat 9.2.1-1)
REM options -cpp -mtune=generic -march=x86-64 -g -O0 -fpre-include=/usr/include/finclude/math-vector-fortran.h
REM seed -1516729040 730188906 84611188 -137199786 2079414694 306336145 -1368703574 -437826018 392924867 -610654628 -177647226 443177094 -50590767 -1486086663 1748312602 245171952 1470747527 -386810619 -1876614627 -1092337696 -1339625953 79803516 1560499582 2023067519 941046611 27000780 -2145269574 1658622154 2045394966 -1675588687 -1792748242 -826833026 1276291065
REM
CELL 1.54180   50.00000   50.00000   50.00000   90.00000   90.00000   90.00000
LATT -1
SFAC C  
C      1  0.5008030000000  0.4918290000000  0.4718670000000 1.0
C      1  0.4982690000000  0.5059430000000  0.5242280000000 1.0
C      1  0.4447140000000  0.4241790000000  0.5138100000000 1.0
C      1  0.5537090000000  0.5744470000000  0.4828540000000 1.0
C      1  0.5865490000000  0.4986480000000  0.5059850000000 1.0
C      1  0.4105310000000  0.5000410000000  0.4982560000000 1.0
C      1  0.4595490000000  0.4816460000000  0.5446400000000 1.0
C      1  0.5491350000000  0.5270930000000  0.4572510000000 1.0
C      1  0.5718310000000  0.4511970000000  0.5450600000000 1.0
C      1  0.4264740000000  0.5479050000000  0.4572900000000 1.0
C      1  0.4996880000000  0.5794160000000  0.4399360000000 1.0
C      1  0.5033830000000  0.4229750000000  0.5590240000000 1.0
C      1  0.5579370000000  0.4283270000000  0.5026870000000 1.0
C      1  0.4406870000000  0.5705070000000  0.5023890000000 1.0
C      1  0.5875050000000  0.5004820000000  0.5343820000000 1.0
C      1  0.4090860000000  0.4996820000000  0.4701500000000 1.0
C      1  0.4907970000000  0.5603210000000  0.5314290000000 1.0
C      1  0.5091220000000  0.4403910000000  0.4655860000000 1.0
C      1  0.5080840000000  0.5820200000000  0.5448350000000 1.0
C      1  0.4925190000000  0.4164290000000  0.4533750000000 1.0
C      1  0.4230220000000  0.4786870000000  0.4535020000000 1.0
C      1  0.5813890000000  0.5235800000000  0.5512260000000 1.0
C      1  0.5475830000000  0.5514230000000  0.4254490000000 1.0
C      1  0.4495460000000  0.4522020000000  0.5714920000000 1.0
C      1  0.5018700000000  0.5346130000000  0.5105940000000 1.0
C      1  0.4967880000000  0.4661220000000  0.4869740000000 1.0
C      1  0.4544350000000  0.4847000000000  0.5001730000000 1.0
C      1  0.5414010000000  0.5089160000000  0.4926490000000 1.0
C      1  0.4546900000000  0.4354800000000  0.4741160000000 1.0
C      1  0.5489710000000  0.5730690000000  0.5287500000000 1.0
C      1  0.5045230000000  0.5613980000000  0.5875960000000 1.0
C      1  0.4943080000000  0.4364590000000  0.4097710000000 1.0
C      1  0.4595730000000  0.5120230000000  0.4887920000000 1.0
C      1  0.5365440000000  0.4873270000000  0.5106150000000 1.0
C      1  0.4372950000000  0.5432620000000  0.5152700000000 1.0
C      1  0.5653330000000  0.4534080000000  0.4879410000000 1.0
C      1  0.4878050000000  0.4890980000000  0.3990400000000 1.0
C      1  0.5125420000000  0.5111450000000  0.5966150000000 1.0
C      1  0.5364790000000  0.4148510000000  0.4890260000000 1.0
C      1  0.4630530000000  0.5866150000000  0.5115800000000 1.0
C      1  0.5441540000000  0.5231030000000  0.5353540000000 1.0
C      1  0.4514000000000  0.4842410000000  0.4537200000000 1.0
C      1  0.5310690000000  0.4921420000000  0.4714030000000 1.0
C      1  0.4688100000000  0.5017150000000  0.5264240000000 1.0
C      1  0.4312190000000  0.4867000000000  0.5394710000000 1.0
C      1  0.5735190000000  0.5122910000000  0.4628530000000 1.0
C      1  0.4983710000000  0.4640200000000  0.5851000000000 1.0
C      1  0.5024720000000  0.5354810000000  0.4142900000000 1.0
C      1  0.4815560000000  0.4457630000000  0.5689250000000 1.0
C      1  0.5178440000000  0.5561850000000  0.4259060000000 1.0
C      1  0.5236490000000  0.4389510000000  0.5276130000000 1.0
C      1  0.4742400000000  0.5611930000000  0.4724760000000 1.0
C      1  0.5720800000000  0.4685330000000  0.5677480000000 1.0
C      1  0.4291930000000  0.5293200000000  0.4353960000000 1.0
C      1  0.5603400000000  0.4941330000000  0.4195720000000 1.0
C      1  0.4417050000000  0.5079980000000  0.5818610000000 1.0
C      1  0.5231660000000  0.4802700000000  0.5524840000000 1.0
C      1  0.4758130000000  0.5244680000000  0.4462090000000 1.0
C      1  0.4823880000000  0.5371160000000  0.5501770000000 1.0
C      1  0.5159870000000  0.4611100000000  0.4450240000000 1.0
C      1  0.5188200000000  0.4506950000000  0.4177910000000 1.0
C      1  0.4809680000000  0.5471770000000  0.5786300000000 1.0
C      1  0.5287640000000  0.4338430000000  0.5645340000000 1.0
C      1  0.4778680000000  0.5669950000000  0.4299860000000 1.0
C      1  0.5805730000000  0.4846220000000  0.4615070000000 1.0
C      1  0.4204880000000  0.5139490000000  0.5412430000000 1.0
C      1  0.4976770000000  0.4845040000000  0.4423900000000 1.0
C      1  0.5038820000000  0.5163280000000  0.5509980000000 1.0
C      1  0.4922580000000  0.5376220000000  0.4658140000000 1.0
C      1  0.5069880000000  0.4628830000000  0.5344420000000 1.0
C      1  0.4575690000000  0.4112520000000  0.4899190000000 1.0
C      1  0.5410690000000  0.5903010000000  0.5063350000000 1.0
C      1  0.4697760000000  0.4772350000000  0.4340970000000 1.0
C      1  0.5297740000000  0.5244180000000  0.5604120000000 1.0
C      1  0.5856920000000  0.4754080000000  0.4888210000000 1.0
C      1  0.4145650000000  0.5239460000000  0.5144080000000 1.0
C      1  0.4707270000000  0.4389620000000  0.5170670000000 1.0
C      1  0.5263320000000  0.5660410000000  0.4766130000000 1.0
C      1  0.4993250000000  0.5362880000000  0.5973230000000 1.0
C      1  0.5001690000000  0.4624500000000  0.3977310000000 1.0
C      1  0.5875250000000  0.4741200000000  0.5454220000000 1.0
C      1  0.4112440000000  0.5245090000000  0.4564930000000 1.0
C      1  0.5428230000000  0.4936630000000  0.5364550000000 1.0
C      1  0.4572380000000  0.5098380000000  0.4608090000000 1.0
C      1  0.5383200000000  0.5082390000000  0.5832730000000 1.0
C      1  0.4613030000000  0.4930320000000  0.4112350000000 1.0
C      1  0.5147490000000  0.5850950000000  0.4952680000000 1.0
C      1  0.4836480000000  0.4133760000000  0.5037140000000 1.0
C      1  0.4451900000000  0.5617050000000  0.4747260000000 1.0
C      1  0.5526050000000  0.4352960000000  0.5306720000000 1.0
C      1  0.5232940000000  0.5743160000000  0.5684900000000 1.0
C      1  0.4766260000000  0.4248500000000  0.4309970000000 1.0
C      1  0.4637130000000  0.5738140000000  0.5380170000000 1.0
C      1  0.5363960000000  0.4268710000000  0.4616610000000 1.0
C      1  0.4484370000000  0.5189260000000  0.4163690000000 1.0
C      1  0.5510160000000  0.4817290000000  0.5828310000000 1.0
C      1  0.4257500000000  0.4765670000000  0.5114230000000 1.0
C      1  0.5718200000000  0.5197740000000  0.4899180000000 1.0
C      1  0.5372100000000  0.5037340000000  0.4057180000000 1.0
C      1  0.4633590000000  0.4957850000000  0.5966210000000 1.0
C      1  0.4471820000000  0.5566340000000  0.5565800000000 1.0
C      1  0.5540180000000  0.4439100000000  0.4436390000000 1.0
C      1  0.5079990000000  0.5056230000000  0.4150690000000 1.0
C      1  0.4925710000000  0.4902870000000  0.5933630000000 1.0
C      1  0.4609490000000  0.5301090000000  0.5252140000000 1.0
C      1  0.5418860000000  0.4657250000000  0.4761670000000 1.0
C      1  0.4285980000000  0.4518880000000  0.4468130000000 1.0
C      1  0.5686780000000  0.5455600000000  0.5592610000000 1.0
C      1  0.4867710000000  0.5944010000000  0.4941220000000 1.0
C      1  0.5116690000000  0.4063380000000  0.5045810000000 1.0
C      1  0.5579390000000  0.5541680000000  0.4521870000000 1.0
C      1  0.4349880000000  0.4457030000000  0.5478380000000 1.0
C      1  0.4434370000000  0.4782300000000  0.5848510000000 1.0
C      1  0.5558180000000  0.5235710000000  0.4151300000000 1.0
C      1  0.4844030000000  0.5874720000000  0.4653710000000 1.0
C      1  0.5138510000000  0.4118230000000  0.5334690000000 1.0
C      1  0.4883520000000  0.5187420000000  0.4863930000000 1.0
C      1  0.5090630000000  0.4787940000000  0.5114570000000 1.0
C      1  0.5250020000000  0.5372870000000  0.4720580000000 1.0
C      1  0.4772850000000  0.4578610000000  0.5414200000000 1.0
C      1  0.5533890000000  0.5466020000000  0.5180610000000 1.0
C      1  0.4687120000000  0.4585520000000  0.4920030000000 1.0
C      1  0.4718450000000  0.5400210000000  0.4186430000000 1.0
C      1  0.5279950000000  0.4610910000000  0.5785450000000 1.0
C      1  0.5672440000000  0.5504060000000  0.4937440000000 1.0
C      1  0.4263310000000  0.4452410000000  0.5213430000000 1.0
C      1  0.4356350000000  0.5297430000000  0.5616770000000 1.0
C      1  0.5661270000000  0.4708160000000  0.4392610000000 1.0
C      1  0.4491100000000  0.4325340000000  0.4456010000000 1.0
C      1  0.5511060000000  0.5681270000000  0.5577580000000 1.0
END
