TITL C-2441162-9305-908 0.0710725902363892 125000 -14264.2981361728 0 0 106 (C1) n - 1
REM
REM in /home/bkarasulu/work/CARBON/AIRSS/Generating-Clusters/ReaxFF-fromJPCA2015/Units_Real/with-SteepDescent/Higher-Symm
REM
REM
REM
REM
REM
REM ./C.cell (1df0a924f5614ab8850e4351716899ee)
REM
REM compiler GCC version 9.2.1 20190827 (Red Hat 9.2.1-1)
REM options -cpp -mtune=generic -march=x86-64 -g -O0 -fpre-include=/usr/include/finclude/math-vector-fortran.h
REM seed 1137694009 1678787106 -2072912056 1661926387 -1002459564 -999344204 424750357 -1422010096 -172330884 83629676 -77833544 948392444 -1530155670 -2055970489 375713612 -510393843 1314235171 214725397 -1318973413 1119219661 -1451033598 -1203433994 -7710666 -1122341239 1555064954 -367031451 1146230973 -1551814533 993503694 -1350293156 -605551369 -356961267 1902377829
REM
CELL 1.54180   50.00000   50.00000   50.00000   90.00000   90.00000   90.00000
LATT -1
SFAC C  
C      1  0.4496080000000  0.5230800000000  0.5435140000000 1.0
C      1  0.5610120000000  0.5223020000000  0.5216680000000 1.0
C      1  0.4890990000000  0.5222880000000  0.4327950000000 1.0
C      1  0.4456350000000  0.4783290000000  0.4561730000000 1.0
C      1  0.5650640000000  0.4777150000000  0.4769540000000 1.0
C      1  0.4894750000000  0.4781790000000  0.5690040000000 1.0
C      1  0.4829440000000  0.4106350000000  0.4749380000000 1.0
C      1  0.4866280000000  0.4103040000000  0.5278050000000 1.0
C      1  0.5302670000000  0.4104880000000  0.4975790000000 1.0
C      1  0.4826210000000  0.5907220000000  0.5247590000000 1.0
C      1  0.4877770000000  0.5902930000000  0.4723180000000 1.0
C      1  0.5307050000000  0.5898680000000  0.5028840000000 1.0
C      1  0.5571200000000  0.4758220000000  0.4282080000000 1.0
C      1  0.4114420000000  0.4766110000000  0.4868650000000 1.0
C      1  0.5352510000000  0.4767990000000  0.5831010000000 1.0
C      1  0.5587390000000  0.5264770000000  0.5692520000000 1.0
C      1  0.4109000000000  0.5256750000000  0.5140390000000 1.0
C      1  0.5331500000000  0.5252950000000  0.4168910000000 1.0
C      1  0.5225190000000  0.5322420000000  0.4873570000000 1.0
C      1  0.4778080000000  0.5330340000000  0.4879010000000 1.0
C      1  0.5005880000000  0.5331440000000  0.5266100000000 1.0
C      1  0.5207880000000  0.4653470000000  0.5099320000000 1.0
C      1  0.4811450000000  0.4652890000000  0.5066330000000 1.0
C      1  0.5029810000000  0.4671120000000  0.4864320000000 1.0
C      1  0.5538510000000  0.5458620000000  0.4527630000000 1.0
C      1  0.4325980000000  0.5429850000000  0.4755220000000 1.0
C      1  0.5130140000000  0.5429820000000  0.5712680000000 1.0
C      1  0.5516000000000  0.4532550000000  0.5456290000000 1.0
C      1  0.4346010000000  0.4529600000000  0.5213340000000 1.0
C      1  0.5131260000000  0.4581440000000  0.4299340000000 1.0
C      1  0.5655810000000  0.5187950000000  0.4494110000000 1.0
C      1  0.4276170000000  0.5159170000000  0.4632440000000 1.0
C      1  0.5049090000000  0.5154350000000  0.5815310000000 1.0
C      1  0.5682570000000  0.4903690000000  0.5490950000000 1.0
C      1  0.4232900000000  0.4903370000000  0.5333270000000 1.0
C      1  0.5047170000000  0.4854770000000  0.4208540000000 1.0
C      1  0.4716240000000  0.5382800000000  0.5765080000000 1.0
C      1  0.5771880000000  0.5386260000000  0.4878300000000 1.0
C      1  0.4487560000000  0.5384620000000  0.4367920000000 1.0
C      1  0.4713650000000  0.4625740000000  0.4241200000000 1.0
C      1  0.5764500000000  0.4649330000000  0.5152910000000 1.0
C      1  0.4492360000000  0.4643260000000  0.5580350000000 1.0
C      1  0.5001310000000  0.5519770000000  0.4458980000000 1.0
C      1  0.4536510000000  0.5526400000000  0.5271170000000 1.0
C      1  0.5461460000000  0.5522810000000  0.5275930000000 1.0
C      1  0.4996870000000  0.4486410000000  0.5537710000000 1.0
C      1  0.4527910000000  0.4483390000000  0.4721490000000 1.0
C      1  0.5466100000000  0.4481840000000  0.4738420000000 1.0
C      1  0.4774990000000  0.4295870000000  0.5471190000000 1.0
C      1  0.5517170000000  0.4296400000000  0.4960630000000 1.0
C      1  0.4713050000000  0.4302930000000  0.4569330000000 1.0
C      1  0.4776260000000  0.5705310000000  0.4534400000000 1.0
C      1  0.5523210000000  0.5700380000000  0.5042050000000 1.0
C      1  0.4713720000000  0.5705560000000  0.5427470000000 1.0
C      1  0.4674050000000  0.4426200000000  0.4975880000000 1.0
C      1  0.5132740000000  0.4442090000000  0.5275510000000 1.0
C      1  0.5177310000000  0.4435430000000  0.4717620000000 1.0
C      1  0.4680410000000  0.5574060000000  0.5012020000000 1.0
C      1  0.5151230000000  0.5562370000000  0.4719340000000 1.0
C      1  0.5166030000000  0.5575570000000  0.5281180000000 1.0
C      1  0.4595920000000  0.4849290000000  0.5734150000000 1.0
C      1  0.5847240000000  0.4861690000000  0.4998240000000 1.0
C      1  0.4552500000000  0.4854850000000  0.4278930000000 1.0
C      1  0.4603610000000  0.5154160000000  0.4252410000000 1.0
C      1  0.5847180000000  0.5166300000000  0.5027970000000 1.0
C      1  0.4559230000000  0.5152400000000  0.5723810000000 1.0
C      1  0.4644000000000  0.5086990000000  0.4889730000000 1.0
C      1  0.5086650000000  0.5089240000000  0.5368590000000 1.0
C      1  0.5275980000000  0.5089110000000  0.4746990000000 1.0
C      1  0.4674630000000  0.4901160000000  0.5094080000000 1.0
C      1  0.5076640000000  0.4911900000000  0.4701650000000 1.0
C      1  0.5244790000000  0.4892220000000  0.5245870000000 1.0
C      1  0.4519240000000  0.4959740000000  0.5319020000000 1.0
C      1  0.5511080000000  0.4954410000000  0.5262780000000 1.0
C      1  0.4941100000000  0.4961330000000  0.4461260000000 1.0
C      1  0.4542170000000  0.5035130000000  0.4663250000000 1.0
C      1  0.5531040000000  0.5037080000000  0.4721850000000 1.0
C      1  0.4936280000000  0.5036120000000  0.5575120000000 1.0
C      1  0.5162670000000  0.5849890000000  0.4780010000000 1.0
C      1  0.4732250000000  0.5862290000000  0.4972360000000 1.0
C      1  0.5114330000000  0.5864210000000  0.5248380000000 1.0
C      1  0.5152660000000  0.4158710000000  0.5223990000000 1.0
C      1  0.4725400000000  0.4145460000000  0.5022030000000 1.0
C      1  0.5118890000000  0.4153590000000  0.4749300000000 1.0
C      1  0.5093090000000  0.4876910000000  0.5901140000000 1.0
C      1  0.5757760000000  0.4792700000000  0.4494610000000 1.0
C      1  0.4179890000000  0.4880770000000  0.4618000000000 1.0
C      1  0.5072450000000  0.5130630000000  0.4111830000000 1.0
C      1  0.5768110000000  0.5188010000000  0.5476350000000 1.0
C      1  0.4195300000000  0.5186420000000  0.5410520000000 1.0
C      1  0.4871710000000  0.4418430000000  0.4344280000000 1.0
C      1  0.4489230000000  0.4406750000000  0.5438150000000 1.0
C      1  0.5635780000000  0.4413630000000  0.5220110000000 1.0
C      1  0.4870350000000  0.5589050000000  0.5655920000000 1.0
C      1  0.4501950000000  0.5592400000000  0.4555830000000 1.0
C      1  0.5637550000000  0.5602650000000  0.4782030000000 1.0
C      1  0.5396720000000  0.5465140000000  0.5606510000000 1.0
C      1  0.5310020000000  0.5482460000000  0.4348440000000 1.0
C      1  0.4285580000000  0.5460620000000  0.5039010000000 1.0
C      1  0.5398060000000  0.4551420000000  0.4400760000000 1.0
C      1  0.5308580000000  0.4546860000000  0.5641660000000 1.0
C      1  0.4274370000000  0.4539440000000  0.4940340000000 1.0
C      1  0.5536450000000  0.5060460000000  0.4259740000000 1.0
C      1  0.5550830000000  0.4969180000000  0.5749410000000 1.0
C      1  0.4089760000000  0.4959220000000  0.5080120000000 1.0
C      1  0.5006150000000  0.5236080000000  0.5014900000000 1.0
END
