TITL C-2441159-1093-559 0.019247322848172 125000 -8653.24955572745 0 0 67 (C1) n - 1
REM
REM in /home/bkarasulu/work/CARBON/AIRSS/Generating-Clusters/ReaxFF-fromJPCA2015/Units_Real/with-SteepDescent/Higher-Symm
REM
REM
REM
REM
REM
REM ./C.cell (1df0a924f5614ab8850e4351716899ee)
REM
REM compiler GCC version 9.2.1 20190827 (Red Hat 9.2.1-1)
REM options -cpp -mtune=generic -march=x86-64 -g -O0 -fpre-include=/usr/include/finclude/math-vector-fortran.h
REM seed 1920471414 -1573943438 -416214576 240704203 673900922 1468193975 -50805166 1160069159 -1515565810 -107252821 -1500172805 19186882 1279353005 -311675999 1053453244 410688760 59510518 559078952 -999419020 -1340737398 -409738348 -1921009551 891672606 1755368067 1452193037 -324059570 1115824706 -1229122464 -944567787 1464682012 -1048077714 730560544 2040065786
REM
CELL 1.54180   50.00000   50.00000   50.00000   90.00000   90.00000   90.00000
LATT -1
SFAC C  
C      1  0.4557550000000  0.5236290000000  0.5510110000000 1.0
C      1  0.4515700000000  0.4858960000000  0.4493230000000 1.0
C      1  0.4759660000000  0.4562040000000  0.5508130000000 1.0
C      1  0.5138780000000  0.4526470000000  0.4493290000000 1.0
C      1  0.5443530000000  0.4771360000000  0.5492780000000 1.0
C      1  0.5476220000000  0.5144090000000  0.4490300000000 1.0
C      1  0.5237090000000  0.5462460000000  0.5510280000000 1.0
C      1  0.4843790000000  0.5493330000000  0.4469330000000 1.0
C      1  0.4735140000000  0.5590370000000  0.5170580000000 1.0
C      1  0.4376050000000  0.5239490000000  0.4820720000000 1.0
C      1  0.4373810000000  0.4714290000000  0.5199130000000 1.0
C      1  0.4757750000000  0.4356050000000  0.4802980000000 1.0
C      1  0.5280840000000  0.4381190000000  0.5195490000000 1.0
C      1  0.5646540000000  0.4757480000000  0.4793710000000 1.0
C      1  0.5616210000000  0.5292500000000  0.5196040000000 1.0
C      1  0.5234580000000  0.5653860000000  0.4793610000000 1.0
C      1  0.5272160000000  0.4894640000000  0.4215780000000 1.0
C      1  0.5256390000000  0.5095760000000  0.5806520000000 1.0
C      1  0.5103920000000  0.5278060000000  0.4216680000000 1.0
C      1  0.4885980000000  0.5271270000000  0.5775440000000 1.0
C      1  0.4718500000000  0.5107640000000  0.4216730000000 1.0
C      1  0.4717690000000  0.4883930000000  0.5780910000000 1.0
C      1  0.4888420000000  0.4726130000000  0.4216300000000 1.0
C      1  0.5097370000000  0.4731080000000  0.5815580000000 1.0
C      1  0.4669510000000  0.4865260000000  0.4236740000000 1.0
C      1  0.4850380000000  0.4670950000000  0.5769750000000 1.0
C      1  0.5132240000000  0.4674520000000  0.4236170000000 1.0
C      1  0.5315890000000  0.4849460000000  0.5751300000000 1.0
C      1  0.5323470000000  0.5136910000000  0.4235790000000 1.0
C      1  0.5145050000000  0.5319480000000  0.5753470000000 1.0
C      1  0.4858460000000  0.5330280000000  0.4226870000000 1.0
C      1  0.4672100000000  0.5142310000000  0.5765820000000 1.0
C      1  0.5162560000000  0.4753490000000  0.4668230000000 1.0
C      1  0.5291890000000  0.4943490000000  0.5324840000000 1.0
C      1  0.5247630000000  0.5165020000000  0.4662460000000 1.0
C      1  0.5071210000000  0.5287680000000  0.5360760000000 1.0
C      1  0.4836040000000  0.5251490000000  0.4619080000000 1.0
C      1  0.4697500000000  0.5050330000000  0.5344600000000 1.0
C      1  0.4746520000000  0.4833340000000  0.4661270000000 1.0
C      1  0.4939560000000  0.4706420000000  0.5336910000000 1.0
C      1  0.5450160000000  0.5502790000000  0.5310140000000 1.0
C      1  0.4963550000000  0.5688260000000  0.4674570000000 1.0
C      1  0.4499280000000  0.5458770000000  0.5309370000000 1.0
C      1  0.4326790000000  0.4976980000000  0.4695610000000 1.0
C      1  0.4539390000000  0.4505060000000  0.5313460000000 1.0
C      1  0.5020510000000  0.4328570000000  0.4685810000000 1.0
C      1  0.5493030000000  0.4544470000000  0.5309510000000 1.0
C      1  0.5669050000000  0.5029150000000  0.4691480000000 1.0
C      1  0.5319890000000  0.5559520000000  0.5057780000000 1.0
C      1  0.4818760000000  0.5677730000000  0.4916040000000 1.0
C      1  0.4383310000000  0.5358210000000  0.5075340000000 1.0
C      1  0.4371990000000  0.4821890000000  0.4931260000000 1.0
C      1  0.4665390000000  0.4444220000000  0.5061420000000 1.0
C      1  0.5156400000000  0.4375270000000  0.4936360000000 1.0
C      1  0.5555250000000  0.4669940000000  0.5055730000000 1.0
C      1  0.5616740000000  0.5184280000000  0.4929080000000 1.0
C      1  0.4934840000000  0.5357270000000  0.5136980000000 1.0
C      1  0.4682330000000  0.5209030000000  0.4841010000000 1.0
C      1  0.4570560000000  0.4912180000000  0.5132260000000 1.0
C      1  0.4761220000000  0.4640360000000  0.4866050000000 1.0
C      1  0.5083460000000  0.4581080000000  0.5129000000000 1.0
C      1  0.5360310000000  0.4778070000000  0.4867530000000 1.0
C      1  0.5411260000000  0.5102760000000  0.5124120000000 1.0
C      1  0.5235340000000  0.5363320000000  0.4859830000000 1.0
C      1  0.5000090000000  0.4990880000000  0.5425540000000 1.0
C      1  0.5003620000000  0.4998170000000  0.4575170000000 1.0
C      1  0.4916330000000  0.5090220000000  0.4994100000000 1.0
END
