TITL C-2441165-58-174 0.0940093064328973 125000 -12420.6290106405 0 0 98 (C1) n - 1
REM
REM in /home/bkarasulu/work/CARBON/AIRSS/Generating-Clusters/ReaxFF-fromJPCA2015/Units_Real/with-SteepDescent/Higher-Symm
REM
REM
REM
REM
REM
REM ./C.cell (1df0a924f5614ab8850e4351716899ee)
REM
REM compiler GCC version 9.2.1 20190827 (Red Hat 9.2.1-1)
REM options -cpp -mtune=generic -march=x86-64 -g -O0 -fpre-include=/usr/include/finclude/math-vector-fortran.h
REM seed -1744119996 4134194 1957150939 -2031961637 -1150692944 1834425526 -1311939533 -1776612219 -970970678 -1190728080 -1558389832 542561135 -1870438136 597023780 -957769272 -1225513196 -500615363 646758809 712387171 -1384971232 -1200620565 1544942860 -331446164 5628489 -957510852 713852068 -1029814097 999225930 1776929254 -211212356 1840256255 513486263 -1692939366
REM
CELL 1.54180   50.00000   50.00000   50.00000   90.00000   90.00000   90.00000
LATT -1
SFAC C  
C      1  0.5780050000000  0.4806740000000  0.5195330000000 1.0
C      1  0.5289730000000  0.4241020000000  0.5174700000000 1.0
C      1  0.4638440000000  0.4280360000000  0.5184710000000 1.0
C      1  0.4206190000000  0.4843150000000  0.5187370000000 1.0
C      1  0.4392230000000  0.5516850000000  0.5211150000000 1.0
C      1  0.4999950000000  0.5810250000000  0.5142130000000 1.0
C      1  0.5666680000000  0.5448350000000  0.5183080000000 1.0
C      1  0.5182110000000  0.5263770000000  0.4438230000000 1.0
C      1  0.5320890000000  0.5021880000000  0.4438810000000 1.0
C      1  0.5217660000000  0.4762340000000  0.4447410000000 1.0
C      1  0.4950290000000  0.4680690000000  0.4442720000000 1.0
C      1  0.4719640000000  0.4838620000000  0.4441090000000 1.0
C      1  0.4700230000000  0.5116980000000  0.4447650000000 1.0
C      1  0.4905710000000  0.5307230000000  0.4446640000000 1.0
C      1  0.5300320000000  0.5106840000000  0.5030300000000 1.0
C      1  0.5275350000000  0.4824850000000  0.5038990000000 1.0
C      1  0.5035400000000  0.4677610000000  0.5032120000000 1.0
C      1  0.4763880000000  0.4768410000000  0.5030000000000 1.0
C      1  0.4674070000000  0.5042820000000  0.5019260000000 1.0
C      1  0.4833720000000  0.5290770000000  0.5050260000000 1.0
C      1  0.5114840000000  0.5322460000000  0.5039040000000 1.0
C      1  0.5306780000000  0.4346620000000  0.5462050000000 1.0
C      1  0.4706430000000  0.4430310000000  0.5514790000000 1.0
C      1  0.4331040000000  0.4863840000000  0.5484920000000 1.0
C      1  0.4445710000000  0.5403920000000  0.5516710000000 1.0
C      1  0.5071470000000  0.5665170000000  0.5511170000000 1.0
C      1  0.5540440000000  0.5455450000000  0.5454420000000 1.0
C      1  0.5660830000000  0.4838490000000  0.5511260000000 1.0
C      1  0.5603690000000  0.5051350000000  0.4419230000000 1.0
C      1  0.5417610000000  0.4560310000000  0.4427590000000 1.0
C      1  0.4916130000000  0.4398470000000  0.4419160000000 1.0
C      1  0.4477250000000  0.4691390000000  0.4418930000000 1.0
C      1  0.4428640000000  0.5215360000000  0.4419490000000 1.0
C      1  0.4809550000000  0.5576320000000  0.4417930000000 1.0
C      1  0.5336320000000  0.5504300000000  0.4419630000000 1.0
C      1  0.4671280000000  0.5232600000000  0.5575630000000 1.0
C      1  0.5083370000000  0.5383620000000  0.5580340000000 1.0
C      1  0.5338880000000  0.5251530000000  0.5548230000000 1.0
C      1  0.5383620000000  0.4802360000000  0.5596530000000 1.0
C      1  0.5177930000000  0.4600960000000  0.5560340000000 1.0
C      1  0.4747150000000  0.4711080000000  0.5553640000000 1.0
C      1  0.4605270000000  0.4955360000000  0.5482320000000 1.0
C      1  0.5793560000000  0.4934740000000  0.4937900000000 1.0
C      1  0.5445140000000  0.4335770000000  0.4950840000000 1.0
C      1  0.4755120000000  0.4248520000000  0.4927000000000 1.0
C      1  0.4260370000000  0.4713620000000  0.4931530000000 1.0
C      1  0.4320500000000  0.5399510000000  0.4947300000000 1.0
C      1  0.4864600000000  0.5784290000000  0.4912860000000 1.0
C      1  0.5578610000000  0.5575910000000  0.4945760000000 1.0
C      1  0.5512240000000  0.4689580000000  0.5153450000000 1.0
C      1  0.5060180000000  0.4411160000000  0.5143740000000 1.0
C      1  0.4577250000000  0.4568670000000  0.5151190000000 1.0
C      1  0.4410580000000  0.5055280000000  0.5141710000000 1.0
C      1  0.4693400000000  0.5500390000000  0.5198890000000 1.0
C      1  0.5209540000000  0.5607930000000  0.5117560000000 1.0
C      1  0.5553530000000  0.5189540000000  0.5146940000000 1.0
C      1  0.5667640000000  0.4464320000000  0.4814530000000 1.0
C      1  0.4995050000000  0.4143330000000  0.4803720000000 1.0
C      1  0.4328250000000  0.4466570000000  0.4804360000000 1.0
C      1  0.4166820000000  0.5191730000000  0.4814450000000 1.0
C      1  0.4606610000000  0.5784590000000  0.4784840000000 1.0
C      1  0.5367380000000  0.5761960000000  0.4839470000000 1.0
C      1  0.5833910000000  0.5188530000000  0.4806040000000 1.0
C      1  0.4299210000000  0.5242260000000  0.5330100000000 1.0
C      1  0.4834010000000  0.5704450000000  0.5347430000000 1.0
C      1  0.5334310000000  0.5649920000000  0.5383670000000 1.0
C      1  0.5707940000000  0.5081950000000  0.5366600000000 1.0
C      1  0.5531240000000  0.4499210000000  0.5364200000000 1.0
C      1  0.4901310000000  0.4289430000000  0.5355730000000 1.0
C      1  0.4371520000000  0.4613220000000  0.5349300000000 1.0
C      1  0.4678610000000  0.4256400000000  0.4485630000000 1.0
C      1  0.4216740000000  0.4784640000000  0.4485650000000 1.0
C      1  0.4346740000000  0.5477970000000  0.4492700000000 1.0
C      1  0.4974500000000  0.5808440000000  0.4484590000000 1.0
C      1  0.5612260000000  0.5531680000000  0.4489820000000 1.0
C      1  0.5794410000000  0.4851820000000  0.4488700000000 1.0
C      1  0.5380520000000  0.4286590000000  0.4491900000000 1.0
C      1  0.5552310000000  0.4222830000000  0.4712880000000 1.0
C      1  0.4734350000000  0.4078790000000  0.4703500000000 1.0
C      1  0.4113390000000  0.4631810000000  0.4706060000000 1.0
C      1  0.4170810000000  0.5466360000000  0.4717110000000 1.0
C      1  0.4837700000000  0.5936980000000  0.4703400000000 1.0
C      1  0.5631690000000  0.5711390000000  0.4710890000000 1.0
C      1  0.5954900000000  0.4948100000000  0.4706660000000 1.0
C      1  0.5289390000000  0.4858980000000  0.5862230000000 1.0
C      1  0.5069220000000  0.4676880000000  0.5817620000000 1.0
C      1  0.4781420000000  0.4748630000000  0.5851560000000 1.0
C      1  0.4698830000000  0.5008670000000  0.5910960000000 1.0
C      1  0.4781680000000  0.5266260000000  0.5861340000000 1.0
C      1  0.5077640000000  0.5318610000000  0.5864420000000 1.0
C      1  0.5308640000000  0.5143060000000  0.5818390000000 1.0
C      1  0.4480490000000  0.4443650000000  0.4561930000000 1.0
C      1  0.4234910000000  0.5055970000000  0.4566120000000 1.0
C      1  0.4561950000000  0.5625090000000  0.4549770000000 1.0
C      1  0.5231610000000  0.5720290000000  0.4573920000000 1.0
C      1  0.5708070000000  0.5275240000000  0.4564250000000 1.0
C      1  0.5660500000000  0.4614800000000  0.4569690000000 1.0
C      1  0.5110130000000  0.4242900000000  0.4561810000000 1.0
END
