TITL C-2441156-4686-1427 0.0741143394675584 125000 -17538.8747374867 0 0 130 (C1) n - 1
REM
REM in /home/bkarasulu/work/CARBON/AIRSS/Generating-Clusters/ReaxFF-fromJPCA2015/Units_Real/with-SteepDescent/Higher-Symm
REM
REM
REM
REM
REM
REM ./C.cell (1df0a924f5614ab8850e4351716899ee)
REM
REM compiler GCC version 9.2.1 20190827 (Red Hat 9.2.1-1)
REM options -cpp -mtune=generic -march=x86-64 -g -O0 -fpre-include=/usr/include/finclude/math-vector-fortran.h
REM seed -1853680512 -1621108132 -1502275471 1364574509 -2023480762 -981890359 -1003200987 2054633164 -897152302 1366383606 155844626 -606780975 -1022691642 -1723452786 -267514145 1727660531 459980353 328993379 -688305565 -1523627314 817110589 -609626855 -707102890 -430717177 744859021 -467216656 -19279596 274397934 -1661803222 175776041 1306214928 54396030 20422679
REM
CELL 1.54180   50.00000   50.00000   50.00000   90.00000   90.00000   90.00000
LATT -1
SFAC C  
C      1  0.4712740000000  0.4050950000000  0.4827520000000 1.0
C      1  0.4782260000000  0.5613720000000  0.4194250000000 1.0
C      1  0.4738080000000  0.5320230000000  0.5933180000000 1.0
C      1  0.4920440000000  0.5834210000000  0.4852820000000 1.0
C      1  0.4904440000000  0.4695950000000  0.5730640000000 1.0
C      1  0.4891300000000  0.4432940000000  0.4319510000000 1.0
C      1  0.4836600000000  0.4069920000000  0.5286100000000 1.0
C      1  0.4836800000000  0.5243070000000  0.4027650000000 1.0
C      1  0.4827570000000  0.5728520000000  0.5680570000000 1.0
C      1  0.4584390000000  0.5798330000000  0.5203750000000 1.0
C      1  0.4579810000000  0.4321170000000  0.5638650000000 1.0
C      1  0.4584430000000  0.4815080000000  0.4187760000000 1.0
C      1  0.4251980000000  0.5499620000000  0.4964040000000 1.0
C      1  0.4258290000000  0.4858930000000  0.5500140000000 1.0
C      1  0.4334120000000  0.4641630000000  0.4714930000000 1.0
C      1  0.5728530000000  0.4536130000000  0.5207310000000 1.0
C      1  0.5795270000000  0.4985550000000  0.4427070000000 1.0
C      1  0.5664300000000  0.5408520000000  0.5320860000000 1.0
C      1  0.4845740000000  0.5895060000000  0.5125990000000 1.0
C      1  0.4851540000000  0.4411870000000  0.5730420000000 1.0
C      1  0.4847320000000  0.4663350000000  0.4167890000000 1.0
C      1  0.5646850000000  0.5765920000000  0.4777810000000 1.0
C      1  0.5612130000000  0.4861650000000  0.5725970000000 1.0
C      1  0.5628140000000  0.4448120000000  0.4469630000000 1.0
C      1  0.4686150000000  0.4954470000000  0.5314360000000 1.0
C      1  0.4777690000000  0.4744840000000  0.4794810000000 1.0
C      1  0.4758690000000  0.5269710000000  0.4884940000000 1.0
C      1  0.5092540000000  0.5912610000000  0.5286360000000 1.0
C      1  0.5111520000000  0.4290070000000  0.5665830000000 1.0
C      1  0.5098640000000  0.4785220000000  0.4060350000000 1.0
C      1  0.5725240000000  0.5212080000000  0.5534450000000 1.0
C      1  0.5645350000000  0.4473050000000  0.4881810000000 1.0
C      1  0.5595370000000  0.5386810000000  0.4620390000000 1.0
C      1  0.4088680000000  0.4732900000000  0.5320550000000 1.0
C      1  0.4176150000000  0.4846830000000  0.4563910000000 1.0
C      1  0.4080860000000  0.5351550000000  0.5094530000000 1.0
C      1  0.4675370000000  0.4339790000000  0.4453160000000 1.0
C      1  0.4713880000000  0.5822340000000  0.4661040000000 1.0
C      1  0.4695970000000  0.4872800000000  0.5808780000000 1.0
C      1  0.4936140000000  0.5085180000000  0.5329550000000 1.0
C      1  0.4936860000000  0.4656620000000  0.4999710000000 1.0
C      1  0.4990060000000  0.5162240000000  0.4759720000000 1.0
C      1  0.5307330000000  0.5635920000000  0.5589380000000 1.0
C      1  0.5320210000000  0.4171280000000  0.5257760000000 1.0
C      1  0.5315410000000  0.5178530000000  0.4179840000000 1.0
C      1  0.5146870000000  0.4980930000000  0.5906560000000 1.0
C      1  0.5109240000000  0.4191400000000  0.4505110000000 1.0
C      1  0.5126120000000  0.5825800000000  0.4514720000000 1.0
C      1  0.5461460000000  0.4395630000000  0.5394570000000 1.0
C      1  0.5455830000000  0.4953620000000  0.4305070000000 1.0
C      1  0.5457780000000  0.5623830000000  0.5345880000000 1.0
C      1  0.4069340000000  0.5008860000000  0.5398400000000 1.0
C      1  0.4084470000000  0.4688740000000  0.4811930000000 1.0
C      1  0.4102000000000  0.5308350000000  0.4814260000000 1.0
C      1  0.4256140000000  0.5131730000000  0.4634680000000 1.0
C      1  0.4229090000000  0.5240300000000  0.5316490000000 1.0
C      1  0.4195060000000  0.4603290000000  0.5073610000000 1.0
C      1  0.4472400000000  0.5095240000000  0.5192360000000 1.0
C      1  0.4512370000000  0.4790980000000  0.4889610000000 1.0
C      1  0.4501900000000  0.5097330000000  0.4900260000000 1.0
C      1  0.5999410000000  0.4810770000000  0.4538490000000 1.0
C      1  0.5954230000000  0.5334540000000  0.5019430000000 1.0
C      1  0.5958960000000  0.4651490000000  0.5324840000000 1.0
C      1  0.4591480000000  0.5123890000000  0.4191420000000 1.0
C      1  0.4591040000000  0.5650930000000  0.5472590000000 1.0
C      1  0.4573860000000  0.4244660000000  0.5327730000000 1.0
C      1  0.4411510000000  0.5507560000000  0.4528230000000 1.0
C      1  0.4476020000000  0.5310820000000  0.5772120000000 1.0
C      1  0.4455420000000  0.4218930000000  0.4864960000000 1.0
C      1  0.4918530000000  0.5538120000000  0.5871830000000 1.0
C      1  0.4916800000000  0.4017620000000  0.5024420000000 1.0
C      1  0.4985050000000  0.5488590000000  0.4063630000000 1.0
C      1  0.5598430000000  0.5659610000000  0.4508260000000 1.0
C      1  0.5582420000000  0.5139160000000  0.5770850000000 1.0
C      1  0.5587350000000  0.4257990000000  0.4679820000000 1.0
C      1  0.4857890000000  0.5797580000000  0.4401640000000 1.0
C      1  0.4870540000000  0.5058990000000  0.5936160000000 1.0
C      1  0.4839520000000  0.4108070000000  0.4570200000000 1.0
C      1  0.5196610000000  0.5010790000000  0.5390130000000 1.0
C      1  0.5348460000000  0.4592850000000  0.4843550000000 1.0
C      1  0.5323550000000  0.5356190000000  0.4721280000000 1.0
C      1  0.4765170000000  0.5128490000000  0.4432930000000 1.0
C      1  0.4769910000000  0.5444480000000  0.5372110000000 1.0
C      1  0.4705600000000  0.4471390000000  0.5265880000000 1.0
C      1  0.4941170000000  0.5290770000000  0.5534590000000 1.0
C      1  0.5123120000000  0.4467810000000  0.4943280000000 1.0
C      1  0.4951660000000  0.5326110000000  0.4522390000000 1.0
C      1  0.5192680000000  0.4172680000000  0.4985090000000 1.0
C      1  0.5186170000000  0.5413200000000  0.4309930000000 1.0
C      1  0.5177500000000  0.5413190000000  0.5730810000000 1.0
C      1  0.4862730000000  0.5400360000000  0.5115000000000 1.0
C      1  0.4787650000000  0.4690590000000  0.5233260000000 1.0
C      1  0.4908020000000  0.4927440000000  0.4602110000000 1.0
C      1  0.4452370000000  0.4551620000000  0.5700450000000 1.0
C      1  0.4369760000000  0.4708010000000  0.4335620000000 1.0
C      1  0.4414970000000  0.5726610000000  0.4988270000000 1.0
C      1  0.5642080000000  0.4865320000000  0.5221490000000 1.0
C      1  0.5647240000000  0.4933350000000  0.4760030000000 1.0
C      1  0.5575080000000  0.5244100000000  0.5101910000000 1.0
C      1  0.5361610000000  0.4713160000000  0.4158440000000 1.0
C      1  0.5355080000000  0.5848380000000  0.5175480000000 1.0
C      1  0.5360250000000  0.4434310000000  0.5687580000000 1.0
C      1  0.5356820000000  0.4720340000000  0.5781290000000 1.0
C      1  0.5365090000000  0.4478890000000  0.4342210000000 1.0
C      1  0.5389970000000  0.5832240000000  0.4888260000000 1.0
C      1  0.5316460000000  0.5253010000000  0.4998370000000 1.0
C      1  0.5351600000000  0.4856340000000  0.5198520000000 1.0
C      1  0.5364210000000  0.4896060000000  0.4822650000000 1.0
C      1  0.5320230000000  0.4140080000000  0.4686570000000 1.0
C      1  0.5331640000000  0.5683370000000  0.4385350000000 1.0
C      1  0.5323040000000  0.5195340000000  0.5865120000000 1.0
C      1  0.4447090000000  0.5733190000000  0.4700320000000 1.0
C      1  0.4405410000000  0.4818230000000  0.5752050000000 1.0
C      1  0.4414190000000  0.4469720000000  0.4482070000000 1.0
C      1  0.5232000000000  0.4880140000000  0.4551690000000 1.0
C      1  0.5146020000000  0.5459290000000  0.5116260000000 1.0
C      1  0.5268590000000  0.4615060000000  0.5330240000000 1.0
C      1  0.4342630000000  0.4344480000000  0.5092790000000 1.0
C      1  0.4374300000000  0.5280400000000  0.4400180000000 1.0
C      1  0.4372700000000  0.5433650000000  0.5538490000000 1.0
C      1  0.5176330000000  0.5608920000000  0.4854560000000 1.0
C      1  0.5157550000000  0.4770000000000  0.5562050000000 1.0
C      1  0.5226540000000  0.4592470000000  0.4575880000000 1.0
C      1  0.5077580000000  0.5813690000000  0.5561850000000 1.0
C      1  0.5091130000000  0.4121730000000  0.5421040000000 1.0
C      1  0.5081520000000  0.5075610000000  0.4034570000000 1.0
C      1  0.5760660000000  0.4923820000000  0.5477050000000 1.0
C      1  0.5749590000000  0.4656740000000  0.4670260000000 1.0
C      1  0.5781730000000  0.5482360000000  0.4847330000000 1.0
C      1  0.5765120000000  0.5047820000000  0.5007670000000 1.0
END
