TITL C-2441162-9305-183 0.0340758790042972 125000 -8126.84030208299 0 0 63 (C1) n - 1
REM
REM in /home/bkarasulu/work/CARBON/AIRSS/Generating-Clusters/ReaxFF-fromJPCA2015/Units_Real/with-SteepDescent/Higher-Symm
REM
REM
REM
REM
REM
REM ./C.cell (1df0a924f5614ab8850e4351716899ee)
REM
REM compiler GCC version 9.2.1 20190827 (Red Hat 9.2.1-1)
REM options -cpp -mtune=generic -march=x86-64 -g -O0 -fpre-include=/usr/include/finclude/math-vector-fortran.h
REM seed -270588092 -1689654795 420116338 -584748519 -77851307 20943193 -852633728 -1242048294 -190319437 739517669 1499768228 -1582265684 -255871227 1513387393 -1393208013 -1611013064 603995728 469444912 -1340214242 1763629953 -1490376189 326746865 999942181 -679184493 -310955440 1096698797 -2025691232 1917213497 -857443691 1202542202 -1117360198 -1891557280 -585560468
REM
CELL 1.54180   50.00000   50.00000   50.00000   90.00000   90.00000   90.00000
LATT -1
SFAC C  
C      1  0.4818590000000  0.5601100000000  0.4927440000000 1.0
C      1  0.4829710000000  0.5117790000000  0.4404060000000 1.0
C      1  0.4864810000000  0.4505070000000  0.4693710000000 1.0
C      1  0.4727920000000  0.4503850000000  0.5438040000000 1.0
C      1  0.4772870000000  0.5234700000000  0.5553940000000 1.0
C      1  0.5190040000000  0.5602810000000  0.4925930000000 1.0
C      1  0.5182120000000  0.5117740000000  0.4404380000000 1.0
C      1  0.5159040000000  0.4498580000000  0.4691440000000 1.0
C      1  0.5290770000000  0.4477290000000  0.5441680000000 1.0
C      1  0.5235700000000  0.5216690000000  0.5548250000000 1.0
C      1  0.4331550000000  0.5065540000000  0.5347210000000 1.0
C      1  0.4463210000000  0.5334440000000  0.5075640000000 1.0
C      1  0.4428870000000  0.5247670000000  0.4592740000000 1.0
C      1  0.4467580000000  0.4772310000000  0.4743740000000 1.0
C      1  0.4430130000000  0.4721980000000  0.5149400000000 1.0
C      1  0.5686480000000  0.5066040000000  0.5352750000000 1.0
C      1  0.5556960000000  0.5379470000000  0.5087650000000 1.0
C      1  0.5574930000000  0.5231910000000  0.4615470000000 1.0
C      1  0.5573790000000  0.4696390000000  0.4666680000000 1.0
C      1  0.5528050000000  0.4704890000000  0.5160680000000 1.0
C      1  0.5308580000000  0.4416170000000  0.4928580000000 1.0
C      1  0.5332290000000  0.4739410000000  0.5575650000000 1.0
C      1  0.5357030000000  0.5438960000000  0.5431810000000 1.0
C      1  0.5357560000000  0.5560380000000  0.4705370000000 1.0
C      1  0.5362080000000  0.4893650000000  0.4382090000000 1.0
C      1  0.4740490000000  0.4444980000000  0.4952770000000 1.0
C      1  0.4657060000000  0.4737650000000  0.5581920000000 1.0
C      1  0.4656110000000  0.5445150000000  0.5425840000000 1.0
C      1  0.4654330000000  0.5561000000000  0.4707630000000 1.0
C      1  0.4651440000000  0.4893430000000  0.4389680000000 1.0
C      1  0.5319980000000  0.5323870000000  0.4554800000000 1.0
C      1  0.5323060000000  0.4675020000000  0.4551990000000 1.0
C      1  0.5252810000000  0.4579980000000  0.5164200000000 1.0
C      1  0.5197080000000  0.4948340000000  0.5417110000000 1.0
C      1  0.5291220000000  0.5453060000000  0.5155240000000 1.0
C      1  0.4690400000000  0.5336700000000  0.4536600000000 1.0
C      1  0.4697860000000  0.4702610000000  0.4591690000000 1.0
C      1  0.4837470000000  0.4595970000000  0.5184960000000 1.0
C      1  0.4782820000000  0.4961420000000  0.5450010000000 1.0
C      1  0.4723770000000  0.5440020000000  0.5150450000000 1.0
C      1  0.4857880000000  0.4165380000000  0.4668340000000 1.0
C      1  0.4880510000000  0.4412110000000  0.5648570000000 1.0
C      1  0.4868570000000  0.5395300000000  0.5759520000000 1.0
C      1  0.4876690000000  0.5867970000000  0.4833440000000 1.0
C      1  0.4874160000000  0.5089520000000  0.4117390000000 1.0
C      1  0.5143480000000  0.4157770000000  0.4655110000000 1.0
C      1  0.5134990000000  0.4390940000000  0.5652740000000 1.0
C      1  0.5123190000000  0.5374560000000  0.5746220000000 1.0
C      1  0.5134880000000  0.5868750000000  0.4830780000000 1.0
C      1  0.5134040000000  0.5094410000000  0.4118630000000 1.0
C      1  0.4405590000000  0.4795530000000  0.5439280000000 1.0
C      1  0.4387840000000  0.5353410000000  0.5365620000000 1.0
C      1  0.4405110000000  0.5445790000000  0.4807910000000 1.0
C      1  0.4398110000000  0.4964000000000  0.4524870000000 1.0
C      1  0.4466340000000  0.4541630000000  0.4926880000000 1.0
C      1  0.5588560000000  0.4804560000000  0.5444090000000 1.0
C      1  0.5624930000000  0.5356150000000  0.5368550000000 1.0
C      1  0.5611130000000  0.5450160000000  0.4809010000000 1.0
C      1  0.5612870000000  0.4953200000000  0.4528160000000 1.0
C      1  0.5574830000000  0.4537250000000  0.4914930000000 1.0
C      1  0.5653790000000  0.5015430000000  0.5060400000000 1.0
C      1  0.4385650000000  0.4991700000000  0.5074630000000 1.0
C      1  0.4966660000000  0.4859870000000  0.5245570000000 1.0
END
