TITL C-2441168-9922-629 0.0559848429822582 125000 -19234.4580765711 0 0 139 (C1) n - 1
REM
REM in /home/bkarasulu/work/CARBON/AIRSS/Generating-Clusters/ReaxFF-fromJPCA2015/Units_Real/with-SteepDescent/Higher-Symm
REM
REM
REM
REM
REM
REM ./C.cell (1df0a924f5614ab8850e4351716899ee)
REM
REM compiler GCC version 9.2.1 20190827 (Red Hat 9.2.1-1)
REM options -cpp -mtune=generic -march=x86-64 -g -O0 -fpre-include=/usr/include/finclude/math-vector-fortran.h
REM seed 1187396869 783621682 1656793389 -1871240222 -1813585371 1634227087 -1421257700 1323952944 2060108765 388473255 2110015684 -571783120 332767228 1035934459 -743384399 -775892869 -282150780 -111182940 598387539 1936775133 376701748 -1126104183 358845148 -371901744 383441397 1860314409 1998678444 -38318973 -1877077601 -388987892 -332888696 1342504172 -169287737
REM
CELL 1.54180   50.00000   50.00000   50.00000   90.00000   90.00000   90.00000
LATT -1
SFAC C  
C      1  0.5946390000000  0.5057090000000  0.5043790000000 1.0
C      1  0.3953590000000  0.5009670000000  0.4985030000000 1.0
C      1  0.5771470000000  0.4800250000000  0.5032090000000 1.0
C      1  0.4054870000000  0.4730030000000  0.4916480000000 1.0
C      1  0.5125260000000  0.4461900000000  0.4890810000000 1.0
C      1  0.4825770000000  0.4493370000000  0.4880070000000 1.0
C      1  0.5474960000000  0.5805920000000  0.4616220000000 1.0
C      1  0.4527340000000  0.5769150000000  0.4635000000000 1.0
C      1  0.4736680000000  0.4194010000000  0.5372040000000 1.0
C      1  0.5206150000000  0.4227660000000  0.5323560000000 1.0
C      1  0.4677850000000  0.5518740000000  0.5757940000000 1.0
C      1  0.5368980000000  0.5521270000000  0.5731400000000 1.0
C      1  0.4288770000000  0.4658960000000  0.4481780000000 1.0
C      1  0.5695600000000  0.4674110000000  0.4495090000000 1.0
C      1  0.5724100000000  0.4305040000000  0.4819910000000 1.0
C      1  0.4225080000000  0.4271730000000  0.4784980000000 1.0
C      1  0.6183790000000  0.4815790000000  0.5567210000000 1.0
C      1  0.4022700000000  0.4928880000000  0.5447020000000 1.0
C      1  0.5637150000000  0.4810570000000  0.4230450000000 1.0
C      1  0.4416190000000  0.4795030000000  0.4262900000000 1.0
C      1  0.5105970000000  0.4418060000000  0.4389010000000 1.0
C      1  0.4792470000000  0.4404150000000  0.4355970000000 1.0
C      1  0.4196470000000  0.4485060000000  0.4991850000000 1.0
C      1  0.5867190000000  0.4516620000000  0.4979480000000 1.0
C      1  0.4731550000000  0.5043420000000  0.5930790000000 1.0
C      1  0.5289640000000  0.5023480000000  0.5929030000000 1.0
C      1  0.5190090000000  0.4980020000000  0.3990230000000 1.0
C      1  0.4894620000000  0.4956390000000  0.4016780000000 1.0
C      1  0.5160220000000  0.4696950000000  0.4304380000000 1.0
C      1  0.4888600000000  0.4823820000000  0.4267580000000 1.0
C      1  0.5966190000000  0.5081430000000  0.4757560000000 1.0
C      1  0.3983690000000  0.5088430000000  0.4705120000000 1.0
C      1  0.5463890000000  0.5000420000000  0.4797520000000 1.0
C      1  0.4515760000000  0.5026200000000  0.4810830000000 1.0
C      1  0.4874830000000  0.5553600000000  0.5382920000000 1.0
C      1  0.5117400000000  0.5454020000000  0.5429470000000 1.0
C      1  0.5360540000000  0.5470900000000  0.4215920000000 1.0
C      1  0.4702500000000  0.5462090000000  0.4254260000000 1.0
C      1  0.5893650000000  0.5366250000000  0.4673250000000 1.0
C      1  0.4092870000000  0.5355910000000  0.4652530000000 1.0
C      1  0.4882470000000  0.5231740000000  0.4765290000000 1.0
C      1  0.5129860000000  0.5265880000000  0.4639630000000 1.0
C      1  0.4880650000000  0.5673240000000  0.4337210000000 1.0
C      1  0.5167880000000  0.5680870000000  0.4284000000000 1.0
C      1  0.5078530000000  0.4763070000000  0.5334460000000 1.0
C      1  0.4853840000000  0.4644900000000  0.5483170000000 1.0
C      1  0.5538610000000  0.4976350000000  0.5815850000000 1.0
C      1  0.4460680000000  0.5035710000000  0.5837690000000 1.0
C      1  0.4717570000000  0.5452800000000  0.4831820000000 1.0
C      1  0.5335280000000  0.5429870000000  0.4768760000000 1.0
C      1  0.5514930000000  0.5244510000000  0.4944450000000 1.0
C      1  0.4356240000000  0.5091300000000  0.5028320000000 1.0
C      1  0.5597350000000  0.5724620000000  0.5173930000000 1.0
C      1  0.4403600000000  0.5652980000000  0.5172270000000 1.0
C      1  0.4507970000000  0.4371860000000  0.5370400000000 1.0
C      1  0.5610600000000  0.4437670000000  0.5351840000000 1.0
C      1  0.5507930000000  0.5529600000000  0.4473070000000 1.0
C      1  0.4526650000000  0.5505800000000  0.4492230000000 1.0
C      1  0.4847120000000  0.4132980000000  0.4211080000000 1.0
C      1  0.5138430000000  0.4156820000000  0.4210850000000 1.0
C      1  0.5387680000000  0.5182010000000  0.5195330000000 1.0
C      1  0.4674990000000  0.5139810000000  0.5301900000000 1.0
C      1  0.5181550000000  0.4309790000000  0.5602670000000 1.0
C      1  0.4897200000000  0.4257300000000  0.5614110000000 1.0
C      1  0.4545850000000  0.5064370000000  0.4535450000000 1.0
C      1  0.5450910000000  0.5023190000000  0.4519210000000 1.0
C      1  0.5222460000000  0.4916320000000  0.4900050000000 1.0
C      1  0.4795250000000  0.4976630000000  0.4895080000000 1.0
C      1  0.5150370000000  0.4759530000000  0.5907430000000 1.0
C      1  0.4867950000000  0.4758740000000  0.5914460000000 1.0
C      1  0.5363530000000  0.4777060000000  0.4114730000000 1.0
C      1  0.4675970000000  0.4665320000000  0.4203590000000 1.0
C      1  0.5160160000000  0.5295270000000  0.5852960000000 1.0
C      1  0.4846360000000  0.5309260000000  0.5902860000000 1.0
C      1  0.5746010000000  0.5351390000000  0.4420230000000 1.0
C      1  0.4275990000000  0.5343060000000  0.4431020000000 1.0
C      1  0.5278620000000  0.4546820000000  0.5747700000000 1.0
C      1  0.4808550000000  0.4523140000000  0.5742490000000 1.0
C      1  0.5835490000000  0.4828890000000  0.4701260000000 1.0
C      1  0.4091450000000  0.4814500000000  0.4643830000000 1.0
C      1  0.4850900000000  0.4744920000000  0.4745090000000 1.0
C      1  0.5125950000000  0.4714840000000  0.4741500000000 1.0
C      1  0.5215480000000  0.5822980000000  0.4521140000000 1.0
C      1  0.4815180000000  0.5809120000000  0.4594500000000 1.0
C      1  0.5887540000000  0.5268220000000  0.5247330000000 1.0
C      1  0.4106020000000  0.5206870000000  0.5130120000000 1.0
C      1  0.4459060000000  0.5493530000000  0.5584330000000 1.0
C      1  0.5610320000000  0.5445000000000  0.5594560000000 1.0
C      1  0.4476400000000  0.4424070000000  0.5079800000000 1.0
C      1  0.5430140000000  0.4341560000000  0.5164730000000 1.0
C      1  0.4753660000000  0.5196580000000  0.4136450000000 1.0
C      1  0.5232950000000  0.5215690000000  0.4158480000000 1.0
C      1  0.4371550000000  0.5736800000000  0.4886350000000 1.0
C      1  0.5641260000000  0.5777570000000  0.4880430000000 1.0
C      1  0.4474260000000  0.4946700000000  0.5241050000000 1.0
C      1  0.5497060000000  0.4918310000000  0.5205480000000 1.0
C      1  0.5121900000000  0.4053050000000  0.5095790000000 1.0
C      1  0.4826640000000  0.4068720000000  0.5107810000000 1.0
C      1  0.4144350000000  0.5496630000000  0.5147070000000 1.0
C      1  0.5710800000000  0.5497230000000  0.5316450000000 1.0
C      1  0.5282710000000  0.5718210000000  0.5550690000000 1.0
C      1  0.4764150000000  0.5740800000000  0.5574740000000 1.0
C      1  0.4474160000000  0.4760420000000  0.5734090000000 1.0
C      1  0.5503790000000  0.4692280000000  0.5662250000000 1.0
C      1  0.5280150000000  0.4337990000000  0.4664870000000 1.0
C      1  0.4676220000000  0.4328000000000  0.4653450000000 1.0
C      1  0.4388710000000  0.4405850000000  0.4586740000000 1.0
C      1  0.5576280000000  0.4429890000000  0.4606770000000 1.0
C      1  0.5113810000000  0.5872890000000  0.5128130000000 1.0
C      1  0.4836530000000  0.5920690000000  0.5207940000000 1.0
C      1  0.4787510000000  0.5376960000000  0.5162300000000 1.0
C      1  0.5140320000000  0.5360570000000  0.5153970000000 1.0
C      1  0.5189690000000  0.5082960000000  0.4423520000000 1.0
C      1  0.4774960000000  0.5056140000000  0.4380390000000 1.0
C      1  0.4131040000000  0.5567080000000  0.4862120000000 1.0
C      1  0.5796050000000  0.5565040000000  0.4847370000000 1.0
C      1  0.4828350000000  0.5089960000000  0.5521480000000 1.0
C      1  0.5078110000000  0.5212580000000  0.5581420000000 1.0
C      1  0.5702000000000  0.5174600000000  0.5685090000000 1.0
C      1  0.4329170000000  0.5264380000000  0.5682760000000 1.0
C      1  0.5750300000000  0.4543350000000  0.5538030000000 1.0
C      1  0.4365030000000  0.4564920000000  0.5542170000000 1.0
C      1  0.4348870000000  0.5081690000000  0.4313360000000 1.0
C      1  0.5656180000000  0.5093110000000  0.4313890000000 1.0
C      1  0.4261280000000  0.4773450000000  0.5363450000000 1.0
C      1  0.5954210000000  0.4773610000000  0.5473240000000 1.0
C      1  0.5878860000000  0.5086000000000  0.5470790000000 1.0
C      1  0.4113750000000  0.5107450000000  0.5557180000000 1.0
C      1  0.5269060000000  0.4078820000000  0.4835760000000 1.0
C      1  0.4694740000000  0.4082260000000  0.4846510000000 1.0
C      1  0.4584100000000  0.5820830000000  0.5345080000000 1.0
C      1  0.5355060000000  0.5845620000000  0.5301830000000 1.0
C      1  0.5156070000000  0.5595790000000  0.4962270000000 1.0
C      1  0.4892230000000  0.5675770000000  0.4842760000000 1.0
C      1  0.4695900000000  0.4846710000000  0.5565360000000 1.0
C      1  0.5353450000000  0.4771560000000  0.5405290000000 1.0
C      1  0.5521460000000  0.4133320000000  0.4963080000000 1.0
C      1  0.4437370000000  0.4140700000000  0.4955440000000 1.0
C      1  0.5027950000000  0.4928640000000  0.5110980000000 1.0
END
