TITL C-2441169-1362-335 0.0666127353474686 125000 -16132.5153477271 0 0 118 (C1) n - 1
REM
REM in /home/bkarasulu/work/CARBON/AIRSS/Generating-Clusters/ReaxFF-fromJPCA2015/Units_Real/with-SteepDescent/Higher-Symm
REM
REM
REM
REM
REM
REM ./C.cell (1df0a924f5614ab8850e4351716899ee)
REM
REM compiler GCC version 9.2.1 20190827 (Red Hat 9.2.1-1)
REM options -cpp -mtune=generic -march=x86-64 -g -O0 -fpre-include=/usr/include/finclude/math-vector-fortran.h
REM seed -805353244 1846829359 316922649 459719674 803054598 -602402207 -1092004193 557090980 1629895539 -1112728275 260648396 162081191 378414599 1108370675 2123708573 1391281062 1440432431 1244704825 -2113043499 -912906688 -1350322138 1138855218 -523745006 -155526074 -1081274086 -190851058 -1132165229 -972143686 844821667 -1317426678 -1958779378 1094385226 -50377953
REM
CELL 1.54180   50.00000   50.00000   50.00000   90.00000   90.00000   90.00000
LATT -1
SFAC C  
C      1  0.4106150000000  0.4839790000000  0.4744920000000 1.0
C      1  0.5394330000000  0.5571230000000  0.5555420000000 1.0
C      1  0.5300840000000  0.5779010000000  0.5173840000000 1.0
C      1  0.5523960000000  0.5174500000000  0.5791710000000 1.0
C      1  0.4594880000000  0.5103560000000  0.5692340000000 1.0
C      1  0.4709520000000  0.4237540000000  0.4607630000000 1.0
C      1  0.4777570000000  0.5439350000000  0.4781840000000 1.0
C      1  0.5258840000000  0.4782640000000  0.4769580000000 1.0
C      1  0.5198830000000  0.5745370000000  0.5452370000000 1.0
C      1  0.4713760000000  0.4362590000000  0.5608160000000 1.0
C      1  0.4580840000000  0.4095340000000  0.4821200000000 1.0
C      1  0.4983000000000  0.5361990000000  0.4970890000000 1.0
C      1  0.5441610000000  0.5081520000000  0.5129090000000 1.0
C      1  0.5142890000000  0.4389010000000  0.4446420000000 1.0
C      1  0.4848030000000  0.5679040000000  0.4635780000000 1.0
C      1  0.4313140000000  0.5095550000000  0.5625840000000 1.0
C      1  0.5014570000000  0.4606640000000  0.4323080000000 1.0
C      1  0.5296400000000  0.4832350000000  0.5656520000000 1.0
C      1  0.5122360000000  0.5842750000000  0.4946080000000 1.0
C      1  0.4904730000000  0.5062010000000  0.4872360000000 1.0
C      1  0.4444060000000  0.5578180000000  0.5444150000000 1.0
C      1  0.4217610000000  0.5224130000000  0.5201150000000 1.0
C      1  0.4915150000000  0.4698210000000  0.5476370000000 1.0
C      1  0.5666250000000  0.4664410000000  0.5608590000000 1.0
C      1  0.5953930000000  0.4944130000000  0.4938230000000 1.0
C      1  0.5513570000000  0.4402840000000  0.5560060000000 1.0
C      1  0.4777920000000  0.5407440000000  0.4148530000000 1.0
C      1  0.5575660000000  0.4364940000000  0.4715580000000 1.0
C      1  0.4992540000000  0.4198290000000  0.4602040000000 1.0
C      1  0.5658380000000  0.5240320000000  0.4484150000000 1.0
C      1  0.4228160000000  0.4827750000000  0.5532810000000 1.0
C      1  0.4539870000000  0.4451200000000  0.5374710000000 1.0
C      1  0.4587260000000  0.4445570000000  0.4449860000000 1.0
C      1  0.5145440000000  0.5161620000000  0.4490540000000 1.0
C      1  0.5682540000000  0.4567440000000  0.5146620000000 1.0
C      1  0.5402610000000  0.4754010000000  0.5028750000000 1.0
C      1  0.4817900000000  0.4863660000000  0.5265220000000 1.0
C      1  0.5765910000000  0.4813200000000  0.4735760000000 1.0
C      1  0.4787190000000  0.5265140000000  0.5872940000000 1.0
C      1  0.4434440000000  0.5736830000000  0.4692760000000 1.0
C      1  0.4853250000000  0.5389840000000  0.5228970000000 1.0
C      1  0.5566080000000  0.4343810000000  0.5289090000000 1.0
C      1  0.4678030000000  0.4861590000000  0.5851410000000 1.0
C      1  0.5023950000000  0.5705380000000  0.4402610000000 1.0
C      1  0.5674970000000  0.5480000000000  0.5375770000000 1.0
C      1  0.5192350000000  0.4556580000000  0.5110490000000 1.0
C      1  0.5952930000000  0.5178960000000  0.4793460000000 1.0
C      1  0.5819650000000  0.5395550000000  0.4687210000000 1.0
C      1  0.4751420000000  0.5167410000000  0.5390760000000 1.0
C      1  0.5096520000000  0.5010080000000  0.5747030000000 1.0
C      1  0.4966190000000  0.4245940000000  0.5508920000000 1.0
C      1  0.4724040000000  0.5185610000000  0.4347590000000 1.0
C      1  0.5029580000000  0.4638060000000  0.4877960000000 1.0
C      1  0.5024940000000  0.5143400000000  0.5514700000000 1.0
C      1  0.5242510000000  0.4984450000000  0.4099690000000 1.0
C      1  0.4570360000000  0.4969110000000  0.4240700000000 1.0
C      1  0.5248870000000  0.5247750000000  0.4226490000000 1.0
C      1  0.4791830000000  0.4622400000000  0.5726700000000 1.0
C      1  0.5542620000000  0.4869000000000  0.5781530000000 1.0
C      1  0.5650760000000  0.4937790000000  0.4496820000000 1.0
C      1  0.4623000000000  0.5776660000000  0.4475700000000 1.0
C      1  0.4235870000000  0.5508970000000  0.4703230000000 1.0
C      1  0.5006340000000  0.5443490000000  0.5784190000000 1.0
C      1  0.5235300000000  0.4758200000000  0.4252660000000 1.0
C      1  0.5311500000000  0.5244830000000  0.4900150000000 1.0
C      1  0.5195930000000  0.5136040000000  0.5289590000000 1.0
C      1  0.5794140000000  0.4749770000000  0.5362150000000 1.0
C      1  0.4565850000000  0.5807170000000  0.4946520000000 1.0
C      1  0.5030260000000  0.4979580000000  0.5118610000000 1.0
C      1  0.4842930000000  0.5863110000000  0.5013480000000 1.0
C      1  0.4782440000000  0.5684150000000  0.4235850000000 1.0
C      1  0.4343760000000  0.4448820000000  0.4948910000000 1.0
C      1  0.5158380000000  0.4077180000000  0.4808400000000 1.0
C      1  0.5741930000000  0.4551190000000  0.4852960000000 1.0
C      1  0.5424640000000  0.4459720000000  0.4493940000000 1.0
C      1  0.5699480000000  0.5217380000000  0.5196200000000 1.0
C      1  0.4622700000000  0.4977710000000  0.4898140000000 1.0
C      1  0.4296800000000  0.4839950000000  0.4532890000000 1.0
C      1  0.5278050000000  0.5716200000000  0.4728120000000 1.0
C      1  0.5475390000000  0.4725440000000  0.4397700000000 1.0
C      1  0.4393430000000  0.4602330000000  0.5530860000000 1.0
C      1  0.4712130000000  0.4672880000000  0.4300420000000 1.0
C      1  0.5685070000000  0.5279550000000  0.5590470000000 1.0
C      1  0.4286510000000  0.5330880000000  0.5459840000000 1.0
C      1  0.5294660000000  0.5052370000000  0.4696540000000 1.0
C      1  0.4883990000000  0.4155610000000  0.5238020000000 1.0
C      1  0.4375390000000  0.4181400000000  0.4994650000000 1.0
C      1  0.4682940000000  0.5717270000000  0.5527570000000 1.0
C      1  0.4904790000000  0.5089160000000  0.4557050000000 1.0
C      1  0.5687680000000  0.5595920000000  0.4880140000000 1.0
C      1  0.5010360000000  0.5310970000000  0.4003390000000 1.0
C      1  0.4564540000000  0.4532190000000  0.5075180000000 1.0
C      1  0.4771400000000  0.5675430000000  0.5252540000000 1.0
C      1  0.5421970000000  0.4175660000000  0.4853340000000 1.0
C      1  0.4116480000000  0.4589690000000  0.4892730000000 1.0
C      1  0.5190840000000  0.4630830000000  0.5452810000000 1.0
C      1  0.4636170000000  0.4080160000000  0.5100450000000 1.0
C      1  0.4480240000000  0.5650100000000  0.5173460000000 1.0
C      1  0.5114210000000  0.4062420000000  0.5094190000000 1.0
C      1  0.5305130000000  0.5391390000000  0.5754240000000 1.0
C      1  0.4739910000000  0.4714200000000  0.4945540000000 1.0
C      1  0.4559520000000  0.5242650000000  0.4830620000000 1.0
C      1  0.4309780000000  0.5064580000000  0.4343060000000 1.0
C      1  0.5301170000000  0.5641460000000  0.4452600000000 1.0
C      1  0.5224280000000  0.4364910000000  0.5591880000000 1.0
C      1  0.4955160000000  0.5667950000000  0.5613370000000 1.0
C      1  0.4288260000000  0.5311250000000  0.4924550000000 1.0
C      1  0.4538800000000  0.4696310000000  0.4537070000000 1.0
C      1  0.5880380000000  0.4991790000000  0.5228190000000 1.0
C      1  0.4898280000000  0.5014600000000  0.5961600000000 1.0
C      1  0.4077230000000  0.4818560000000  0.5029490000000 1.0
C      1  0.4199140000000  0.4942220000000  0.5256080000000 1.0
C      1  0.5040740000000  0.5048500000000  0.3924580000000 1.0
C      1  0.4258640000000  0.5305230000000  0.4504360000000 1.0
C      1  0.5352360000000  0.4248290000000  0.5119180000000 1.0
C      1  0.5430360000000  0.5486160000000  0.4804190000000 1.0
C      1  0.5461980000000  0.5413460000000  0.4356340000000 1.0
C      1  0.5567880000000  0.5662290000000  0.5138210000000 1.0
END
