TITL C-2441165-58-687 0.156302379792396 125000 -20277.5249337003 0 0 163 (C1) n - 1
REM
REM in /home/bkarasulu/work/CARBON/AIRSS/Generating-Clusters/ReaxFF-fromJPCA2015/Units_Real/with-SteepDescent/Higher-Symm
REM
REM
REM
REM
REM
REM ./C.cell (1df0a924f5614ab8850e4351716899ee)
REM
REM compiler GCC version 9.2.1 20190827 (Red Hat 9.2.1-1)
REM options -cpp -mtune=generic -march=x86-64 -g -O0 -fpre-include=/usr/include/finclude/math-vector-fortran.h
REM seed -1153413923 947342693 1505385687 -1083873915 1998046078 -71786204 -1419442118 1762409981 1290488799 1334370407 1762399507 -162876493 23483095 18831130 -1248910888 1486701434 1745420074 -82891775 -2062240751 -1625127791 261791983 -1085176944 1262354547 1919326288 -394424822 -698978561 1338225500 -1366021967 1181339930 -931497227 1511894532 1696512590 -1310937477
REM
CELL 1.54180   50.00000   50.00000   50.00000   90.00000   90.00000   90.00000
LATT -1
SFAC C  
C      1  0.4863830000000  0.5043660000000  0.4229190000000 1.0
C      1  0.4914320000000  0.4626270000000  0.5549360000000 1.0
C      1  0.5388440000000  0.5454160000000  0.5011920000000 1.0
C      1  0.5659480000000  0.4155300000000  0.5133550000000 1.0
C      1  0.5444980000000  0.5623640000000  0.4215280000000 1.0
C      1  0.4976780000000  0.5291260000000  0.5165960000000 1.0
C      1  0.5132370000000  0.4490140000000  0.5425100000000 1.0
C      1  0.5411740000000  0.5597990000000  0.5673910000000 1.0
C      1  0.5775790000000  0.5453010000000  0.5425620000000 1.0
C      1  0.5417020000000  0.5124470000000  0.4619680000000 1.0
C      1  0.4855300000000  0.5810900000000  0.5398900000000 1.0
C      1  0.4723880000000  0.4733480000000  0.5400370000000 1.0
C      1  0.5592030000000  0.5194910000000  0.4214000000000 1.0
C      1  0.4969660000000  0.4876970000000  0.4017420000000 1.0
C      1  0.5791420000000  0.5302270000000  0.4441460000000 1.0
C      1  0.5324610000000  0.5632900000000  0.5225350000000 1.0
C      1  0.5430520000000  0.4345760000000  0.4459120000000 1.0
C      1  0.5566560000000  0.4227300000000  0.5407790000000 1.0
C      1  0.5076070000000  0.5371090000000  0.4056230000000 1.0
C      1  0.4379380000000  0.4628320000000  0.5663430000000 1.0
C      1  0.4871710000000  0.5025450000000  0.5124070000000 1.0
C      1  0.4636300000000  0.4762340000000  0.4635930000000 1.0
C      1  0.4364510000000  0.4335990000000  0.4704730000000 1.0
C      1  0.5015210000000  0.6008740000000  0.5049220000000 1.0
C      1  0.4266540000000  0.5041840000000  0.4719560000000 1.0
C      1  0.4396760000000  0.4754300000000  0.4466440000000 1.0
C      1  0.4371840000000  0.4605500000000  0.4211610000000 1.0
C      1  0.5057330000000  0.5257500000000  0.5951220000000 1.0
C      1  0.5055090000000  0.4917930000000  0.4658880000000 1.0
C      1  0.5245830000000  0.5499270000000  0.5462150000000 1.0
C      1  0.5744090000000  0.5499050000000  0.4823910000000 1.0
C      1  0.5241300000000  0.4976960000000  0.4434760000000 1.0
C      1  0.5922730000000  0.4816600000000  0.5072040000000 1.0
C      1  0.5684260000000  0.4769490000000  0.4407490000000 1.0
C      1  0.4638310000000  0.5070320000000  0.4988380000000 1.0
C      1  0.5080970000000  0.4007970000000  0.5413590000000 1.0
C      1  0.5669390000000  0.5776320000000  0.4809030000000 1.0
C      1  0.4641640000000  0.5325750000000  0.5462810000000 1.0
C      1  0.4263170000000  0.4602600000000  0.4662760000000 1.0
C      1  0.5793750000000  0.5208710000000  0.5590070000000 1.0
C      1  0.5514920000000  0.4180800000000  0.4853630000000 1.0
C      1  0.5689770000000  0.4500050000000  0.5387280000000 1.0
C      1  0.4087560000000  0.5035740000000  0.5495500000000 1.0
C      1  0.4402880000000  0.4116620000000  0.5129280000000 1.0
C      1  0.5645620000000  0.4804920000000  0.5788650000000 1.0
C      1  0.5608630000000  0.5097390000000  0.5796480000000 1.0
C      1  0.5806190000000  0.4388680000000  0.5072720000000 1.0
C      1  0.4658480000000  0.5983840000000  0.4940390000000 1.0
C      1  0.5028360000000  0.4791700000000  0.5090940000000 1.0
C      1  0.4851300000000  0.4960740000000  0.5369230000000 1.0
C      1  0.5398650000000  0.4451000000000  0.4954520000000 1.0
C      1  0.5180050000000  0.4352120000000  0.5128540000000 1.0
C      1  0.5343420000000  0.6004240000000  0.5057900000000 1.0
C      1  0.4415710000000  0.5026950000000  0.5160870000000 1.0
C      1  0.5601020000000  0.5273430000000  0.4945770000000 1.0
C      1  0.4667010000000  0.5292370000000  0.4821930000000 1.0
C      1  0.5851560000000  0.5686560000000  0.5009430000000 1.0
C      1  0.4675090000000  0.4634050000000  0.4889110000000 1.0
C      1  0.4552940000000  0.5682870000000  0.4498290000000 1.0
C      1  0.4812760000000  0.5251210000000  0.4053030000000 1.0
C      1  0.5423320000000  0.4651110000000  0.5437040000000 1.0
C      1  0.4497270000000  0.4886860000000  0.5647240000000 1.0
C      1  0.5155410000000  0.5666860000000  0.5826570000000 1.0
C      1  0.5134870000000  0.4513330000000  0.5877970000000 1.0
C      1  0.4442840000000  0.4855280000000  0.4081030000000 1.0
C      1  0.5289890000000  0.4536630000000  0.4127300000000 1.0
C      1  0.4984270000000  0.5589250000000  0.4228790000000 1.0
C      1  0.5214500000000  0.5095930000000  0.4835390000000 1.0
C      1  0.5934660000000  0.4982590000000  0.5474560000000 1.0
C      1  0.5621140000000  0.5697340000000  0.5491580000000 1.0
C      1  0.4586290000000  0.4454660000000  0.5753800000000 1.0
C      1  0.5407370000000  0.5902890000000  0.4795600000000 1.0
C      1  0.4313150000000  0.5485770000000  0.5731930000000 1.0
C      1  0.4789170000000  0.4502850000000  0.4168490000000 1.0
C      1  0.4749470000000  0.4319140000000  0.5192570000000 1.0
C      1  0.5480090000000  0.4723750000000  0.4944290000000 1.0
C      1  0.4172720000000  0.5335860000000  0.4426450000000 1.0
C      1  0.5213070000000  0.4526990000000  0.4538580000000 1.0
C      1  0.5320260000000  0.4131010000000  0.5541720000000 1.0
C      1  0.5647920000000  0.4939130000000  0.5069720000000 1.0
C      1  0.4311290000000  0.5462530000000  0.5077010000000 1.0
C      1  0.6002900000000  0.5236390000000  0.4989700000000 1.0
C      1  0.4855110000000  0.4169770000000  0.4543560000000 1.0
C      1  0.5054140000000  0.5990180000000  0.5327020000000 1.0
C      1  0.4165020000000  0.5439400000000  0.4705860000000 1.0
C      1  0.5099160000000  0.4655630000000  0.4718670000000 1.0
C      1  0.5129630000000  0.5349370000000  0.4958060000000 1.0
C      1  0.4847890000000  0.4612540000000  0.5840650000000 1.0
C      1  0.4090280000000  0.4784350000000  0.5338210000000 1.0
C      1  0.5292040000000  0.4819820000000  0.3989780000000 1.0
C      1  0.5663590000000  0.4508330000000  0.4535190000000 1.0
C      1  0.4168250000000  0.5203620000000  0.5089690000000 1.0
C      1  0.5919340000000  0.5182450000000  0.4671820000000 1.0
C      1  0.4571570000000  0.4243420000000  0.4522910000000 1.0
C      1  0.5333310000000  0.5190620000000  0.5814150000000 1.0
C      1  0.4771870000000  0.5660230000000  0.5165110000000 1.0
C      1  0.5241780000000  0.4702000000000  0.4356220000000 1.0
C      1  0.5374590000000  0.5365010000000  0.4105420000000 1.0
C      1  0.4124020000000  0.5560420000000  0.5274790000000 1.0
C      1  0.5264370000000  0.4105190000000  0.4532290000000 1.0
C      1  0.4674280000000  0.4107880000000  0.5014210000000 1.0
C      1  0.4966340000000  0.5711570000000  0.4960260000000 1.0
C      1  0.4033650000000  0.5194040000000  0.4788790000000 1.0
C      1  0.4551760000000  0.4387940000000  0.4275780000000 1.0
C      1  0.5044310000000  0.4089040000000  0.4737870000000 1.0
C      1  0.4024790000000  0.4765240000000  0.5055000000000 1.0
C      1  0.4364270000000  0.4263320000000  0.5379610000000 1.0
C      1  0.5263950000000  0.4909860000000  0.5052210000000 1.0
C      1  0.4577820000000  0.4224480000000  0.5580180000000 1.0
C      1  0.4219910000000  0.4257530000000  0.4943920000000 1.0
C      1  0.5300920000000  0.5064500000000  0.5321150000000 1.0
C      1  0.4713660000000  0.4729450000000  0.4011570000000 1.0
C      1  0.5146360000000  0.4052730000000  0.5132450000000 1.0
C      1  0.4984320000000  0.5353030000000  0.5444820000000 1.0
C      1  0.4310610000000  0.5790890000000  0.5318520000000 1.0
C      1  0.5085710000000  0.5457340000000  0.4568900000000 1.0
C      1  0.4556230000000  0.5819810000000  0.4741040000000 1.0
C      1  0.5196410000000  0.5871140000000  0.4579960000000 1.0
C      1  0.5469630000000  0.5876780000000  0.5296490000000 1.0
C      1  0.5873430000000  0.4913060000000  0.4594270000000 1.0
C      1  0.4923440000000  0.3973220000000  0.4968670000000 1.0
C      1  0.5522100000000  0.4916110000000  0.5338410000000 1.0
C      1  0.4735160000000  0.5474580000000  0.4379140000000 1.0
C      1  0.5821530000000  0.4732690000000  0.5575580000000 1.0
C      1  0.5969670000000  0.4722290000000  0.4803260000000 1.0
C      1  0.4042420000000  0.5288400000000  0.5353260000000 1.0
C      1  0.4345960000000  0.5541320000000  0.4335430000000 1.0
C      1  0.4433320000000  0.5715910000000  0.5578230000000 1.0
C      1  0.4258500000000  0.5012440000000  0.5742310000000 1.0
C      1  0.4296460000000  0.4556010000000  0.5384060000000 1.0
C      1  0.4508040000000  0.5329180000000  0.4167530000000 1.0
C      1  0.4796500000000  0.4987720000000  0.4514470000000 1.0
C      1  0.4367800000000  0.5083630000000  0.4248330000000 1.0
C      1  0.4032570000000  0.4471990000000  0.5042330000000 1.0
C      1  0.6055690000000  0.5034860000000  0.5197600000000 1.0
C      1  0.5549320000000  0.4911150000000  0.4181510000000 1.0
C      1  0.5367400000000  0.4670970000000  0.5769660000000 1.0
C      1  0.5820540000000  0.4479320000000  0.4793440000000 1.0
C      1  0.5208920000000  0.5768110000000  0.4308310000000 1.0
C      1  0.4970440000000  0.4561940000000  0.4938750000000 1.0
C      1  0.4805730000000  0.4924780000000  0.5962990000000 1.0
C      1  0.5208830000000  0.4924820000000  0.5779450000000 1.0
C      1  0.4258450000000  0.4798250000000  0.4865810000000 1.0
C      1  0.4572690000000  0.5462140000000  0.5217760000000 1.0
C      1  0.4878530000000  0.5578190000000  0.5830280000000 1.0
C      1  0.4439090000000  0.5239460000000  0.5824900000000 1.0
C      1  0.5071450000000  0.4982930000000  0.6059720000000 1.0
C      1  0.4596160000000  0.4576730000000  0.5166730000000 1.0
C      1  0.5081640000000  0.5048510000000  0.5507380000000 1.0
C      1  0.4836340000000  0.5287630000000  0.4585250000000 1.0
C      1  0.4496720000000  0.5080580000000  0.5433580000000 1.0
C      1  0.4979340000000  0.5706400000000  0.4672140000000 1.0
C      1  0.4711190000000  0.5734100000000  0.5653210000000 1.0
C      1  0.5374710000000  0.5407400000000  0.4571390000000 1.0
C      1  0.5048560000000  0.4379550000000  0.4152210000000 1.0
C      1  0.4433280000000  0.5926710000000  0.5097760000000 1.0
C      1  0.5925620000000  0.5457450000000  0.5169340000000 1.0
C      1  0.4814160000000  0.4144150000000  0.5418370000000 1.0
C      1  0.5609700000000  0.5534910000000  0.4446310000000 1.0
C      1  0.5053140000000  0.4155600000000  0.4333940000000 1.0
C      1  0.4409760000000  0.5276610000000  0.4732570000000 1.0
C      1  0.5139840000000  0.4313630000000  0.5679320000000 1.0
C      1  0.4766280000000  0.5187790000000  0.5849770000000 1.0
END
