TITL C-2441168-9922-557 0.00672737315796367 125000 -9009.47717207972 0 0 62 (C1) n - 1
REM
REM in /home/bkarasulu/work/CARBON/AIRSS/Generating-Clusters/ReaxFF-fromJPCA2015/Units_Real/with-SteepDescent/Higher-Symm
REM
REM
REM
REM
REM
REM ./C.cell (1df0a924f5614ab8850e4351716899ee)
REM
REM compiler GCC version 9.2.1 20190827 (Red Hat 9.2.1-1)
REM options -cpp -mtune=generic -march=x86-64 -g -O0 -fpre-include=/usr/include/finclude/math-vector-fortran.h
REM seed -2080071724 1746791326 465335701 -357843741 -158409026 914647234 1542380580 1966846393 829948694 -15074332 561815469 510163489 -9190072 -1490172513 -1602436922 67995213 -706901811 1490762255 -1127670412 -357891023 -1556928739 9473166 -1016784522 -1111205425 -1034654251 -661073187 -445398177 760129343 -1173605322 -1896335344 894628257 -1877561543 -1503051728
REM
CELL 1.54180   50.00000   50.00000   50.00000   90.00000   90.00000   90.00000
LATT -1
SFAC C  
C      1  0.5360350000000  0.4783080000000  0.4386680000000 1.0
C      1  0.5360740000000  0.4579530000000  0.5504730000000 1.0
C      1  0.5361240000000  0.5652330000000  0.5120030000000 1.0
C      1  0.4616050000000  0.4783080000000  0.4386630000000 1.0
C      1  0.4615610000000  0.4579490000000  0.5504740000000 1.0
C      1  0.4615220000000  0.5652250000000  0.5120120000000 1.0
C      1  0.5142350000000  0.4405320000000  0.5405940000000 1.0
C      1  0.5142460000000  0.5658100000000  0.5319620000000 1.0
C      1  0.5142400000000  0.4955890000000  0.4284740000000 1.0
C      1  0.4834030000000  0.4405330000000  0.5405930000000 1.0
C      1  0.4834000000000  0.5658220000000  0.5319610000000 1.0
C      1  0.4834020000000  0.4955860000000  0.4284730000000 1.0
C      1  0.5569440000000  0.5424460000000  0.4838370000000 1.0
C      1  0.5569230000000  0.4651080000000  0.4723750000000 1.0
C      1  0.5568190000000  0.4938530000000  0.5451340000000 1.0
C      1  0.4406940000000  0.5424330000000  0.4838370000000 1.0
C      1  0.4407130000000  0.4651070000000  0.4723740000000 1.0
C      1  0.4408240000000  0.4938500000000  0.5451400000000 1.0
C      1  0.5569740000000  0.4733750000000  0.5025330000000 1.0
C      1  0.5569990000000  0.5158280000000  0.5229090000000 1.0
C      1  0.5570230000000  0.5121970000000  0.4759350000000 1.0
C      1  0.4406650000000  0.4733790000000  0.5025330000000 1.0
C      1  0.4406410000000  0.5158340000000  0.5229040000000 1.0
C      1  0.4406030000000  0.5121990000000  0.4759290000000 1.0
C      1  0.4841600000000  0.4445990000000  0.5117290000000 1.0
C      1  0.4841930000000  0.5387280000000  0.5427130000000 1.0
C      1  0.4841630000000  0.5186140000000  0.4463270000000 1.0
C      1  0.5134810000000  0.4445910000000  0.5117280000000 1.0
C      1  0.5134350000000  0.5387230000000  0.5427100000000 1.0
C      1  0.5134690000000  0.5186220000000  0.4463350000000 1.0
C      1  0.4839800000000  0.4918420000000  0.5273910000000 1.0
C      1  0.4839660000000  0.5280270000000  0.4945070000000 1.0
C      1  0.4839800000000  0.4816470000000  0.4794980000000 1.0
C      1  0.5136540000000  0.4918390000000  0.5273890000000 1.0
C      1  0.5136810000000  0.5280390000000  0.4945090000000 1.0
C      1  0.5136590000000  0.4816390000000  0.4794980000000 1.0
C      1  0.4390140000000  0.4673860000000  0.5341640000000 1.0
C      1  0.4390660000000  0.5462700000000  0.5122420000000 1.0
C      1  0.4390250000000  0.4878110000000  0.4548860000000 1.0
C      1  0.5586240000000  0.4673830000000  0.5341670000000 1.0
C      1  0.5585910000000  0.5462750000000  0.5122520000000 1.0
C      1  0.5586110000000  0.4878200000000  0.4548920000000 1.0
C      1  0.4683910000000  0.4877370000000  0.5556720000000 1.0
C      1  0.4683020000000  0.5545190000000  0.4836710000000 1.0
C      1  0.4683020000000  0.4589530000000  0.4619830000000 1.0
C      1  0.5292390000000  0.4877460000000  0.5556460000000 1.0
C      1  0.5293750000000  0.5545870000000  0.4836410000000 1.0
C      1  0.5293350000000  0.4589640000000  0.4619890000000 1.0
C      1  0.5239030000000  0.5189530000000  0.5219650000000 1.0
C      1  0.5239050000000  0.5099720000000  0.4736980000000 1.0
C      1  0.5238780000000  0.4726150000000  0.5055980000000 1.0
C      1  0.4737220000000  0.5189470000000  0.5219820000000 1.0
C      1  0.4737250000000  0.5099650000000  0.4736810000000 1.0
C      1  0.4737640000000  0.4726260000000  0.5056030000000 1.0
C      1  0.5124900000000  0.4311060000000  0.4667310000000 1.0
C      1  0.5124680000000  0.5046390000000  0.5784430000000 1.0
C      1  0.5124970000000  0.5643340000000  0.4571880000000 1.0
C      1  0.4851550000000  0.4310960000000  0.4667250000000 1.0
C      1  0.4851760000000  0.5046310000000  0.5784620000000 1.0
C      1  0.4851370000000  0.5643460000000  0.4572120000000 1.0
C      1  0.4342200000000  0.5004680000000  0.5004670000000 1.0
C      1  0.5634170000000  0.5004650000000  0.5004690000000 1.0
END
