TITL C-2441160-1326-587 0.0660506946226173 125000 -19261.8251042412 0 0 137 (C1) n - 1
REM
REM in /home/bkarasulu/work/CARBON/AIRSS/Generating-Clusters/ReaxFF-fromJPCA2015/Units_Real/with-SteepDescent/Higher-Symm
REM
REM
REM
REM
REM
REM ./C.cell (1df0a924f5614ab8850e4351716899ee)
REM
REM compiler GCC version 9.2.1 20190827 (Red Hat 9.2.1-1)
REM options -cpp -mtune=generic -march=x86-64 -g -O0 -fpre-include=/usr/include/finclude/math-vector-fortran.h
REM seed 1813894326 1723551386 155054765 -59676732 -383038548 -1130477469 -936643232 1444736229 -1062885602 -1602878476 -778204038 850868285 -897604092 109721223 1155255053 -552391775 -2136563647 -767527281 1380978346 -1964491809 -1466317708 1997492821 811378427 1455744019 -1998663348 1965835835 -1236293205 -2096592236 2068708174 -513662228 1275137049 -1201334777 -762695696
REM
CELL 1.54180   50.00000   50.00000   50.00000   90.00000   90.00000   90.00000
LATT -1
SFAC C  
C      1  0.5337710000000  0.5186180000000  0.4667320000000 1.0
C      1  0.4795140000000  0.5210740000000  0.4614490000000 1.0
C      1  0.4605390000000  0.5191820000000  0.5058010000000 1.0
C      1  0.4900070000000  0.5215270000000  0.5433770000000 1.0
C      1  0.5414990000000  0.5137570000000  0.5189240000000 1.0
C      1  0.5752840000000  0.5589810000000  0.4614440000000 1.0
C      1  0.4895570000000  0.5609640000000  0.4199020000000 1.0
C      1  0.4194240000000  0.5560650000000  0.4855880000000 1.0
C      1  0.4630270000000  0.5588080000000  0.5728290000000 1.0
C      1  0.5579940000000  0.5574360000000  0.5560250000000 1.0
C      1  0.5138620000000  0.4463360000000  0.5186930000000 1.0
C      1  0.5234320000000  0.4427750000000  0.4908280000000 1.0
C      1  0.4994600000000  0.4440730000000  0.4748120000000 1.0
C      1  0.4759170000000  0.4451800000000  0.4916430000000 1.0
C      1  0.4841070000000  0.4458920000000  0.5203230000000 1.0
C      1  0.4568170000000  0.4222990000000  0.4762650000000 1.0
C      1  0.4649250000000  0.4228740000000  0.5333040000000 1.0
C      1  0.5213660000000  0.4240810000000  0.5431290000000 1.0
C      1  0.5485770000000  0.4225210000000  0.4927990000000 1.0
C      1  0.5086770000000  0.4232830000000  0.4518000000000 1.0
C      1  0.5171280000000  0.4604230000000  0.4068060000000 1.0
C      1  0.4168480000000  0.4598600000000  0.4543290000000 1.0
C      1  0.4294360000000  0.4604830000000  0.5643690000000 1.0
C      1  0.5403640000000  0.4598530000000  0.5846870000000 1.0
C      1  0.5948270000000  0.4601450000000  0.4893480000000 1.0
C      1  0.5555390000000  0.4794090000000  0.4846220000000 1.0
C      1  0.5018040000000  0.4818100000000  0.4445570000000 1.0
C      1  0.4490360000000  0.4804780000000  0.4791540000000 1.0
C      1  0.4608830000000  0.4809610000000  0.5433020000000 1.0
C      1  0.5275890000000  0.4818480000000  0.5442710000000 1.0
C      1  0.5201280000000  0.5882850000000  0.5415350000000 1.0
C      1  0.5414280000000  0.5856490000000  0.4882340000000 1.0
C      1  0.5110720000000  0.5849750000000  0.4590180000000 1.0
C      1  0.4584990000000  0.5854980000000  0.4795940000000 1.0
C      1  0.4666960000000  0.5868870000000  0.5330110000000 1.0
C      1  0.4813890000000  0.5200900000000  0.5716480000000 1.0
C      1  0.5727310000000  0.5202600000000  0.5451890000000 1.0
C      1  0.5588440000000  0.5191580000000  0.4530880000000 1.0
C      1  0.4730620000000  0.5226710000000  0.4315930000000 1.0
C      1  0.4150200000000  0.5202330000000  0.5124060000000 1.0
C      1  0.4898270000000  0.5025890000000  0.3997580000000 1.0
C      1  0.4032260000000  0.5033510000000  0.4765920000000 1.0
C      1  0.4482340000000  0.5013710000000  0.5868760000000 1.0
C      1  0.5632270000000  0.4998230000000  0.5750810000000 1.0
C      1  0.5943890000000  0.5003000000000  0.4586790000000 1.0
C      1  0.5116810000000  0.4544650000000  0.5853270000000 1.0
C      1  0.5837460000000  0.4569370000000  0.5162680000000 1.0
C      1  0.5409960000000  0.4550430000000  0.4236000000000 1.0
C      1  0.4404040000000  0.4548910000000  0.4372090000000 1.0
C      1  0.4216190000000  0.4543870000000  0.5367190000000 1.0
C      1  0.5124710000000  0.5729290000000  0.4321000000000 1.0
C      1  0.4370120000000  0.5706930000000  0.4677060000000 1.0
C      1  0.4498530000000  0.5715150000000  0.5505920000000 1.0
C      1  0.5332930000000  0.5723980000000  0.5621500000000 1.0
C      1  0.5676100000000  0.5726500000000  0.4853450000000 1.0
C      1  0.4714680000000  0.4724580000000  0.4916060000000 1.0
C      1  0.4808930000000  0.4719130000000  0.5299070000000 1.0
C      1  0.5193980000000  0.4745990000000  0.5184450000000 1.0
C      1  0.5314400000000  0.4667890000000  0.4778100000000 1.0
C      1  0.5054180000000  0.4718920000000  0.4720370000000 1.0
C      1  0.5012850000000  0.4817820000000  0.5916170000000 1.0
C      1  0.5848420000000  0.4854850000000  0.5261680000000 1.0
C      1  0.5531570000000  0.4820860000000  0.4240980000000 1.0
C      1  0.4445710000000  0.4819400000000  0.4256990000000 1.0
C      1  0.4122670000000  0.4817830000000  0.5292570000000 1.0
C      1  0.5603190000000  0.5641360000000  0.5290390000000 1.0
C      1  0.5533880000000  0.5656000000000  0.4450660000000 1.0
C      1  0.4694380000000  0.5659870000000  0.4387550000000 1.0
C      1  0.4293570000000  0.5638200000000  0.5112600000000 1.0
C      1  0.4901190000000  0.5663930000000  0.5691990000000 1.0
C      1  0.5151690000000  0.4881480000000  0.3973430000000 1.0
C      1  0.4075360000000  0.4876630000000  0.4523280000000 1.0
C      1  0.4261800000000  0.4884980000000  0.5725010000000 1.0
C      1  0.5455120000000  0.4879100000000  0.5929430000000 1.0
C      1  0.6031460000000  0.4878770000000  0.4834040000000 1.0
C      1  0.5023100000000  0.4349100000000  0.5654490000000 1.0
C      1  0.5636070000000  0.4362970000000  0.5180860000000 1.0
C      1  0.5376670000000  0.4347540000000  0.4444660000000 1.0
C      1  0.4589450000000  0.4347700000000  0.4475540000000 1.0
C      1  0.4373250000000  0.4344630000000  0.5223150000000 1.0
C      1  0.5337860000000  0.5704430000000  0.4665090000000 1.0
C      1  0.4822690000000  0.5760480000000  0.4656390000000 1.0
C      1  0.4557050000000  0.5780580000000  0.5072700000000 1.0
C      1  0.4922210000000  0.5833590000000  0.5452090000000 1.0
C      1  0.5331730000000  0.5772300000000  0.5177250000000 1.0
C      1  0.4343160000000  0.4337250000000  0.4938950000000 1.0
C      1  0.4743890000000  0.4345140000000  0.5597800000000 1.0
C      1  0.5492080000000  0.4368890000000  0.5425410000000 1.0
C      1  0.5573540000000  0.4334150000000  0.4652450000000 1.0
C      1  0.4849910000000  0.4349580000000  0.4358660000000 1.0
C      1  0.4759960000000  0.4925560000000  0.5803620000000 1.0
C      1  0.5623200000000  0.5005420000000  0.5323390000000 1.0
C      1  0.5688040000000  0.4936730000000  0.4460470000000 1.0
C      1  0.4694990000000  0.4963690000000  0.4201140000000 1.0
C      1  0.4171460000000  0.4946450000000  0.5025160000000 1.0
C      1  0.4435500000000  0.5542150000000  0.4443430000000 1.0
C      1  0.4309980000000  0.5533140000000  0.5376790000000 1.0
C      1  0.5154910000000  0.5535900000000  0.5750830000000 1.0
C      1  0.5764100000000  0.5544860000000  0.5071660000000 1.0
C      1  0.5344350000000  0.5542590000000  0.4265500000000 1.0
C      1  0.4942450000000  0.4602620000000  0.4246520000000 1.0
C      1  0.4276700000000  0.4591160000000  0.4810990000000 1.0
C      1  0.4586480000000  0.4593550000000  0.5643080000000 1.0
C      1  0.5478910000000  0.4630360000000  0.5566440000000 1.0
C      1  0.5721460000000  0.4579040000000  0.4716130000000 1.0
C      1  0.4255300000000  0.5023130000000  0.4347300000000 1.0
C      1  0.4153510000000  0.5030270000000  0.5493500000000 1.0
C      1  0.5205000000000  0.5034980000000  0.5920370000000 1.0
C      1  0.5970800000000  0.5042290000000  0.5069220000000 1.0
C      1  0.5374280000000  0.5027730000000  0.4098430000000 1.0
C      1  0.5438810000000  0.5048460000000  0.4919040000000 1.0
C      1  0.5056360000000  0.5090000000000  0.4527100000000 1.0
C      1  0.4582010000000  0.5075720000000  0.4809500000000 1.0
C      1  0.4594860000000  0.5091390000000  0.5339530000000 1.0
C      1  0.5212950000000  0.5109660000000  0.5431370000000 1.0
C      1  0.5296140000000  0.5440490000000  0.4757400000000 1.0
C      1  0.4848570000000  0.5472690000000  0.4805190000000 1.0
C      1  0.4717740000000  0.5458010000000  0.5055410000000 1.0
C      1  0.4896800000000  0.5478270000000  0.5284730000000 1.0
C      1  0.5151720000000  0.5530790000000  0.5170950000000 1.0
C      1  0.5864550000000  0.5290830000000  0.4973940000000 1.0
C      1  0.5261160000000  0.5288620000000  0.4161700000000 1.0
C      1  0.4280500000000  0.5293040000000  0.4462110000000 1.0
C      1  0.4362790000000  0.5255420000000  0.5481250000000 1.0
C      1  0.5264000000000  0.5254210000000  0.5721630000000 1.0
C      1  0.5111100000000  0.4037580000000  0.5217540000000 1.0
C      1  0.5247710000000  0.4030520000000  0.4961800000000 1.0
C      1  0.5046320000000  0.4029430000000  0.4752980000000 1.0
C      1  0.4784510000000  0.4028480000000  0.4876800000000 1.0
C      1  0.4827760000000  0.4033750000000  0.5162860000000 1.0
C      1  0.5830720000000  0.5292850000000  0.4668480000000 1.0
C      1  0.4957940000000  0.5310380000000  0.4110220000000 1.0
C      1  0.4133730000000  0.5304900000000  0.4715460000000 1.0
C      1  0.4529450000000  0.5301320000000  0.5766040000000 1.0
C      1  0.5608890000000  0.5280000000000  0.5701330000000 1.0
C      1  0.5100460000000  0.5408340000000  0.4928600000000 1.0
C      1  0.4940570000000  0.4856990000000  0.5063640000000 1.0
END
