TITL C-2441168-9922-844 0.116944621159122 125000 -25821.6705670128 0 0 188 (C1) n - 1
REM
REM in /home/bkarasulu/work/CARBON/AIRSS/Generating-Clusters/ReaxFF-fromJPCA2015/Units_Real/with-SteepDescent/Higher-Symm
REM
REM
REM
REM
REM
REM ./C.cell (1df0a924f5614ab8850e4351716899ee)
REM
REM compiler GCC version 9.2.1 20190827 (Red Hat 9.2.1-1)
REM options -cpp -mtune=generic -march=x86-64 -g -O0 -fpre-include=/usr/include/finclude/math-vector-fortran.h
REM seed -496416408 107923378 1911061700 -108189527 2065327693 925909815 -295999427 -1393189621 843971472 -1369955837 1985133600 -1537480374 -1356165518 1757378685 1007553563 2079335652 474408267 1362619794 2027640986 1835419231 1382692541 241812496 663849589 1184773175 1468290236 -1920974834 -967707276 1661242564 -566775679 1784941025 1703654329 -325759638 -1856962659
REM
CELL 1.54180   50.00000   50.00000   50.00000   90.00000   90.00000   90.00000
LATT -1
SFAC C  
C      1  0.5293380000000  0.5278090000000  0.5198090000000 1.0
C      1  0.5242980000000  0.4604270000000  0.5198300000000 1.0
C      1  0.5224820000000  0.5037160000000  0.4540270000000 1.0
C      1  0.4697620000000  0.4683690000000  0.5299870000000 1.0
C      1  0.4766220000000  0.5356980000000  0.5160240000000 1.0
C      1  0.4742500000000  0.4908690000000  0.4578390000000 1.0
C      1  0.4647470000000  0.4768520000000  0.4817660000000 1.0
C      1  0.4739310000000  0.5396590000000  0.4827200000000 1.0
C      1  0.4763930000000  0.4929730000000  0.5455900000000 1.0
C      1  0.5146070000000  0.5305490000000  0.4696730000000 1.0
C      1  0.5165360000000  0.4630080000000  0.4870410000000 1.0
C      1  0.5185950000000  0.5090570000000  0.5419140000000 1.0
C      1  0.4763070000000  0.3884510000000  0.4870810000000 1.0
C      1  0.4783340000000  0.5760620000000  0.4108480000000 1.0
C      1  0.4674950000000  0.5530790000000  0.5921430000000 1.0
C      1  0.5270090000000  0.6031260000000  0.4885640000000 1.0
C      1  0.5353160000000  0.4442120000000  0.4122240000000 1.0
C      1  0.5322520000000  0.4499060000000  0.5916800000000 1.0
C      1  0.5190360000000  0.6122600000000  0.5160620000000 1.0
C      1  0.5209770000000  0.4233640000000  0.5865100000000 1.0
C      1  0.5246800000000  0.4640290000000  0.3939600000000 1.0
C      1  0.4780140000000  0.3879970000000  0.5166730000000 1.0
C      1  0.4770850000000  0.5802350000000  0.5862650000000 1.0
C      1  0.4680760000000  0.5486820000000  0.4069370000000 1.0
C      1  0.4386970000000  0.4647550000000  0.4887830000000 1.0
C      1  0.4219600000000  0.5286330000000  0.4753950000000 1.0
C      1  0.4287250000000  0.5082100000000  0.5449120000000 1.0
C      1  0.5642210000000  0.5311400000000  0.4868700000000 1.0
C      1  0.5696070000000  0.4749390000000  0.4753770000000 1.0
C      1  0.5686530000000  0.4953800000000  0.5370870000000 1.0
C      1  0.5589460000000  0.5234380000000  0.5158650000000 1.0
C      1  0.5736170000000  0.4724720000000  0.5236270000000 1.0
C      1  0.5673250000000  0.5013440000000  0.4677550000000 1.0
C      1  0.4365240000000  0.4650650000000  0.5181590000000 1.0
C      1  0.4295110000000  0.5236710000000  0.5241320000000 1.0
C      1  0.4213580000000  0.5108040000000  0.4552620000000 1.0
C      1  0.5521940000000  0.4139500000000  0.5522520000000 1.0
C      1  0.5651570000000  0.4924590000000  0.3958430000000 1.0
C      1  0.5520560000000  0.5889950000000  0.5434900000000 1.0
C      1  0.4439820000000  0.5860480000000  0.5509770000000 1.0
C      1  0.4458630000000  0.4969870000000  0.3819460000000 1.0
C      1  0.4410530000000  0.3992470000000  0.5592070000000 1.0
C      1  0.4460010000000  0.5852200000000  0.4440520000000 1.0
C      1  0.4441640000000  0.4914610000000  0.6218340000000 1.0
C      1  0.4375220000000  0.4092890000000  0.4521830000000 1.0
C      1  0.5532780000000  0.3944510000000  0.4451110000000 1.0
C      1  0.5515040000000  0.5050770000000  0.6183560000000 1.0
C      1  0.5608360000000  0.5915670000000  0.4433450000000 1.0
C      1  0.5558200000000  0.4888540000000  0.5638360000000 1.0
C      1  0.5574640000000  0.4538590000000  0.4600630000000 1.0
C      1  0.5541850000000  0.5564570000000  0.4761840000000 1.0
C      1  0.4428660000000  0.5128880000000  0.5685940000000 1.0
C      1  0.4413360000000  0.5483260000000  0.4707960000000 1.0
C      1  0.4406370000000  0.4369110000000  0.4843390000000 1.0
C      1  0.4391420000000  0.5105900000000  0.4336760000000 1.0
C      1  0.4479830000000  0.5435820000000  0.5263210000000 1.0
C      1  0.4383530000000  0.4370400000000  0.5239970000000 1.0
C      1  0.5526220000000  0.5011410000000  0.4436500000000 1.0
C      1  0.5574000000000  0.4515520000000  0.5273810000000 1.0
C      1  0.5637790000000  0.5504560000000  0.5260630000000 1.0
C      1  0.4852790000000  0.3985470000000  0.5664420000000 1.0
C      1  0.4941320000000  0.4902510000000  0.3698110000000 1.0
C      1  0.4851090000000  0.6137520000000  0.5535750000000 1.0
C      1  0.5107270000000  0.6069390000000  0.5648520000000 1.0
C      1  0.5153650000000  0.5080760000000  0.3766250000000 1.0
C      1  0.5099080000000  0.3891960000000  0.5555180000000 1.0
C      1  0.5144130000000  0.6039640000000  0.4299180000000 1.0
C      1  0.5076080000000  0.5076460000000  0.6274640000000 1.0
C      1  0.5048240000000  0.3850890000000  0.4457650000000 1.0
C      1  0.4809240000000  0.3997250000000  0.4386170000000 1.0
C      1  0.4832760000000  0.4956720000000  0.6255610000000 1.0
C      1  0.4912920000000  0.6088350000000  0.4459670000000 1.0
C      1  0.5014770000000  0.6053060000000  0.4730090000000 1.0
C      1  0.5128790000000  0.4680040000000  0.6030320000000 1.0
C      1  0.5179380000000  0.4213230000000  0.4173610000000 1.0
C      1  0.5027780000000  0.3881700000000  0.4748860000000 1.0
C      1  0.4885210000000  0.5375790000000  0.6058410000000 1.0
C      1  0.5064870000000  0.5807080000000  0.4138200000000 1.0
C      1  0.5047660000000  0.3885210000000  0.5269970000000 1.0
C      1  0.4874710000000  0.5320460000000  0.3933950000000 1.0
C      1  0.5052140000000  0.5851950000000  0.5827890000000 1.0
C      1  0.4919310000000  0.6114480000000  0.5254710000000 1.0
C      1  0.4968930000000  0.4648490000000  0.3851950000000 1.0
C      1  0.4930540000000  0.4208280000000  0.5828510000000 1.0
C      1  0.5350670000000  0.4914640000000  0.3892900000000 1.0
C      1  0.5298650000000  0.6069800000000  0.5423650000000 1.0
C      1  0.5319030000000  0.4040740000000  0.5682060000000 1.0
C      1  0.4737070000000  0.5095120000000  0.3795960000000 1.0
C      1  0.4665240000000  0.3973520000000  0.5429100000000 1.0
C      1  0.4643550000000  0.5983160000000  0.5675320000000 1.0
C      1  0.4715350000000  0.5162960000000  0.6127010000000 1.0
C      1  0.4627330000000  0.3977100000000  0.4621810000000 1.0
C      1  0.4693000000000  0.5949690000000  0.4311900000000 1.0
C      1  0.5254590000000  0.4871160000000  0.6218340000000 1.0
C      1  0.5351490000000  0.6018870000000  0.4502260000000 1.0
C      1  0.5267470000000  0.3967140000000  0.4299270000000 1.0
C      1  0.4883120000000  0.5638060000000  0.4734840000000 1.0
C      1  0.4896040000000  0.4945470000000  0.5703960000000 1.0
C      1  0.4976760000000  0.4484140000000  0.4463270000000 1.0
C      1  0.5083220000000  0.4408150000000  0.4708900000000 1.0
C      1  0.5047780000000  0.5202970000000  0.5672340000000 1.0
C      1  0.5073950000000  0.5545050000000  0.4554230000000 1.0
C      1  0.5083560000000  0.4362410000000  0.5287510000000 1.0
C      1  0.5055940000000  0.5032420000000  0.4306290000000 1.0
C      1  0.5026460000000  0.5503370000000  0.5511150000000 1.0
C      1  0.4911220000000  0.5588020000000  0.5287160000000 1.0
C      1  0.4912320000000  0.4771700000000  0.4321980000000 1.0
C      1  0.4853030000000  0.4448530000000  0.5423220000000 1.0
C      1  0.4201100000000  0.4226230000000  0.4737910000000 1.0
C      1  0.4403370000000  0.5572180000000  0.4430650000000 1.0
C      1  0.4469210000000  0.5411320000000  0.5745310000000 1.0
C      1  0.5466520000000  0.5802040000000  0.4911120000000 1.0
C      1  0.5562550000000  0.4534520000000  0.4308300000000 1.0
C      1  0.5525640000000  0.4614560000000  0.5736490000000 1.0
C      1  0.5592260000000  0.5771220000000  0.5170690000000 1.0
C      1  0.5592180000000  0.4410140000000  0.5548530000000 1.0
C      1  0.5645860000000  0.4800280000000  0.4226560000000 1.0
C      1  0.4321160000000  0.4197190000000  0.5029320000000 1.0
C      1  0.4378340000000  0.5574270000000  0.5523390000000 1.0
C      1  0.4479850000000  0.5366580000000  0.4246320000000 1.0
C      1  0.5497120000000  0.4078880000000  0.5248420000000 1.0
C      1  0.5429690000000  0.5334880000000  0.4109960000000 1.0
C      1  0.5500410000000  0.5703980000000  0.5650650000000 1.0
C      1  0.4523820000000  0.5908700000000  0.5239450000000 1.0
C      1  0.4501360000000  0.4739020000000  0.3999880000000 1.0
C      1  0.4504240000000  0.4253370000000  0.5710180000000 1.0
C      1  0.4491030000000  0.5973750000000  0.4730960000000 1.0
C      1  0.4555970000000  0.4754710000000  0.6011340000000 1.0
C      1  0.4510580000000  0.4263960000000  0.4331710000000 1.0
C      1  0.5478310000000  0.4062280000000  0.4714940000000 1.0
C      1  0.5447650000000  0.5249670000000  0.5981280000000 1.0
C      1  0.5461650000000  0.5577790000000  0.4243490000000 1.0
C      1  0.4033610000000  0.5662720000000  0.4940780000000 1.0
C      1  0.4112080000000  0.4765160000000  0.5697060000000 1.0
C      1  0.4176940000000  0.4463460000000  0.4474020000000 1.0
C      1  0.5945570000000  0.4415490000000  0.4810940000000 1.0
C      1  0.5918540000000  0.5200650000000  0.5687330000000 1.0
C      1  0.5936120000000  0.5451040000000  0.4514250000000 1.0
C      1  0.5947810000000  0.4351990000000  0.5090040000000 1.0
C      1  0.5911940000000  0.5214480000000  0.4360730000000 1.0
C      1  0.5960460000000  0.5416150000000  0.5498390000000 1.0
C      1  0.4098000000000  0.5651670000000  0.5226840000000 1.0
C      1  0.4074420000000  0.4710190000000  0.4366290000000 1.0
C      1  0.4086510000000  0.4535040000000  0.5521770000000 1.0
C      1  0.4078250000000  0.4770800000000  0.4833170000000 1.0
C      1  0.3993170000000  0.5369860000000  0.4920430000000 1.0
C      1  0.4056350000000  0.4937810000000  0.5473980000000 1.0
C      1  0.5962420000000  0.5305790000000  0.4784510000000 1.0
C      1  0.5970830000000  0.4718010000000  0.4851720000000 1.0
C      1  0.5970640000000  0.5004310000000  0.5478600000000 1.0
C      1  0.6063560000000  0.5204580000000  0.5291010000000 1.0
C      1  0.5984050000000  0.4638970000000  0.5144630000000 1.0
C      1  0.5961770000000  0.5051120000000  0.4607120000000 1.0
C      1  0.4079630000000  0.4715200000000  0.5285460000000 1.0
C      1  0.4033870000000  0.5363440000000  0.5216270000000 1.0
C      1  0.4009410000000  0.4901150000000  0.4579010000000 1.0
C      1  0.5682010000000  0.5511880000000  0.5541920000000 1.0
C      1  0.5661530000000  0.4276090000000  0.5117790000000 1.0
C      1  0.5635640000000  0.5201420000000  0.4259190000000 1.0
C      1  0.4336680000000  0.4392780000000  0.5520750000000 1.0
C      1  0.4380620000000  0.5699600000000  0.5125650000000 1.0
C      1  0.4345810000000  0.4825000000000  0.4247330000000 1.0
C      1  0.4444580000000  0.4534430000000  0.4401050000000 1.0
C      1  0.4308220000000  0.5719440000000  0.4838710000000 1.0
C      1  0.4368380000000  0.4870700000000  0.5808680000000 1.0
C      1  0.5661500000000  0.5595290000000  0.4482320000000 1.0
C      1  0.5658250000000  0.4305180000000  0.4765410000000 1.0
C      1  0.5630360000000  0.5129370000000  0.5777000000000 1.0
C      1  0.5198170000000  0.4113590000000  0.4824320000000 1.0
C      1  0.5171060000000  0.5591140000000  0.4284510000000 1.0
C      1  0.5160890000000  0.5354260000000  0.5904430000000 1.0
C      1  0.4802950000000  0.5892180000000  0.4845180000000 1.0
C      1  0.4902890000000  0.4268330000000  0.4275340000000 1.0
C      1  0.4866970000000  0.4709640000000  0.5883190000000 1.0
C      1  0.4795210000000  0.5878710000000  0.5154260000000 1.0
C      1  0.4788280000000  0.4419990000000  0.5720420000000 1.0
C      1  0.4779550000000  0.4671420000000  0.4067700000000 1.0
C      1  0.5212680000000  0.4102730000000  0.5160220000000 1.0
C      1  0.5210660000000  0.5621070000000  0.5739580000000 1.0
C      1  0.5121830000000  0.5247070000000  0.4111320000000 1.0
C      1  0.5203360000000  0.4854120000000  0.5329730000000 1.0
C      1  0.4752840000000  0.5148080000000  0.4687490000000 1.0
C      1  0.5210270000000  0.5293270000000  0.4954060000000 1.0
C      1  0.4813150000000  0.5067540000000  0.5212850000000 1.0
C      1  0.4786150000000  0.4832630000000  0.5056590000000 1.0
C      1  0.5192920000000  0.4818200000000  0.4718900000000 1.0
C      1  0.3968610000000  0.4964050000000  0.4989960000000 1.0
C      1  0.6052950000000  0.5100740000000  0.5007710000000 1.0
END
