TITL C-2441162-9305-973 0.0731476821529301 125000 -26743.6005746273 0 0 191 (C1) n - 1
REM
REM in /home/bkarasulu/work/CARBON/AIRSS/Generating-Clusters/ReaxFF-fromJPCA2015/Units_Real/with-SteepDescent/Higher-Symm
REM
REM
REM
REM
REM
REM ./C.cell (1df0a924f5614ab8850e4351716899ee)
REM
REM compiler GCC version 9.2.1 20190827 (Red Hat 9.2.1-1)
REM options -cpp -mtune=generic -march=x86-64 -g -O0 -fpre-include=/usr/include/finclude/math-vector-fortran.h
REM seed -2054354831 956616084 -1153624259 -1288204180 -1399041829 -2021758487 -1893630025 -1551650583 1839805778 508297610 -1484646673 1629927055 -1326417404 1527455289 -1203529835 1631468564 -1231279503 1208613233 117373166 1219608398 -2067047494 -347305916 -147944792 1798214203 619897285 1785688775 -198183905 1286314271 304104281 -1723540698 -1046975400 1765722530 1539616500
REM
CELL 1.54180   50.00000   50.00000   50.00000   90.00000   90.00000   90.00000
LATT -1
SFAC C  
C      1  0.4681000000000  0.4808550000000  0.4130510000000 1.0
C      1  0.5469870000000  0.5294830000000  0.4026580000000 1.0
C      1  0.3990730000000  0.5344570000000  0.4910730000000 1.0
C      1  0.4369260000000  0.4253620000000  0.5552440000000 1.0
C      1  0.4841490000000  0.4653340000000  0.5081530000000 1.0
C      1  0.4936860000000  0.5435840000000  0.5266420000000 1.0
C      1  0.4015070000000  0.4626890000000  0.4978390000000 1.0
C      1  0.5562430000000  0.4637270000000  0.5130900000000 1.0
C      1  0.4553030000000  0.4015780000000  0.5273200000000 1.0
C      1  0.6070560000000  0.5072890000000  0.4383560000000 1.0
C      1  0.4992760000000  0.5621070000000  0.4405930000000 1.0
C      1  0.4505540000000  0.5264510000000  0.6048940000000 1.0
C      1  0.5388500000000  0.4665800000000  0.3973360000000 1.0
C      1  0.4558010000000  0.3947530000000  0.4749240000000 1.0
C      1  0.5627300000000  0.5719680000000  0.5371510000000 1.0
C      1  0.5148500000000  0.5378950000000  0.4856480000000 1.0
C      1  0.5976120000000  0.5406190000000  0.5291830000000 1.0
C      1  0.5370520000000  0.5837130000000  0.5350400000000 1.0
C      1  0.5935820000000  0.4474940000000  0.4775290000000 1.0
C      1  0.4602170000000  0.6056250000000  0.4844190000000 1.0
C      1  0.4301820000000  0.5871650000000  0.5479640000000 1.0
C      1  0.4704640000000  0.4134080000000  0.4279620000000 1.0
C      1  0.5005220000000  0.4999020000000  0.3903240000000 1.0
C      1  0.5565050000000  0.5140440000000  0.5357940000000 1.0
C      1  0.5436000000000  0.5929480000000  0.4440450000000 1.0
C      1  0.6016250000000  0.4821760000000  0.4540080000000 1.0
C      1  0.5563110000000  0.4911610000000  0.5880180000000 1.0
C      1  0.6003150000000  0.4847090000000  0.5301980000000 1.0
C      1  0.5954630000000  0.5320130000000  0.4516420000000 1.0
C      1  0.5974550000000  0.5364320000000  0.4812300000000 1.0
C      1  0.4517240000000  0.5090970000000  0.4849250000000 1.0
C      1  0.5107160000000  0.4714530000000  0.3887150000000 1.0
C      1  0.4784720000000  0.4944740000000  0.5988440000000 1.0
C      1  0.4564050000000  0.5030730000000  0.5866270000000 1.0
C      1  0.5363560000000  0.5297510000000  0.5521940000000 1.0
C      1  0.5250080000000  0.5600920000000  0.5933120000000 1.0
C      1  0.4501670000000  0.4582730000000  0.4085300000000 1.0
C      1  0.4016670000000  0.4603740000000  0.5478380000000 1.0
C      1  0.3917530000000  0.4858160000000  0.5360290000000 1.0
C      1  0.5320400000000  0.6028990000000  0.5140300000000 1.0
C      1  0.4354210000000  0.5799480000000  0.5188890000000 1.0
C      1  0.5112400000000  0.4010280000000  0.5213230000000 1.0
C      1  0.5195890000000  0.4710570000000  0.4613240000000 1.0
C      1  0.5898230000000  0.4998300000000  0.4180490000000 1.0
C      1  0.6046910000000  0.4757420000000  0.4821390000000 1.0
C      1  0.5027890000000  0.5253710000000  0.5691910000000 1.0
C      1  0.4617900000000  0.4600170000000  0.5569810000000 1.0
C      1  0.5453190000000  0.4851540000000  0.4188890000000 1.0
C      1  0.4230710000000  0.4549610000000  0.5670380000000 1.0
C      1  0.5909300000000  0.4543120000000  0.4489180000000 1.0
C      1  0.5438250000000  0.4942210000000  0.5194280000000 1.0
C      1  0.5540480000000  0.5538060000000  0.5576790000000 1.0
C      1  0.5485760000000  0.4184140000000  0.4934400000000 1.0
C      1  0.4162610000000  0.4277290000000  0.4619260000000 1.0
C      1  0.5555370000000  0.5543210000000  0.4126360000000 1.0
C      1  0.4944230000000  0.4470500000000  0.3950590000000 1.0
C      1  0.5484980000000  0.6020030000000  0.4903710000000 1.0
C      1  0.4582470000000  0.5606890000000  0.5170750000000 1.0
C      1  0.4321020000000  0.4230930000000  0.4998450000000 1.0
C      1  0.5146380000000  0.4023030000000  0.5497390000000 1.0
C      1  0.5631840000000  0.4499300000000  0.4397400000000 1.0
C      1  0.4794480000000  0.5384840000000  0.4546170000000 1.0
C      1  0.4975270000000  0.5164830000000  0.6003920000000 1.0
C      1  0.4927870000000  0.5870370000000  0.4518050000000 1.0
C      1  0.4079360000000  0.4700400000000  0.4460190000000 1.0
C      1  0.5154740000000  0.4743350000000  0.6082250000000 1.0
C      1  0.5788720000000  0.4261330000000  0.4918370000000 1.0
C      1  0.4829360000000  0.5701680000000  0.5282410000000 1.0
C      1  0.5867310000000  0.4601970000000  0.5236520000000 1.0
C      1  0.4364260000000  0.5043880000000  0.4362360000000 1.0
C      1  0.4682050000000  0.5620690000000  0.5721230000000 1.0
C      1  0.4987830000000  0.4941640000000  0.5030810000000 1.0
C      1  0.5255490000000  0.5539070000000  0.4500330000000 1.0
C      1  0.5209470000000  0.4176070000000  0.4467300000000 1.0
C      1  0.5821220000000  0.4182490000000  0.5200370000000 1.0
C      1  0.4617990000000  0.5585720000000  0.4128140000000 1.0
C      1  0.4037360000000  0.4533850000000  0.4701030000000 1.0
C      1  0.4899210000000  0.5640880000000  0.4109480000000 1.0
C      1  0.5212800000000  0.5027930000000  0.6130110000000 1.0
C      1  0.4813220000000  0.4450770000000  0.4868370000000 1.0
C      1  0.3862760000000  0.5105040000000  0.4967030000000 1.0
C      1  0.5890850000000  0.4382780000000  0.5421540000000 1.0
C      1  0.5391390000000  0.5732910000000  0.4650420000000 1.0
C      1  0.4665720000000  0.3919830000000  0.5022330000000 1.0
C      1  0.5288760000000  0.4266830000000  0.4217390000000 1.0
C      1  0.5164460000000  0.4940740000000  0.5277370000000 1.0
C      1  0.5776830000000  0.5651430000000  0.4589400000000 1.0
C      1  0.5687400000000  0.5206260000000  0.4445100000000 1.0
C      1  0.5539870000000  0.5172890000000  0.4690830000000 1.0
C      1  0.5635970000000  0.5751160000000  0.4827540000000 1.0
C      1  0.5460070000000  0.5143270000000  0.6037530000000 1.0
C      1  0.5505320000000  0.5422920000000  0.5965250000000 1.0
C      1  0.5323030000000  0.5440360000000  0.5064010000000 1.0
C      1  0.4517440000000  0.5451150000000  0.4530750000000 1.0
C      1  0.4447940000000  0.4565740000000  0.5321400000000 1.0
C      1  0.4478450000000  0.5716500000000  0.4413040000000 1.0
C      1  0.4705740000000  0.5035600000000  0.5399470000000 1.0
C      1  0.4530290000000  0.4740710000000  0.5127870000000 1.0
C      1  0.4171440000000  0.5727030000000  0.4467000000000 1.0
C      1  0.5255560000000  0.6122040000000  0.4750830000000 1.0
C      1  0.3832860000000  0.4846430000000  0.5069930000000 1.0
C      1  0.5365760000000  0.4719460000000  0.5890430000000 1.0
C      1  0.5508610000000  0.4446500000000  0.4128330000000 1.0
C      1  0.4942110000000  0.3886150000000  0.5014620000000 1.0
C      1  0.5142200000000  0.5874520000000  0.5927130000000 1.0
C      1  0.6083810000000  0.4952810000000  0.5050270000000 1.0
C      1  0.5168320000000  0.6025950000000  0.4497820000000 1.0
C      1  0.5045810000000  0.5543330000000  0.5701840000000 1.0
C      1  0.4986340000000  0.4512160000000  0.5292150000000 1.0
C      1  0.4871260000000  0.5415320000000  0.4824150000000 1.0
C      1  0.4636880000000  0.4360180000000  0.4447920000000 1.0
C      1  0.5085770000000  0.6103150000000  0.4983940000000 1.0
C      1  0.4758180000000  0.5355040000000  0.6141780000000 1.0
C      1  0.4303480000000  0.4154610000000  0.5283890000000 1.0
C      1  0.4245180000000  0.4581980000000  0.4237980000000 1.0
C      1  0.4036130000000  0.5244380000000  0.4626390000000 1.0
C      1  0.4453800000000  0.4675900000000  0.4862520000000 1.0
C      1  0.4525980000000  0.4402890000000  0.4863800000000 1.0
C      1  0.4636030000000  0.4127750000000  0.5527110000000 1.0
C      1  0.5214430000000  0.5428020000000  0.5309810000000 1.0
C      1  0.4300520000000  0.4816310000000  0.5775300000000 1.0
C      1  0.5184020000000  0.5239570000000  0.3920810000000 1.0
C      1  0.5026260000000  0.5978610000000  0.5661350000000 1.0
C      1  0.4572140000000  0.4883880000000  0.4707940000000 1.0
C      1  0.4551270000000  0.5430450000000  0.5526980000000 1.0
C      1  0.4109330000000  0.5340270000000  0.5348160000000 1.0
C      1  0.5599800000000  0.5376050000000  0.5108120000000 1.0
C      1  0.5224030000000  0.4856190000000  0.4357170000000 1.0
C      1  0.5556790000000  0.4065890000000  0.5214890000000 1.0
C      1  0.5110240000000  0.5102410000000  0.4422680000000 1.0
C      1  0.5227850000000  0.4102310000000  0.4721500000000 1.0
C      1  0.5784340000000  0.5600210000000  0.5165600000000 1.0
C      1  0.4207350000000  0.5449020000000  0.5095640000000 1.0
C      1  0.5445580000000  0.4951910000000  0.4883340000000 1.0
C      1  0.5272700000000  0.5278850000000  0.4607440000000 1.0
C      1  0.4565560000000  0.5887360000000  0.5614300000000 1.0
C      1  0.4950040000000  0.4551390000000  0.4647170000000 1.0
C      1  0.4970980000000  0.5414020000000  0.3961580000000 1.0
C      1  0.4805780000000  0.5943180000000  0.5452220000000 1.0
C      1  0.4874070000000  0.4262500000000  0.5878810000000 1.0
C      1  0.4136460000000  0.5046930000000  0.5324410000000 1.0
C      1  0.4985000000000  0.3952490000000  0.4732980000000 1.0
C      1  0.4665070000000  0.5600310000000  0.4877720000000 1.0
C      1  0.5847260000000  0.5018390000000  0.5511350000000 1.0
C      1  0.5422340000000  0.4125270000000  0.5471630000000 1.0
C      1  0.5644750000000  0.5737000000000  0.4345190000000 1.0
C      1  0.4445020000000  0.5241680000000  0.5060620000000 1.0
C      1  0.5513360000000  0.4369860000000  0.5608160000000 1.0
C      1  0.5119840000000  0.4387380000000  0.5866490000000 1.0
C      1  0.5182670000000  0.4901870000000  0.4821640000000 1.0
C      1  0.5591370000000  0.4714880000000  0.4847720000000 1.0
C      1  0.4633380000000  0.4941070000000  0.4393550000000 1.0
C      1  0.4557200000000  0.6028500000000  0.5129300000000 1.0
C      1  0.5737550000000  0.5443240000000  0.5766240000000 1.0
C      1  0.4839900000000  0.5176390000000  0.5175450000000 1.0
C      1  0.5148050000000  0.4306110000000  0.5181500000000 1.0
C      1  0.5639510000000  0.5076440000000  0.4182030000000 1.0
C      1  0.4572960000000  0.5313820000000  0.4059280000000 1.0
C      1  0.5371490000000  0.4418830000000  0.5064610000000 1.0
C      1  0.4689550000000  0.4354460000000  0.4050700000000 1.0
C      1  0.4722600000000  0.4500780000000  0.5840130000000 1.0
C      1  0.4160970000000  0.4550630000000  0.5230240000000 1.0
C      1  0.4725960000000  0.5061190000000  0.3982790000000 1.0
C      1  0.5068550000000  0.4472440000000  0.4217280000000 1.0
C      1  0.5289070000000  0.4545270000000  0.5687120000000 1.0
C      1  0.5165800000000  0.5764430000000  0.5532900000000 1.0
C      1  0.4594190000000  0.5541060000000  0.5999700000000 1.0
C      1  0.5082890000000  0.4720980000000  0.5455610000000 1.0
C      1  0.4842760000000  0.4551630000000  0.4395110000000 1.0
C      1  0.4818900000000  0.4801430000000  0.5521300000000 1.0
C      1  0.5914840000000  0.5312280000000  0.5565590000000 1.0
C      1  0.5762980000000  0.4806920000000  0.5709090000000 1.0
C      1  0.5701650000000  0.5296840000000  0.4872100000000 1.0
C      1  0.4368340000000  0.5308110000000  0.4320210000000 1.0
C      1  0.6084190000000  0.5247810000000  0.5066060000000 1.0
C      1  0.4801420000000  0.6136380000000  0.5013720000000 1.0
C      1  0.5483460000000  0.4578300000000  0.4625350000000 1.0
C      1  0.4730240000000  0.5206020000000  0.5629160000000 1.0
C      1  0.5753000000000  0.4517680000000  0.5642600000000 1.0
C      1  0.4902610000000  0.4111980000000  0.5644850000000 1.0
C      1  0.4179260000000  0.5079080000000  0.5741310000000 1.0
C      1  0.4866870000000  0.4694700000000  0.6001190000000 1.0
C      1  0.4348020000000  0.4391920000000  0.4421810000000 1.0
C      1  0.4751790000000  0.3982830000000  0.4533920000000 1.0
C      1  0.4847250000000  0.5133950000000  0.4433200000000 1.0
C      1  0.4098390000000  0.5448180000000  0.4427240000000 1.0
C      1  0.4419650000000  0.4999040000000  0.5248780000000 1.0
C      1  0.4673240000000  0.5843040000000  0.4668010000000 1.0
C      1  0.4283070000000  0.4055110000000  0.4769100000000 1.0
C      1  0.4137670000000  0.4978850000000  0.4518800000000 1.0
C      1  0.4275700000000  0.5334360000000  0.5588350000000 1.0
END
