TITL C-2441168-9922-133 0.128613826925705 125000 -24730.1567706763 0 0 187 (C1) n - 1
REM
REM in /home/bkarasulu/work/CARBON/AIRSS/Generating-Clusters/ReaxFF-fromJPCA2015/Units_Real/with-SteepDescent/Higher-Symm
REM
REM
REM
REM
REM
REM ./C.cell (1df0a924f5614ab8850e4351716899ee)
REM
REM compiler GCC version 9.2.1 20190827 (Red Hat 9.2.1-1)
REM options -cpp -mtune=generic -march=x86-64 -g -O0 -fpre-include=/usr/include/finclude/math-vector-fortran.h
REM seed 855533870 -437807386 877886558 940985581 2048975417 -183854701 723105026 1709901495 -716606775 797638408 848141563 1984633824 -1657442003 817813398 -544725427 -1279151279 -489435419 -1451558950 1110704946 -1154861405 -1305967393 -2038693242 1723405078 1637462327 -1446918507 478505838 1412076985 1095913536 1030928209 -324422226 -1647220897 1511925013 261710474
REM
CELL 1.54180   50.00000   50.00000   50.00000   90.00000   90.00000   90.00000
LATT -1
SFAC C  
C      1  0.4277310000000  0.5644060000000  0.4467590000000 1.0
C      1  0.4257430000000  0.5201430000000  0.5832470000000 1.0
C      1  0.4327600000000  0.4103390000000  0.4818940000000 1.0
C      1  0.4285680000000  0.5639770000000  0.5541370000000 1.0
C      1  0.4261880000000  0.5203650000000  0.4162270000000 1.0
C      1  0.4317530000000  0.4106960000000  0.5160830000000 1.0
C      1  0.4963550000000  0.5909160000000  0.5501930000000 1.0
C      1  0.4955840000000  0.3971220000000  0.5514200000000 1.0
C      1  0.4926680000000  0.5010450000000  0.3944310000000 1.0
C      1  0.4940290000000  0.5947110000000  0.4455690000000 1.0
C      1  0.4963790000000  0.3992640000000  0.4461440000000 1.0
C      1  0.4931470000000  0.5056390000000  0.6123870000000 1.0
C      1  0.5387870000000  0.4086370000000  0.5465820000000 1.0
C      1  0.5503360000000  0.5069070000000  0.3950880000000 1.0
C      1  0.5499850000000  0.5894300000000  0.5560090000000 1.0
C      1  0.5421180000000  0.4121470000000  0.4546000000000 1.0
C      1  0.5497700000000  0.5026520000000  0.6061270000000 1.0
C      1  0.5497010000000  0.5927130000000  0.4401840000000 1.0
C      1  0.4828670000000  0.5493190000000  0.5543060000000 1.0
C      1  0.4828250000000  0.4311130000000  0.5135820000000 1.0
C      1  0.4725960000000  0.5215430000000  0.4328270000000 1.0
C      1  0.4825630000000  0.5457180000000  0.4481100000000 1.0
C      1  0.4822310000000  0.4329380000000  0.4831510000000 1.0
C      1  0.4718130000000  0.5297660000000  0.5719230000000 1.0
C      1  0.4528080000000  0.4742090000000  0.5748280000000 1.0
C      1  0.4523680000000  0.4508910000000  0.4396110000000 1.0
C      1  0.4491750000000  0.5718540000000  0.4840220000000 1.0
C      1  0.4485790000000  0.4723610000000  0.4207540000000 1.0
C      1  0.4480050000000  0.4467530000000  0.5615750000000 1.0
C      1  0.4506720000000  0.5716780000000  0.5158340000000 1.0
C      1  0.4977350000000  0.4765390000000  0.5122420000000 1.0
C      1  0.5021430000000  0.4979470000000  0.4684990000000 1.0
C      1  0.4978430000000  0.5226500000000  0.5153930000000 1.0
C      1  0.4997260000000  0.4761880000000  0.4848190000000 1.0
C      1  0.5045440000000  0.4985260000000  0.5263100000000 1.0
C      1  0.4966640000000  0.5222600000000  0.4863220000000 1.0
C      1  0.5483450000000  0.5003960000000  0.4763300000000 1.0
C      1  0.5437910000000  0.5259990000000  0.5184550000000 1.0
C      1  0.5457670000000  0.4728870000000  0.5165100000000 1.0
C      1  0.5483190000000  0.4992530000000  0.5295340000000 1.0
C      1  0.5426720000000  0.5258240000000  0.4899490000000 1.0
C      1  0.5467550000000  0.4734990000000  0.4876500000000 1.0
C      1  0.5029560000000  0.4966090000000  0.5870710000000 1.0
C      1  0.5131650000000  0.4228260000000  0.4468840000000 1.0
C      1  0.5098550000000  0.5743550000000  0.4605840000000 1.0
C      1  0.5030090000000  0.4931500000000  0.4213090000000 1.0
C      1  0.5116940000000  0.4211690000000  0.5519420000000 1.0
C      1  0.5142640000000  0.5778670000000  0.5293900000000 1.0
C      1  0.5851950000000  0.4722220000000  0.5591180000000 1.0
C      1  0.5887780000000  0.4554790000000  0.4471870000000 1.0
C      1  0.5845570000000  0.5593140000000  0.4790040000000 1.0
C      1  0.5825830000000  0.4838320000000  0.4415760000000 1.0
C      1  0.5923600000000  0.4475970000000  0.5410170000000 1.0
C      1  0.5858300000000  0.5657140000000  0.5089890000000 1.0
C      1  0.4078690000000  0.4545660000000  0.4709590000000 1.0
C      1  0.4081930000000  0.5417410000000  0.4746870000000 1.0
C      1  0.4202280000000  0.4988000000000  0.5412120000000 1.0
C      1  0.4085720000000  0.4549670000000  0.5299870000000 1.0
C      1  0.4096210000000  0.5418240000000  0.5252420000000 1.0
C      1  0.4180470000000  0.4965010000000  0.4571730000000 1.0
C      1  0.5022860000000  0.5950190000000  0.5089890000000 1.0
C      1  0.4952100000000  0.4353660000000  0.5782830000000 1.0
C      1  0.4998020000000  0.4644130000000  0.4103620000000 1.0
C      1  0.5123190000000  0.5912950000000  0.4833200000000 1.0
C      1  0.4979570000000  0.4372630000000  0.4220340000000 1.0
C      1  0.4971550000000  0.4681610000000  0.5915660000000 1.0
C      1  0.4484450000000  0.4060590000000  0.5364120000000 1.0
C      1  0.4403550000000  0.5102140000000  0.3952440000000 1.0
C      1  0.4447820000000  0.5869760000000  0.5567320000000 1.0
C      1  0.4493460000000  0.4076080000000  0.4617280000000 1.0
C      1  0.4391850000000  0.5124680000000  0.6062650000000 1.0
C      1  0.4434090000000  0.5870160000000  0.4410580000000 1.0
C      1  0.4766130000000  0.4773550000000  0.5529960000000 1.0
C      1  0.4726940000000  0.4648080000000  0.4583080000000 1.0
C      1  0.4663880000000  0.5508820000000  0.4724560000000 1.0
C      1  0.4840810000000  0.4907200000000  0.4444070000000 1.0
C      1  0.4680420000000  0.4553100000000  0.5365340000000 1.0
C      1  0.4671320000000  0.5521030000000  0.5285360000000 1.0
C      1  0.5252180000000  0.6141410000000  0.5135550000000 1.0
C      1  0.5193500000000  0.4313410000000  0.5961640000000 1.0
C      1  0.5260350000000  0.4594040000000  0.3943870000000 1.0
C      1  0.5295500000000  0.6135050000000  0.4850810000000 1.0
C      1  0.5231210000000  0.4320310000000  0.4036990000000 1.0
C      1  0.5241180000000  0.4588030000000  0.6045020000000 1.0
C      1  0.5326760000000  0.5782220000000  0.4211100000000 1.0
C      1  0.5356390000000  0.5289660000000  0.6050790000000 1.0
C      1  0.5345520000000  0.3965150000000  0.4797540000000 1.0
C      1  0.5360170000000  0.5772310000000  0.5770080000000 1.0
C      1  0.5281290000000  0.5217220000000  0.3881560000000 1.0
C      1  0.5337950000000  0.3951120000000  0.5195110000000 1.0
C      1  0.3917500000000  0.4726960000000  0.4859310000000 1.0
C      1  0.3910920000000  0.5222560000000  0.4860540000000 1.0
C      1  0.3940750000000  0.4984010000000  0.5277770000000 1.0
C      1  0.3920440000000  0.4728410000000  0.5147830000000 1.0
C      1  0.3915220000000  0.5228630000000  0.5135460000000 1.0
C      1  0.3928500000000  0.4977350000000  0.4717810000000 1.0
C      1  0.5462110000000  0.4320820000000  0.4194480000000 1.0
C      1  0.5505120000000  0.6019260000000  0.4679080000000 1.0
C      1  0.5463920000000  0.4752540000000  0.5960540000000 1.0
C      1  0.5428630000000  0.4298650000000  0.5806230000000 1.0
C      1  0.5415120000000  0.5937260000000  0.5288810000000 1.0
C      1  0.5475680000000  0.4775460000000  0.4017180000000 1.0
C      1  0.4832920000000  0.4027980000000  0.4842200000000 1.0
C      1  0.4836480000000  0.5621010000000  0.4217140000000 1.0
C      1  0.4833450000000  0.5424070000000  0.5963470000000 1.0
C      1  0.4835320000000  0.4009630000000  0.5124700000000 1.0
C      1  0.4842200000000  0.5675840000000  0.5825050000000 1.0
C      1  0.4821090000000  0.5375810000000  0.4088610000000 1.0
C      1  0.5726700000000  0.5476330000000  0.4502170000000 1.0
C      1  0.5799770000000  0.5227860000000  0.5687790000000 1.0
C      1  0.5792340000000  0.4307270000000  0.4906750000000 1.0
C      1  0.5796840000000  0.5480870000000  0.5553690000000 1.0
C      1  0.5777120000000  0.5234190000000  0.4372860000000 1.0
C      1  0.5761020000000  0.4318720000000  0.5191880000000 1.0
C      1  0.4195610000000  0.4574910000000  0.5567140000000 1.0
C      1  0.4218390000000  0.4826610000000  0.4314180000000 1.0
C      1  0.4203720000000  0.5668200000000  0.5142250000000 1.0
C      1  0.4186730000000  0.4571470000000  0.4445030000000 1.0
C      1  0.4228630000000  0.4842840000000  0.5663920000000 1.0
C      1  0.4178890000000  0.5665320000000  0.4861230000000 1.0
C      1  0.4694440000000  0.5980530000000  0.5416750000000 1.0
C      1  0.4668730000000  0.4035510000000  0.5577130000000 1.0
C      1  0.4655060000000  0.4919090000000  0.3886750000000 1.0
C      1  0.4669690000000  0.6004070000000  0.4566770000000 1.0
C      1  0.4680790000000  0.4076840000000  0.4404620000000 1.0
C      1  0.4648410000000  0.4966330000000  0.6146970000000 1.0
C      1  0.5034840000000  0.5831120000000  0.4202860000000 1.0
C      1  0.5069160000000  0.5312680000000  0.6107280000000 1.0
C      1  0.5064930000000  0.3907490000000  0.4714220000000 1.0
C      1  0.5072790000000  0.5837490000000  0.5763660000000 1.0
C      1  0.5010190000000  0.5284440000000  0.3868180000000 1.0
C      1  0.5056640000000  0.3884810000000  0.5261210000000 1.0
C      1  0.5225880000000  0.4612010000000  0.4760170000000 1.0
C      1  0.5185630000000  0.5395520000000  0.4796400000000 1.0
C      1  0.5246360000000  0.4950160000000  0.5460250000000 1.0
C      1  0.5200510000000  0.4598040000000  0.5218230000000 1.0
C      1  0.5209360000000  0.5433790000000  0.5282950000000 1.0
C      1  0.5289270000000  0.5002650000000  0.4551180000000 1.0
C      1  0.4241810000000  0.4390150000000  0.5139240000000 1.0
C      1  0.4437910000000  0.5221010000000  0.4376530000000 1.0
C      1  0.4313900000000  0.5379870000000  0.5437770000000 1.0
C      1  0.4243270000000  0.4380920000000  0.4869190000000 1.0
C      1  0.4453330000000  0.5224950000000  0.5633520000000 1.0
C      1  0.4306270000000  0.5384840000000  0.4569670000000 1.0
C      1  0.5592200000000  0.5771430000000  0.4805840000000 1.0
C      1  0.5583960000000  0.4690020000000  0.5692140000000 1.0
C      1  0.5607940000000  0.4463790000000  0.4391550000000 1.0
C      1  0.5615370000000  0.5790800000000  0.5084770000000 1.0
C      1  0.5568960000000  0.4748530000000  0.4292450000000 1.0
C      1  0.5564770000000  0.4421620000000  0.5598450000000 1.0
C      1  0.4679210000000  0.5265860000000  0.5153260000000 1.0
C      1  0.4650440000000  0.4733370000000  0.5132730000000 1.0
C      1  0.4425660000000  0.4992760000000  0.4767910000000 1.0
C      1  0.4669200000000  0.5259110000000  0.4855890000000 1.0
C      1  0.4607660000000  0.4725850000000  0.4832250000000 1.0
C      1  0.4483000000000  0.4996600000000  0.5261000000000 1.0
C      1  0.4593040000000  0.6008240000000  0.4843440000000 1.0
C      1  0.4685020000000  0.4729050000000  0.6003430000000 1.0
C      1  0.4690750000000  0.4319260000000  0.4244190000000 1.0
C      1  0.4695300000000  0.6014950000000  0.5121550000000 1.0
C      1  0.4686870000000  0.4666420000000  0.4013190000000 1.0
C      1  0.4675080000000  0.4276160000000  0.5743680000000 1.0
C      1  0.5942860000000  0.5291790000000  0.4854330000000 1.0
C      1  0.5988310000000  0.5018090000000  0.5278430000000 1.0
C      1  0.5966230000000  0.4772570000000  0.4851860000000 1.0
C      1  0.5961470000000  0.5260080000000  0.5146730000000 1.0
C      1  0.5891860000000  0.4983170000000  0.4671900000000 1.0
C      1  0.6018240000000  0.4788470000000  0.5118250000000 1.0
C      1  0.5549200000000  0.5206780000000  0.5839980000000 1.0
C      1  0.5540380000000  0.4194620000000  0.4795000000000 1.0
C      1  0.5504280000000  0.5632870000000  0.4393550000000 1.0
C      1  0.5529320000000  0.5224570000000  0.4213900000000 1.0
C      1  0.5504360000000  0.4194720000000  0.5227030000000 1.0
C      1  0.5560560000000  0.5639700000000  0.5610750000000 1.0
C      1  0.5121360000000  0.5451510000000  0.4533660000000 1.0
C      1  0.5158490000000  0.5124340000000  0.5671530000000 1.0
C      1  0.5079180000000  0.4375920000000  0.4709720000000 1.0
C      1  0.5102080000000  0.5373820000000  0.5542640000000 1.0
C      1  0.5257120000000  0.5197170000000  0.4346190000000 1.0
C      1  0.5079830000000  0.4360920000000  0.5273210000000 1.0
C      1  0.6151560000000  0.4533450000000  0.5231840000000 1.0
C      1  0.6139120000000  0.5128700000000  0.4498150000000 1.0
C      1  0.5922760000000  0.5487210000000  0.5296510000000 1.0
C      1  0.5943160000000  0.4505710000000  0.4751660000000 1.0
C      1  0.5931720000000  0.4999410000000  0.5560550000000 1.0
C      1  0.6218230000000  0.5312570000000  0.4715030000000 1.0
C      1  0.4327910000000  0.4998620000000  0.5028460000000 1.0
END
