TITL C-2441168-9922-762 0.0611448928407147 125000 -22051.7853485458 0 0 160 (C1) n - 1
REM
REM in /home/bkarasulu/work/CARBON/AIRSS/Generating-Clusters/ReaxFF-fromJPCA2015/Units_Real/with-SteepDescent/Higher-Symm
REM
REM
REM
REM
REM
REM ./C.cell (1df0a924f5614ab8850e4351716899ee)
REM
REM compiler GCC version 9.2.1 20190827 (Red Hat 9.2.1-1)
REM options -cpp -mtune=generic -march=x86-64 -g -O0 -fpre-include=/usr/include/finclude/math-vector-fortran.h
REM seed -834803232 278410415 -1340990504 1540004648 -566303073 1314946869 266721832 -1101595230 -1016096705 35768642 532994482 1358909759 1842879654 -1772285060 387668266 -1266249562 -1409409762 499007003 1890263002 1648160015 -1355725396 2121251762 -1004963798 530664678 -327370017 -276634385 -1366352026 -1036808045 2009616354 -14585340 -850879750 1400645372 -627991339
REM
CELL 1.54180   50.00000   50.00000   50.00000   90.00000   90.00000   90.00000
LATT -1
SFAC C  
C      1  0.5009120000000  0.4112980000000  0.5556290000000 1.0
C      1  0.5623040000000  0.4447290000000  0.4334950000000 1.0
C      1  0.5133570000000  0.4771070000000  0.4460840000000 1.0
C      1  0.5001050000000  0.4656370000000  0.3988070000000 1.0
C      1  0.5997610000000  0.5086710000000  0.5291420000000 1.0
C      1  0.4643690000000  0.5440910000000  0.4705250000000 1.0
C      1  0.4614570000000  0.4201860000000  0.4615460000000 1.0
C      1  0.4795750000000  0.4285080000000  0.5697110000000 1.0
C      1  0.4631400000000  0.4912070000000  0.4758200000000 1.0
C      1  0.5134830000000  0.4893350000000  0.5551260000000 1.0
C      1  0.4186780000000  0.5404820000000  0.4452890000000 1.0
C      1  0.5490780000000  0.5201080000000  0.5877470000000 1.0
C      1  0.5957910000000  0.4847840000000  0.5125600000000 1.0
C      1  0.4042860000000  0.4621980000000  0.4774460000000 1.0
C      1  0.5177960000000  0.5224340000000  0.4505550000000 1.0
C      1  0.4712060000000  0.5131730000000  0.5658630000000 1.0
C      1  0.4930420000000  0.4463630000000  0.5896060000000 1.0
C      1  0.4433780000000  0.5822830000000  0.4963350000000 1.0
C      1  0.5941190000000  0.5200510000000  0.4882120000000 1.0
C      1  0.5529380000000  0.5086880000000  0.4166910000000 1.0
C      1  0.4389210000000  0.5399210000000  0.4869740000000 1.0
C      1  0.5313140000000  0.3999400000000  0.4837450000000 1.0
C      1  0.4913370000000  0.4015050000000  0.5040630000000 1.0
C      1  0.5318150000000  0.5588440000000  0.4340370000000 1.0
C      1  0.4682790000000  0.4839390000000  0.5734910000000 1.0
C      1  0.5886950000000  0.4520780000000  0.4795210000000 1.0
C      1  0.4759370000000  0.5168570000000  0.4707090000000 1.0
C      1  0.4885200000000  0.5181360000000  0.4439950000000 1.0
C      1  0.4977880000000  0.5319670000000  0.4931750000000 1.0
C      1  0.4091380000000  0.4856370000000  0.4574380000000 1.0
C      1  0.4320460000000  0.4326000000000  0.5375680000000 1.0
C      1  0.4995720000000  0.5913480000000  0.4957190000000 1.0
C      1  0.5688750000000  0.4753130000000  0.5150930000000 1.0
C      1  0.5205870000000  0.5432320000000  0.4121000000000 1.0
C      1  0.5483130000000  0.4562160000000  0.4113950000000 1.0
C      1  0.4333070000000  0.5178680000000  0.4502120000000 1.0
C      1  0.5633360000000  0.4815790000000  0.4144630000000 1.0
C      1  0.5567700000000  0.5626370000000  0.4474960000000 1.0
C      1  0.5162150000000  0.5750890000000  0.5137130000000 1.0
C      1  0.4431110000000  0.4693820000000  0.5757990000000 1.0
C      1  0.5191310000000  0.4484380000000  0.4109920000000 1.0
C      1  0.4442710000000  0.4262930000000  0.4384470000000 1.0
C      1  0.5132580000000  0.4914300000000  0.5268620000000 1.0
C      1  0.5406630000000  0.4847970000000  0.4553040000000 1.0
C      1  0.4514980000000  0.5318090000000  0.5801650000000 1.0
C      1  0.5079710000000  0.3964610000000  0.5273040000000 1.0
C      1  0.5110830000000  0.4928270000000  0.5999030000000 1.0
C      1  0.5569850000000  0.4799360000000  0.5822910000000 1.0
C      1  0.5752180000000  0.4398330000000  0.5465880000000 1.0
C      1  0.3911770000000  0.4974160000000  0.5092800000000 1.0
C      1  0.5240510000000  0.5203370000000  0.4936110000000 1.0
C      1  0.5811970000000  0.5465410000000  0.4601830000000 1.0
C      1  0.4845920000000  0.5768100000000  0.4366160000000 1.0
C      1  0.6015660000000  0.4759320000000  0.4838480000000 1.0
C      1  0.4493380000000  0.5006590000000  0.4182770000000 1.0
C      1  0.5415970000000  0.4872720000000  0.5591710000000 1.0
C      1  0.4146730000000  0.5485760000000  0.4743070000000 1.0
C      1  0.5763600000000  0.4287980000000  0.4880980000000 1.0
C      1  0.5443710000000  0.5401970000000  0.4874240000000 1.0
C      1  0.4444040000000  0.4914130000000  0.5007010000000 1.0
C      1  0.5214630000000  0.4469000000000  0.5882790000000 1.0
C      1  0.5932600000000  0.5187500000000  0.4590710000000 1.0
C      1  0.5908130000000  0.4888710000000  0.4595650000000 1.0
C      1  0.5260490000000  0.4339890000000  0.5604740000000 1.0
C      1  0.3996920000000  0.4698110000000  0.5042390000000 1.0
C      1  0.5917490000000  0.5570950000000  0.5129000000000 1.0
C      1  0.5744950000000  0.4284280000000  0.5178430000000 1.0
C      1  0.4232540000000  0.5015390000000  0.4326410000000 1.0
C      1  0.4638130000000  0.5050490000000  0.5176340000000 1.0
C      1  0.5130340000000  0.4518400000000  0.5395290000000 1.0
C      1  0.5307470000000  0.5677930000000  0.5686650000000 1.0
C      1  0.5326800000000  0.3978330000000  0.5124460000000 1.0
C      1  0.4770670000000  0.4494310000000  0.4111500000000 1.0
C      1  0.5264440000000  0.4397050000000  0.4698960000000 1.0
C      1  0.4540490000000  0.5689770000000  0.5424340000000 1.0
C      1  0.5738800000000  0.5152320000000  0.5420660000000 1.0
C      1  0.5656900000000  0.5220660000000  0.4943740000000 1.0
C      1  0.4219400000000  0.5322910000000  0.5090370000000 1.0
C      1  0.5613660000000  0.4774190000000  0.5427460000000 1.0
C      1  0.4921240000000  0.5423610000000  0.4055960000000 1.0
C      1  0.4885710000000  0.4758400000000  0.5936740000000 1.0
C      1  0.5570350000000  0.5160140000000  0.5199740000000 1.0
C      1  0.4668160000000  0.5250390000000  0.4158280000000 1.0
C      1  0.4846140000000  0.4452720000000  0.5278350000000 1.0
C      1  0.5321270000000  0.4724520000000  0.5971720000000 1.0
C      1  0.4681790000000  0.4818410000000  0.4290990000000 1.0
C      1  0.4586630000000  0.4732720000000  0.4534990000000 1.0
C      1  0.4717900000000  0.5919650000000  0.5047720000000 1.0
C      1  0.4460090000000  0.4662070000000  0.5171120000000 1.0
C      1  0.4177230000000  0.4575770000000  0.5277310000000 1.0
C      1  0.4973790000000  0.4348720000000  0.4279470000000 1.0
C      1  0.5092130000000  0.5655410000000  0.4530910000000 1.0
C      1  0.5558070000000  0.4110120000000  0.4723500000000 1.0
C      1  0.4122790000000  0.5365900000000  0.5518460000000 1.0
C      1  0.4807580000000  0.4522350000000  0.4992620000000 1.0
C      1  0.5583090000000  0.5595340000000  0.5593710000000 1.0
C      1  0.5120600000000  0.5527780000000  0.5835370000000 1.0
C      1  0.4579190000000  0.5216990000000  0.5372070000000 1.0
C      1  0.4488840000000  0.4453590000000  0.4181260000000 1.0
C      1  0.5627030000000  0.5821820000000  0.4866850000000 1.0
C      1  0.4232370000000  0.4897700000000  0.5729520000000 1.0
C      1  0.4618890000000  0.5604220000000  0.4432670000000 1.0
C      1  0.4861830000000  0.5666780000000  0.5760380000000 1.0
C      1  0.5025510000000  0.4489930000000  0.4799910000000 1.0
C      1  0.4246590000000  0.5004480000000  0.4739740000000 1.0
C      1  0.5070630000000  0.4779580000000  0.4742020000000 1.0
C      1  0.4311390000000  0.5734960000000  0.5207530000000 1.0
C      1  0.5653510000000  0.5414960000000  0.5958390000000 1.0
C      1  0.5445220000000  0.5133150000000  0.4453600000000 1.0
C      1  0.4921130000000  0.6027780000000  0.4487600000000 1.0
C      1  0.4512370000000  0.4424020000000  0.5598080000000 1.0
C      1  0.4900290000000  0.4202210000000  0.4536340000000 1.0
C      1  0.5537020000000  0.5297200000000  0.5584970000000 1.0
C      1  0.5054190000000  0.4966230000000  0.3981560000000 1.0
C      1  0.5449410000000  0.4278810000000  0.4511240000000 1.0
C      1  0.4023960000000  0.4995230000000  0.5364940000000 1.0
C      1  0.5752160000000  0.4638480000000  0.5635860000000 1.0
C      1  0.5161200000000  0.5335290000000  0.5417170000000 1.0
C      1  0.4368630000000  0.4560370000000  0.4448240000000 1.0
C      1  0.4929560000000  0.5536250000000  0.4753550000000 1.0
C      1  0.4636960000000  0.4612340000000  0.5398290000000 1.0
C      1  0.4276490000000  0.5761160000000  0.4714700000000 1.0
C      1  0.4267310000000  0.5178930000000  0.5335810000000 1.0
C      1  0.4253920000000  0.5208500000000  0.5727330000000 1.0
C      1  0.5523470000000  0.4237610000000  0.5521900000000 1.0
C      1  0.4445010000000  0.4190630000000  0.5150200000000 1.0
C      1  0.5417130000000  0.5658670000000  0.5006960000000 1.0
C      1  0.5192320000000  0.5880790000000  0.5463480000000 1.0
C      1  0.4946100000000  0.4918500000000  0.4301600000000 1.0
C      1  0.4247140000000  0.4422030000000  0.4723510000000 1.0
C      1  0.5457990000000  0.4702820000000  0.4997300000000 1.0
C      1  0.5744960000000  0.5645660000000  0.5349110000000 1.0
C      1  0.5039940000000  0.5163740000000  0.5626400000000 1.0
C      1  0.3990360000000  0.5239240000000  0.5005660000000 1.0
C      1  0.4840990000000  0.4805450000000  0.4914020000000 1.0
C      1  0.5142960000000  0.5948860000000  0.4684510000000 1.0
C      1  0.4589300000000  0.5584340000000  0.5731990000000 1.0
C      1  0.4432670000000  0.4253190000000  0.4852170000000 1.0
C      1  0.5289070000000  0.5165460000000  0.4031780000000 1.0
C      1  0.5032960000000  0.4050150000000  0.4761230000000 1.0
C      1  0.4340150000000  0.5666930000000  0.4437890000000 1.0
C      1  0.4901700000000  0.5863320000000  0.5543760000000 1.0
C      1  0.4712770000000  0.5909180000000  0.5337690000000 1.0
C      1  0.5324600000000  0.4902190000000  0.4833800000000 1.0
C      1  0.5291550000000  0.5174240000000  0.5218530000000 1.0
C      1  0.4087220000000  0.4763650000000  0.5520540000000 1.0
C      1  0.5256670000000  0.6167830000000  0.5475360000000 1.0
C      1  0.4114240000000  0.5531640000000  0.5258940000000 1.0
C      1  0.5530520000000  0.4119300000000  0.5265150000000 1.0
C      1  0.4872850000000  0.4946370000000  0.5153090000000 1.0
C      1  0.4975670000000  0.5478120000000  0.5230890000000 1.0
C      1  0.4846040000000  0.5182540000000  0.3929680000000 1.0
C      1  0.5467930000000  0.5851740000000  0.4627310000000 1.0
C      1  0.4694210000000  0.5472390000000  0.5307750000000 1.0
C      1  0.5853460000000  0.5637910000000  0.4833420000000 1.0
C      1  0.6065910000000  0.5314460000000  0.5124140000000 1.0
C      1  0.4723960000000  0.4155340000000  0.5210780000000 1.0
C      1  0.5169450000000  0.5218610000000  0.5905910000000 1.0
C      1  0.5256970000000  0.4659740000000  0.5186130000000 1.0
C      1  0.5706150000000  0.4730200000000  0.4428300000000 1.0
END
