TITL C-2441155-8282-66 0.000317287862397991 125000 -7316.89540801859 0 0 51 (C1) n - 1
REM
REM in /home/bkarasulu/work/CARBON/AIRSS/Generating-Clusters/ReaxFF-fromJPCA2015/Units_Real/with-SteepDescent/Higher-Symm
REM
REM
REM
REM
REM
REM ./C.cell (1df0a924f5614ab8850e4351716899ee)
REM
REM compiler GCC version 9.2.1 20190827 (Red Hat 9.2.1-1)
REM options -cpp -mtune=generic -march=x86-64 -g -O0 -fpre-include=/usr/include/finclude/math-vector-fortran.h
REM seed -1625269500 146124805 -72607428 1180910690 687050398 1706940346 1897782473 41771664 458621693 146615599 25453535 1493920980 232362395 -383424309 -2025819134 1174746225 2143197331 -108266509 1118057486 -1457717964 1128214793 -1655837217 2103402331 606117610 1404064482 25188809 166122261 1309864458 1886241006 1248887191 2142425978 622399133 1286410849
REM
CELL 1.54180   50.00000   50.00000   50.00000   90.00000   90.00000   90.00000
LATT -1
SFAC C  
C      1  0.4481900000000  0.4863310000000  0.5491440000000 1.0
C      1  0.4516670000000  0.5330020000000  0.4488640000000 1.0
C      1  0.4800280000000  0.5429920000000  0.5522890000000 1.0
C      1  0.5223610000000  0.5432060000000  0.4537120000000 1.0
C      1  0.5521230000000  0.5143030000000  0.5409100000000 1.0
C      1  0.5406430000000  0.4686940000000  0.4546070000000 1.0
C      1  0.5195820000000  0.4553010000000  0.5472400000000 1.0
C      1  0.4735170000000  0.4558980000000  0.4470390000000 1.0
C      1  0.4520940000000  0.5496880000000  0.4737720000000 1.0
C      1  0.4957790000000  0.5604040000000  0.5326770000000 1.0
C      1  0.5418380000000  0.5427080000000  0.4763870000000 1.0
C      1  0.5713850000000  0.5051580000000  0.5228850000000 1.0
C      1  0.5451330000000  0.4523650000000  0.4820560000000 1.0
C      1  0.5078420000000  0.4450920000000  0.5222940000000 1.0
C      1  0.4571420000000  0.4579200000000  0.4723220000000 1.0
C      1  0.4349080000000  0.4967820000000  0.5245560000000 1.0
C      1  0.4387660000000  0.5271130000000  0.5209490000000 1.0
C      1  0.4813100000000  0.5591750000000  0.4789270000000 1.0
C      1  0.5248440000000  0.5518200000000  0.5282370000000 1.0
C      1  0.5568660000000  0.5165990000000  0.4715270000000 1.0
C      1  0.5634740000000  0.4754130000000  0.5280670000000 1.0
C      1  0.5044010000000  0.4534220000000  0.4766770000000 1.0
C      1  0.4794830000000  0.4520720000000  0.5229830000000 1.0
C      1  0.4443650000000  0.4849570000000  0.4721840000000 1.0
C      1  0.4690860000000  0.4955550000000  0.5666580000000 1.0
C      1  0.4748570000000  0.5179600000000  0.4388860000000 1.0
C      1  0.4873130000000  0.5188740000000  0.5674530000000 1.0
C      1  0.5031370000000  0.5230470000000  0.4462090000000 1.0
C      1  0.5153570000000  0.5101770000000  0.5627790000000 1.0
C      1  0.5204790000000  0.4858540000000  0.4403320000000 1.0
C      1  0.5221230000000  0.4813680000000  0.5624940000000 1.0
C      1  0.4972860000000  0.4684580000000  0.4352270000000 1.0
C      1  0.4405530000000  0.4856320000000  0.4995090000000 1.0
C      1  0.4425100000000  0.5383800000000  0.4964110000000 1.0
C      1  0.4889390000000  0.5600560000000  0.5055370000000 1.0
C      1  0.5331350000000  0.5473980000000  0.5028270000000 1.0
C      1  0.5639470000000  0.5123640000000  0.4963690000000 1.0
C      1  0.5546220000000  0.4639150000000  0.5046840000000 1.0
C      1  0.5208180000000  0.4400500000000  0.4959530000000 1.0
C      1  0.4669670000000  0.4534260000000  0.4987240000000 1.0
C      1  0.4978210000000  0.4454690000000  0.4509310000000 1.0
C      1  0.4765810000000  0.4792440000000  0.5418220000000 1.0
C      1  0.4513710000000  0.5043050000000  0.4494600000000 1.0
C      1  0.4675400000000  0.5295380000000  0.5301450000000 1.0
C      1  0.4978360000000  0.5500220000000  0.4560800000000 1.0
C      1  0.5332370000000  0.5305610000000  0.5504900000000 1.0
C      1  0.5466890000000  0.4951460000000  0.4504010000000 1.0
C      1  0.5452860000000  0.4679870000000  0.5512800000000 1.0
C      1  0.5053350000000  0.4851000000000  0.4811900000000 1.0
C      1  0.4843880000000  0.5051110000000  0.5243070000000 1.0
C      1  0.4948820000000  0.4993820000000  0.5022980000000 1.0
END
