TITL C-2441165-58-1320 0.00162498801767431 125000 -8856.4804590189 0 0 62 (C1) n - 1
REM
REM in /home/bkarasulu/work/CARBON/AIRSS/Generating-Clusters/ReaxFF-fromJPCA2015/Units_Real/with-SteepDescent/Higher-Symm
REM
REM
REM
REM
REM
REM ./C.cell (1df0a924f5614ab8850e4351716899ee)
REM
REM compiler GCC version 9.2.1 20190827 (Red Hat 9.2.1-1)
REM options -cpp -mtune=generic -march=x86-64 -g -O0 -fpre-include=/usr/include/finclude/math-vector-fortran.h
REM seed 68871939 -581075484 406632537 1928403644 -1698371231 -253484407 158811655 -2033713953 -432458775 -1680493427 -1088292463 -1221984884 -1449027524 -1020364105 2107415905 -824219325 -1495298933 340066887 237644300 1005101070 -1091970953 991115609 417615777 272448777 -1272079822 -323584441 -1801471463 -1278716846 2007929049 2087217767 -1624706843 811404090 1691993206
REM
CELL 1.54180   50.00000   50.00000   50.00000   90.00000   90.00000   90.00000
LATT -1
SFAC C  
C      1  0.5240500000000  0.4884050000000  0.5157100000000 1.0
C      1  0.5194700000000  0.5181830000000  0.5142010000000 1.0
C      1  0.4890000000000  0.5240050000000  0.5124940000000 1.0
C      1  0.4747300000000  0.4964330000000  0.5152050000000 1.0
C      1  0.4968010000000  0.4754750000000  0.5163190000000 1.0
C      1  0.5246590000000  0.4844260000000  0.4853150000000 1.0
C      1  0.5193050000000  0.5153440000000  0.4826940000000 1.0
C      1  0.4900700000000  0.5201810000000  0.4830680000000 1.0
C      1  0.4738430000000  0.4961190000000  0.4851650000000 1.0
C      1  0.4987210000000  0.4699130000000  0.4865240000000 1.0
C      1  0.4651950000000  0.4518730000000  0.5280100000000 1.0
C      1  0.5401900000000  0.4452270000000  0.5297180000000 1.0
C      1  0.5671080000000  0.5353530000000  0.5292880000000 1.0
C      1  0.5048560000000  0.5653090000000  0.5266810000000 1.0
C      1  0.4213520000000  0.5073050000000  0.5289550000000 1.0
C      1  0.4713960000000  0.4308360000000  0.4737700000000 1.0
C      1  0.5514220000000  0.4425920000000  0.4751200000000 1.0
C      1  0.5626850000000  0.5141030000000  0.4721610000000 1.0
C      1  0.4790820000000  0.5685230000000  0.4730930000000 1.0
C      1  0.4394930000000  0.5266840000000  0.4755680000000 1.0
C      1  0.5069910000000  0.5459460000000  0.4512370000000 1.0
C      1  0.4563560000000  0.5284020000000  0.4507990000000 1.0
C      1  0.4661560000000  0.4739690000000  0.4515390000000 1.0
C      1  0.5182230000000  0.4588860000000  0.4447560000000 1.0
C      1  0.5459480000000  0.5072180000000  0.4479240000000 1.0
C      1  0.5086110000000  0.5492310000000  0.5528210000000 1.0
C      1  0.4593410000000  0.5235470000000  0.5507000000000 1.0
C      1  0.4675860000000  0.4673230000000  0.5532330000000 1.0
C      1  0.5187880000000  0.4566950000000  0.5618370000000 1.0
C      1  0.5442890000000  0.5061620000000  0.5502360000000 1.0
C      1  0.4557200000000  0.4551740000000  0.4759980000000 1.0
C      1  0.5243700000000  0.4399070000000  0.4671720000000 1.0
C      1  0.5694420000000  0.4971650000000  0.4953790000000 1.0
C      1  0.5081200000000  0.5643130000000  0.4757230000000 1.0
C      1  0.4422570000000  0.5431880000000  0.5001340000000 1.0
C      1  0.4487530000000  0.4598260000000  0.5050310000000 1.0
C      1  0.5155760000000  0.4371310000000  0.5393770000000 1.0
C      1  0.5666650000000  0.5073910000000  0.5241790000000 1.0
C      1  0.5214180000000  0.5645510000000  0.5024720000000 1.0
C      1  0.4381520000000  0.5301890000000  0.5275540000000 1.0
C      1  0.5418090000000  0.5430760000000  0.5081210000000 1.0
C      1  0.4786840000000  0.5551410000000  0.5198700000000 1.0
C      1  0.4406600000000  0.4881440000000  0.5104170000000 1.0
C      1  0.4925100000000  0.4429220000000  0.5201250000000 1.0
C      1  0.5508390000000  0.4689620000000  0.5203320000000 1.0
C      1  0.5444690000000  0.5349730000000  0.4799030000000 1.0
C      1  0.4623900000000  0.5639470000000  0.4975470000000 1.0
C      1  0.4424340000000  0.4986750000000  0.4825860000000 1.0
C      1  0.4985450000000  0.4393360000000  0.4868180000000 1.0
C      1  0.5554470000000  0.4710770000000  0.4902550000000 1.0
C      1  0.5280710000000  0.5279750000000  0.5540770000000 1.0
C      1  0.4825640000000  0.5376300000000  0.5572280000000 1.0
C      1  0.4701690000000  0.4972140000000  0.5585070000000 1.0
C      1  0.4912060000000  0.4627170000000  0.5704820000000 1.0
C      1  0.5243860000000  0.4868760000000  0.5606330000000 1.0
C      1  0.5208100000000  0.5215860000000  0.4409870000000 1.0
C      1  0.4778070000000  0.5496880000000  0.4502850000000 1.0
C      1  0.4609770000000  0.5007400000000  0.4455530000000 1.0
C      1  0.4929260000000  0.4736270000000  0.4393600000000 1.0
C      1  0.5347150000000  0.4820360000000  0.4354470000000 1.0
C      1  0.4966810000000  0.4916220000000  0.5715550000000 1.0
C      1  0.5098410000000  0.4965920000000  0.4284870000000 1.0
END
