TITL C-2441162-9305-169 0.0336254585187233 125000 -13981.7366435663 0 0 99 (C1) n - 1
REM
REM in /home/bkarasulu/work/CARBON/AIRSS/Generating-Clusters/ReaxFF-fromJPCA2015/Units_Real/with-SteepDescent/Higher-Symm
REM
REM
REM
REM
REM
REM ./C.cell (1df0a924f5614ab8850e4351716899ee)
REM
REM compiler GCC version 9.2.1 20190827 (Red Hat 9.2.1-1)
REM options -cpp -mtune=generic -march=x86-64 -g -O0 -fpre-include=/usr/include/finclude/math-vector-fortran.h
REM seed -471998826 -839632547 -1470881811 -1104549177 -1304180353 1921702226 -192853743 -901495319 -1999044830 -1655975903 -1587193966 557281952 -1229921131 -37093527 1813421597 -411452927 -1449196980 -1513869040 185131971 -65879355 -772340516 -599550750 -1543335995 -1695136585 1716303355 1417982026 -1572507510 -1962717386 1088329732 356361560 104063418 800450691 1061470511
REM
CELL 1.54180   50.00000   50.00000   50.00000   90.00000   90.00000   90.00000
LATT -1
SFAC C  
C      1  0.4197880000000  0.4921280000000  0.5316940000000 1.0
C      1  0.4180500000000  0.5194050000000  0.5255200000000 1.0
C      1  0.4200290000000  0.5315440000000  0.4998020000000 1.0
C      1  0.4198890000000  0.5193540000000  0.4740960000000 1.0
C      1  0.4168030000000  0.4917810000000  0.4671640000000 1.0
C      1  0.4206560000000  0.4699120000000  0.4857200000000 1.0
C      1  0.4190590000000  0.4693650000000  0.5142850000000 1.0
C      1  0.4900810000000  0.5315300000000  0.5768980000000 1.0
C      1  0.4874740000000  0.5821300000000  0.5246160000000 1.0
C      1  0.4878080000000  0.5690460000000  0.4497470000000 1.0
C      1  0.4874900000000  0.5062770000000  0.4159200000000 1.0
C      1  0.4900370000000  0.4425670000000  0.4452630000000 1.0
C      1  0.4889380000000  0.4201820000000  0.5125760000000 1.0
C      1  0.4899780000000  0.4599030000000  0.5697110000000 1.0
C      1  0.4669050000000  0.5537100000000  0.4373440000000 1.0
C      1  0.4678340000000  0.4857380000000  0.4181430000000 1.0
C      1  0.4702080000000  0.4300150000000  0.4616080000000 1.0
C      1  0.4680630000000  0.4247090000000  0.5327760000000 1.0
C      1  0.4692730000000  0.4787370000000  0.5796710000000 1.0
C      1  0.4695270000000  0.5498480000000  0.5671960000000 1.0
C      1  0.4732840000000  0.5801190000000  0.5012840000000 1.0
C      1  0.4438970000000  0.5490860000000  0.5008470000000 1.0
C      1  0.4440640000000  0.5285430000000  0.4610830000000 1.0
C      1  0.4326990000000  0.4863120000000  0.4442720000000 1.0
C      1  0.4457490000000  0.4601210000000  0.4754890000000 1.0
C      1  0.4435470000000  0.4542600000000  0.5182200000000 1.0
C      1  0.4446760000000  0.4880060000000  0.5456340000000 1.0
C      1  0.4337780000000  0.5346480000000  0.5436670000000 1.0
C      1  0.5070690000000  0.5040930000000  0.4628500000000 1.0
C      1  0.5269300000000  0.4876900000000  0.4731760000000 1.0
C      1  0.5126950000000  0.4673030000000  0.4870680000000 1.0
C      1  0.5106120000000  0.4665880000000  0.5155230000000 1.0
C      1  0.5126110000000  0.4882570000000  0.5334610000000 1.0
C      1  0.5099070000000  0.5149850000000  0.5232160000000 1.0
C      1  0.5091470000000  0.5239110000000  0.4836760000000 1.0
C      1  0.5500550000000  0.5628000000000  0.5333830000000 1.0
C      1  0.5487470000000  0.5628560000000  0.4763080000000 1.0
C      1  0.5493970000000  0.5182060000000  0.4341870000000 1.0
C      1  0.5430050000000  0.4562560000000  0.4392030000000 1.0
C      1  0.5459120000000  0.4214870000000  0.4971680000000 1.0
C      1  0.5445670000000  0.4481290000000  0.5591630000000 1.0
C      1  0.5464290000000  0.5100590000000  0.5804070000000 1.0
C      1  0.5659350000000  0.4945100000000  0.5358950000000 1.0
C      1  0.5668370000000  0.5213550000000  0.5276380000000 1.0
C      1  0.5569490000000  0.5300160000000  0.5013610000000 1.0
C      1  0.5642560000000  0.5188630000000  0.4755490000000 1.0
C      1  0.5560950000000  0.4903120000000  0.4695750000000 1.0
C      1  0.5653130000000  0.4688060000000  0.4900420000000 1.0
C      1  0.5651240000000  0.4711730000000  0.5185420000000 1.0
C      1  0.5068070000000  0.4395600000000  0.5253540000000 1.0
C      1  0.5084440000000  0.4812960000000  0.5612060000000 1.0
C      1  0.5158190000000  0.5420830000000  0.5646320000000 1.0
C      1  0.5128890000000  0.5726460000000  0.5108170000000 1.0
C      1  0.5118940000000  0.5530680000000  0.4456580000000 1.0
C      1  0.5110640000000  0.4937740000000  0.4265620000000 1.0
C      1  0.5076710000000  0.4432850000000  0.4706650000000 1.0
C      1  0.4486930000000  0.5579010000000  0.4607340000000 1.0
C      1  0.4476770000000  0.5053760000000  0.4277080000000 1.0
C      1  0.4445980000000  0.4593210000000  0.4463080000000 1.0
C      1  0.4483680000000  0.4264210000000  0.5107610000000 1.0
C      1  0.4490870000000  0.4647420000000  0.5631110000000 1.0
C      1  0.4495490000000  0.5280310000000  0.5677730000000 1.0
C      1  0.4447880000000  0.5572610000000  0.5293070000000 1.0
C      1  0.4702410000000  0.4728140000000  0.4847030000000 1.0
C      1  0.4663000000000  0.4722970000000  0.5130030000000 1.0
C      1  0.4688220000000  0.4943350000000  0.5305590000000 1.0
C      1  0.4818390000000  0.5186340000000  0.5215820000000 1.0
C      1  0.4686890000000  0.5333460000000  0.5006050000000 1.0
C      1  0.4696010000000  0.5214230000000  0.4746570000000 1.0
C      1  0.4811810000000  0.4952860000000  0.4705020000000 1.0
C      1  0.5617600000000  0.5413460000000  0.5485480000000 1.0
C      1  0.5589140000000  0.5700700000000  0.5030160000000 1.0
C      1  0.5613300000000  0.5368390000000  0.4528710000000 1.0
C      1  0.5544500000000  0.4836200000000  0.4349610000000 1.0
C      1  0.5632480000000  0.4408470000000  0.4818890000000 1.0
C      1  0.5616610000000  0.4466560000000  0.5355380000000 1.0
C      1  0.5629900000000  0.4914810000000  0.5655520000000 1.0
C      1  0.5390630000000  0.5584490000000  0.4377840000000 1.0
C      1  0.5340440000000  0.4867590000000  0.4147120000000 1.0
C      1  0.5482930000000  0.4340310000000  0.4571310000000 1.0
C      1  0.5463050000000  0.4233730000000  0.5262020000000 1.0
C      1  0.5464350000000  0.4698950000000  0.5753360000000 1.0
C      1  0.5434910000000  0.5355840000000  0.5711730000000 1.0
C      1  0.5364910000000  0.5905260000000  0.5045800000000 1.0
C      1  0.4686680000000  0.5669280000000  0.5422850000000 1.0
C      1  0.4695630000000  0.5750680000000  0.4741490000000 1.0
C      1  0.4688950000000  0.5265020000000  0.4263620000000 1.0
C      1  0.4697810000000  0.4593350000000  0.4313170000000 1.0
C      1  0.4690680000000  0.4216440000000  0.4889960000000 1.0
C      1  0.4691760000000  0.4441730000000  0.5553560000000 1.0
C      1  0.4706660000000  0.5085460000000  0.5762950000000 1.0
C      1  0.5271270000000  0.4214950000000  0.4740900000000 1.0
C      1  0.5251390000000  0.4300980000000  0.5460160000000 1.0
C      1  0.5261950000000  0.4891380000000  0.5834240000000 1.0
C      1  0.5240290000000  0.5592090000000  0.5436170000000 1.0
C      1  0.5244260000000  0.5774650000000  0.4812370000000 1.0
C      1  0.5270310000000  0.5345640000000  0.4264200000000 1.0
C      1  0.5189310000000  0.4642180000000  0.4245390000000 1.0
C      1  0.5276010000000  0.5256430000000  0.5036970000000 1.0
END
