TITL C-2441166-8118-1010 0.0600787243720954 125000 -21731.4933539039 0 0 159 (C1) n - 1
REM
REM in /home/bkarasulu/work/CARBON/AIRSS/Generating-Clusters/ReaxFF-fromJPCA2015/Units_Real/with-SteepDescent/Higher-Symm
REM
REM
REM
REM
REM
REM ./C.cell (1df0a924f5614ab8850e4351716899ee)
REM
REM compiler GCC version 9.2.1 20190827 (Red Hat 9.2.1-1)
REM options -cpp -mtune=generic -march=x86-64 -g -O0 -fpre-include=/usr/include/finclude/math-vector-fortran.h
REM seed 19104082 1058192140 -832732335 -1241863652 159401273 -501392660 1673120259 -1995625496 -443898365 -1657274111 -926252981 -403584105 1347841416 -2012676589 -862770714 8122677 1429669720 -1245845362 -533676672 209364255 -690417735 396633801 1395436595 -1887399070 1096809438 -955960023 1974428394 1737303085 1089653489 2013352335 526671649 1825749658 -1616667674
REM
CELL 1.54180   50.00000   50.00000   50.00000   90.00000   90.00000   90.00000
LATT -1
SFAC C  
C      1  0.4717780000000  0.5733340000000  0.4439690000000 1.0
C      1  0.4710070000000  0.5631820000000  0.5664070000000 1.0
C      1  0.4677520000000  0.4737950000000  0.5851990000000 1.0
C      1  0.4682140000000  0.4083130000000  0.4984360000000 1.0
C      1  0.4736580000000  0.4723510000000  0.4153200000000 1.0
C      1  0.4464190000000  0.4829470000000  0.4169690000000 1.0
C      1  0.4453350000000  0.5763160000000  0.4573940000000 1.0
C      1  0.4409650000000  0.5640550000000  0.5573220000000 1.0
C      1  0.4417000000000  0.4704950000000  0.5764180000000 1.0
C      1  0.4410650000000  0.4155650000000  0.4946690000000 1.0
C      1  0.5290580000000  0.4216770000000  0.4390020000000 1.0
C      1  0.5256200000000  0.5311680000000  0.4068040000000 1.0
C      1  0.5261150000000  0.5961800000000  0.5014180000000 1.0
C      1  0.5267350000000  0.5261760000000  0.5949040000000 1.0
C      1  0.5285080000000  0.4189460000000  0.5523440000000 1.0
C      1  0.5709660000000  0.5175660000000  0.5717460000000 1.0
C      1  0.5719400000000  0.4396780000000  0.5374210000000 1.0
C      1  0.5724760000000  0.4441920000000  0.4534700000000 1.0
C      1  0.5700420000000  0.5265650000000  0.4328260000000 1.0
C      1  0.5707320000000  0.5656830000000  0.5096420000000 1.0
C      1  0.5692540000000  0.4444310000000  0.5664870000000 1.0
C      1  0.5705840000000  0.4176830000000  0.4672290000000 1.0
C      1  0.5676770000000  0.5046520000000  0.4117370000000 1.0
C      1  0.5656100000000  0.5805950000000  0.4729290000000 1.0
C      1  0.5675300000000  0.5470200000000  0.5732370000000 1.0
C      1  0.5528340000000  0.5777220000000  0.4486490000000 1.0
C      1  0.5515400000000  0.5664970000000  0.5598390000000 1.0
C      1  0.5528650000000  0.4619700000000  0.5830350000000 1.0
C      1  0.5551880000000  0.4075150000000  0.4897180000000 1.0
C      1  0.5514770000000  0.4805630000000  0.4100840000000 1.0
C      1  0.4307550000000  0.5535900000000  0.4460590000000 1.0
C      1  0.4275260000000  0.5732640000000  0.5333820000000 1.0
C      1  0.4292840000000  0.4964160000000  0.5727610000000 1.0
C      1  0.4303820000000  0.4244970000000  0.5197830000000 1.0
C      1  0.4339030000000  0.4627120000000  0.4347660000000 1.0
C      1  0.4061200000000  0.5103010000000  0.5260950000000 1.0
C      1  0.4037170000000  0.4696220000000  0.5210970000000 1.0
C      1  0.4065340000000  0.4730610000000  0.4808390000000 1.0
C      1  0.4001540000000  0.5145040000000  0.4693720000000 1.0
C      1  0.3986530000000  0.5400970000000  0.5016530000000 1.0
C      1  0.4758520000000  0.5976950000000  0.4752610000000 1.0
C      1  0.4784000000000  0.5467510000000  0.5913850000000 1.0
C      1  0.4830020000000  0.4284860000000  0.5756490000000 1.0
C      1  0.4829470000000  0.4037720000000  0.4619270000000 1.0
C      1  0.4752470000000  0.5087480000000  0.4027800000000 1.0
C      1  0.5201580000000  0.5036460000000  0.4566600000000 1.0
C      1  0.5164170000000  0.5464520000000  0.4878700000000 1.0
C      1  0.5204880000000  0.5204450000000  0.5406150000000 1.0
C      1  0.5214880000000  0.4688050000000  0.5361850000000 1.0
C      1  0.5247980000000  0.4572860000000  0.4795160000000 1.0
C      1  0.4994110000000  0.5917580000000  0.4418590000000 1.0
C      1  0.4993010000000  0.5811570000000  0.5663560000000 1.0
C      1  0.5005310000000  0.4532720000000  0.5965220000000 1.0
C      1  0.5034320000000  0.3913730000000  0.4871090000000 1.0
C      1  0.4988270000000  0.4745550000000  0.3958700000000 1.0
C      1  0.4499780000000  0.4423070000000  0.4504320000000 1.0
C      1  0.4477210000000  0.5317170000000  0.4334060000000 1.0
C      1  0.4476370000000  0.5760480000000  0.5088920000000 1.0
C      1  0.4538110000000  0.5158310000000  0.5690920000000 1.0
C      1  0.4538340000000  0.4376450000000  0.5370460000000 1.0
C      1  0.4298560000000  0.4774400000000  0.5327850000000 1.0
C      1  0.4326620000000  0.4615330000000  0.4871970000000 1.0
C      1  0.4130540000000  0.4985990000000  0.4477580000000 1.0
C      1  0.4216920000000  0.5449610000000  0.4851960000000 1.0
C      1  0.4303270000000  0.5283620000000  0.5285180000000 1.0
C      1  0.5048440000000  0.5704030000000  0.4206460000000 1.0
C      1  0.5039380000000  0.5973820000000  0.5424120000000 1.0
C      1  0.5034090000000  0.4834680000000  0.6030950000000 1.0
C      1  0.5035270000000  0.3990620000000  0.5164210000000 1.0
C      1  0.5046210000000  0.4471590000000  0.4087840000000 1.0
C      1  0.5462460000000  0.4807450000000  0.5422730000000 1.0
C      1  0.5488230000000  0.4518740000000  0.4931450000000 1.0
C      1  0.5455390000000  0.4906160000000  0.4548590000000 1.0
C      1  0.5408080000000  0.5378370000000  0.4774040000000 1.0
C      1  0.5447090000000  0.5313920000000  0.5277380000000 1.0
C      1  0.4697400000000  0.4164090000000  0.5528230000000 1.0
C      1  0.4702690000000  0.4196370000000  0.4400590000000 1.0
C      1  0.4656020000000  0.5358210000000  0.4068430000000 1.0
C      1  0.4649360000000  0.6025290000000  0.5012950000000 1.0
C      1  0.4655820000000  0.5214700000000  0.5964880000000 1.0
C      1  0.4780920000000  0.5607020000000  0.4149700000000 1.0
C      1  0.4805410000000  0.5937530000000  0.5244230000000 1.0
C      1  0.4761960000000  0.4953490000000  0.6033400000000 1.0
C      1  0.4768950000000  0.4029630000000  0.5268460000000 1.0
C      1  0.4800930000000  0.4365370000000  0.4195780000000 1.0
C      1  0.4088840000000  0.5036500000000  0.5542550000000 1.0
C      1  0.4108560000000  0.4437660000000  0.5191660000000 1.0
C      1  0.4112280000000  0.4704200000000  0.4506230000000 1.0
C      1  0.4074970000000  0.5425110000000  0.4605110000000 1.0
C      1  0.4059670000000  0.5591870000000  0.5212170000000 1.0
C      1  0.4541440000000  0.4808470000000  0.4922820000000 1.0
C      1  0.4687630000000  0.4997040000000  0.4756940000000 1.0
C      1  0.4678840000000  0.5252880000000  0.4908220000000 1.0
C      1  0.4566060000000  0.5202980000000  0.5176860000000 1.0
C      1  0.4500280000000  0.4923230000000  0.5171300000000 1.0
C      1  0.5691940000000  0.5083610000000  0.4581480000000 1.0
C      1  0.5881710000000  0.5430940000000  0.5038760000000 1.0
C      1  0.5788980000000  0.5158070000000  0.5407130000000 1.0
C      1  0.5736580000000  0.4723940000000  0.5291190000000 1.0
C      1  0.5744910000000  0.4622480000000  0.4801570000000 1.0
C      1  0.5265640000000  0.4151060000000  0.5248060000000 1.0
C      1  0.5271890000000  0.4474410000000  0.4276780000000 1.0
C      1  0.5256260000000  0.5507820000000  0.4271990000000 1.0
C      1  0.5271130000000  0.5868090000000  0.5276250000000 1.0
C      1  0.5254270000000  0.4979150000000  0.5898050000000 1.0
C      1  0.5562060000000  0.5872930000000  0.4966230000000 1.0
C      1  0.5542520000000  0.5321110000000  0.5899300000000 1.0
C      1  0.5557850000000  0.4241060000000  0.5553580000000 1.0
C      1  0.5564730000000  0.4222710000000  0.4449220000000 1.0
C      1  0.5531710000000  0.5266260000000  0.4093620000000 1.0
C      1  0.4857010000000  0.4817120000000  0.5621540000000 1.0
C      1  0.4831020000000  0.4331770000000  0.4973590000000 1.0
C      1  0.4813070000000  0.4831660000000  0.4413370000000 1.0
C      1  0.4811150000000  0.5527150000000  0.4641160000000 1.0
C      1  0.4761450000000  0.5473520000000  0.5411000000000 1.0
C      1  0.5470450000000  0.5467010000000  0.4480040000000 1.0
C      1  0.5493980000000  0.5617330000000  0.5303550000000 1.0
C      1  0.5481420000000  0.4900750000000  0.5704210000000 1.0
C      1  0.5500480000000  0.4288410000000  0.5122250000000 1.0
C      1  0.5486530000000  0.4657600000000  0.4374680000000 1.0
C      1  0.5941900000000  0.5293790000000  0.5252220000000 1.0
C      1  0.5894650000000  0.4928650000000  0.5367230000000 1.0
C      1  0.5895030000000  0.4717060000000  0.5034380000000 1.0
C      1  0.5876500000000  0.4863790000000  0.4647720000000 1.0
C      1  0.5893460000000  0.5221230000000  0.4859710000000 1.0
C      1  0.5052770000000  0.5647010000000  0.4730380000000 1.0
C      1  0.4994660000000  0.5335190000000  0.5545100000000 1.0
C      1  0.5056300000000  0.4637860000000  0.5562600000000 1.0
C      1  0.5016800000000  0.4417190000000  0.4749270000000 1.0
C      1  0.5035500000000  0.4984910000000  0.4345050000000 1.0
C      1  0.5279970000000  0.4527150000000  0.5918420000000 1.0
C      1  0.5302040000000  0.3970590000000  0.4851480000000 1.0
C      1  0.5258620000000  0.4808000000000  0.3990130000000 1.0
C      1  0.5263480000000  0.5895650000000  0.4505720000000 1.0
C      1  0.5260620000000  0.5738670000000  0.5683520000000 1.0
C      1  0.5059460000000  0.4363870000000  0.5604250000000 1.0
C      1  0.5072080000000  0.4187910000000  0.4577130000000 1.0
C      1  0.5027120000000  0.5129960000000  0.4100820000000 1.0
C      1  0.5021830000000  0.5907920000000  0.4842210000000 1.0
C      1  0.5048840000000  0.5408340000000  0.5833950000000 1.0
C      1  0.5129730000000  0.4798020000000  0.4908040000000 1.0
C      1  0.4983690000000  0.4994120000000  0.4755700000000 1.0
C      1  0.4973480000000  0.5265540000000  0.4975850000000 1.0
C      1  0.5088080000000  0.5078110000000  0.5176470000000 1.0
C      1  0.4993280000000  0.4693990000000  0.5174580000000 1.0
C      1  0.4347640000000  0.5363480000000  0.5566630000000 1.0
C      1  0.4397020000000  0.4579670000000  0.5519980000000 1.0
C      1  0.4365210000000  0.4354790000000  0.4753990000000 1.0
C      1  0.4350310000000  0.5052210000000  0.4311420000000 1.0
C      1  0.4393790000000  0.5663840000000  0.4837170000000 1.0
C      1  0.4776910000000  0.4502660000000  0.5173410000000 1.0
C      1  0.4768290000000  0.4599810000000  0.4610160000000 1.0
C      1  0.4773280000000  0.5295160000000  0.4481010000000 1.0
C      1  0.4736650000000  0.5667460000000  0.5201670000000 1.0
C      1  0.4832470000000  0.5089150000000  0.5541560000000 1.0
C      1  0.5315400000000  0.4978070000000  0.5040610000000 1.0
C      1  0.5482030000000  0.5206320000000  0.5001260000000 1.0
C      1  0.5994350000000  0.4956180000000  0.4892720000000 1.0
C      1  0.4002790000000  0.4988570000000  0.4937290000000 1.0
END
