TITL C-2441162-9305-981 0.0903384159087437 125000 -21244.492037601 0 0 157 (C1) n - 1
REM
REM in /home/bkarasulu/work/CARBON/AIRSS/Generating-Clusters/ReaxFF-fromJPCA2015/Units_Real/with-SteepDescent/Higher-Symm
REM
REM
REM
REM
REM
REM ./C.cell (1df0a924f5614ab8850e4351716899ee)
REM
REM compiler GCC version 9.2.1 20190827 (Red Hat 9.2.1-1)
REM options -cpp -mtune=generic -march=x86-64 -g -O0 -fpre-include=/usr/include/finclude/math-vector-fortran.h
REM seed 1212278282 -1817351857 -1566356888 1251445171 1540626133 25121418 1277394889 -1568810697 -2092244412 -264611929 1426376899 758381660 1343403089 276283857 -248440861 997880870 1642938293 -256024935 244622192 -1900751347 -1805511602 413919399 -203585657 -833917910 459763874 -794833828 -1094152890 -678978754 1001519858 -1012170142 -425614872 -510032208 1840326445
REM
CELL 1.54180   50.00000   50.00000   50.00000   90.00000   90.00000   90.00000
LATT -1
SFAC C  
C      1  0.4895040000000  0.4472660000000  0.5286310000000 1.0
C      1  0.4914730000000  0.5518320000000  0.5318960000000 1.0
C      1  0.4853950000000  0.5083530000000  0.4309070000000 1.0
C      1  0.5157580000000  0.4370310000000  0.5287150000000 1.0
C      1  0.5192380000000  0.5518640000000  0.5404660000000 1.0
C      1  0.5108630000000  0.5014730000000  0.4405290000000 1.0
C      1  0.4764470000000  0.5713320000000  0.5460850000000 1.0
C      1  0.4712510000000  0.4988940000000  0.4076790000000 1.0
C      1  0.4753740000000  0.4244970000000  0.5388420000000 1.0
C      1  0.5310850000000  0.5800130000000  0.5457700000000 1.0
C      1  0.5239770000000  0.5051420000000  0.4157690000000 1.0
C      1  0.5272050000000  0.4212240000000  0.5495180000000 1.0
C      1  0.5074290000000  0.5180590000000  0.5656210000000 1.0
C      1  0.5074600000000  0.5501170000000  0.4591780000000 1.0
C      1  0.5207760000000  0.4446270000000  0.4893330000000 1.0
C      1  0.4792300000000  0.5170850000000  0.5599000000000 1.0
C      1  0.4796230000000  0.5421450000000  0.4614730000000 1.0
C      1  0.4939230000000  0.4368490000000  0.4845250000000 1.0
C      1  0.5174380000000  0.5051450000000  0.5386910000000 1.0
C      1  0.5223140000000  0.5204980000000  0.4821180000000 1.0
C      1  0.5132560000000  0.4728050000000  0.4857910000000 1.0
C      1  0.4950580000000  0.5004630000000  0.5204010000000 1.0
C      1  0.4765410000000  0.5209940000000  0.4814620000000 1.0
C      1  0.4850630000000  0.4646160000000  0.4856350000000 1.0
C      1  0.5502870000000  0.4907750000000  0.5068320000000 1.0
C      1  0.5467690000000  0.5106180000000  0.5280630000000 1.0
C      1  0.5450860000000  0.5032230000000  0.4818360000000 1.0
C      1  0.4461320000000  0.4919840000000  0.5062630000000 1.0
C      1  0.4454020000000  0.5087440000000  0.5286000000000 1.0
C      1  0.4505510000000  0.5081950000000  0.4822010000000 1.0
C      1  0.4410940000000  0.4709540000000  0.4164080000000 1.0
C      1  0.4409670000000  0.4456880000000  0.5631110000000 1.0
C      1  0.4435970000000  0.5848210000000  0.5140050000000 1.0
C      1  0.5590660000000  0.4726640000000  0.4152830000000 1.0
C      1  0.5560100000000  0.4477210000000  0.5675040000000 1.0
C      1  0.5598680000000  0.5815170000000  0.5158880000000 1.0
C      1  0.4088250000000  0.4417800000000  0.5011010000000 1.0
C      1  0.4127400000000  0.5309640000000  0.5503030000000 1.0
C      1  0.4122380000000  0.5263010000000  0.4480730000000 1.0
C      1  0.5875020000000  0.4436370000000  0.5027580000000 1.0
C      1  0.5952720000000  0.5309820000000  0.5528390000000 1.0
C      1  0.5877980000000  0.5276250000000  0.4535640000000 1.0
C      1  0.4698230000000  0.5912210000000  0.5248990000000 1.0
C      1  0.4669140000000  0.4708660000000  0.4037590000000 1.0
C      1  0.4671580000000  0.4331040000000  0.5664210000000 1.0
C      1  0.5341650000000  0.5914020000000  0.5207800000000 1.0
C      1  0.5316480000000  0.4778890000000  0.4067170000000 1.0
C      1  0.5297330000000  0.4360750000000  0.5738500000000 1.0
C      1  0.4459110000000  0.4263640000000  0.4401230000000 1.0
C      1  0.4591910000000  0.4740050000000  0.5924140000000 1.0
C      1  0.4497910000000  0.5872140000000  0.4733140000000 1.0
C      1  0.5533520000000  0.4293550000000  0.4407960000000 1.0
C      1  0.5508730000000  0.4813240000000  0.5902180000000 1.0
C      1  0.5550890000000  0.5900440000000  0.4631460000000 1.0
C      1  0.5650000000000  0.5427370000000  0.4586610000000 1.0
C      1  0.5698950000000  0.4430760000000  0.4806740000000 1.0
C      1  0.5759200000000  0.5151830000000  0.5650770000000 1.0
C      1  0.4282650000000  0.5481890000000  0.4576180000000 1.0
C      1  0.4303800000000  0.4418870000000  0.4831890000000 1.0
C      1  0.4217360000000  0.5139860000000  0.5715890000000 1.0
C      1  0.4834130000000  0.5195370000000  0.6050340000000 1.0
C      1  0.4879410000000  0.5898830000000  0.4346930000000 1.0
C      1  0.4871840000000  0.4112650000000  0.4689200000000 1.0
C      1  0.5105540000000  0.5100020000000  0.5946240000000 1.0
C      1  0.5131250000000  0.5724150000000  0.4398350000000 1.0
C      1  0.5114420000000  0.3980070000000  0.4563300000000 1.0
C      1  0.5510190000000  0.4875450000000  0.4584680000000 1.0
C      1  0.5419680000000  0.4662080000000  0.5228000000000 1.0
C      1  0.5432540000000  0.5396450000000  0.5231360000000 1.0
C      1  0.4548870000000  0.4928490000000  0.4579580000000 1.0
C      1  0.4546090000000  0.4674010000000  0.5188600000000 1.0
C      1  0.4506240000000  0.5364540000000  0.5205760000000 1.0
C      1  0.4924380000000  0.5474980000000  0.5958880000000 1.0
C      1  0.4813850000000  0.5712520000000  0.4132980000000 1.0
C      1  0.4924060000000  0.3947310000000  0.4952640000000 1.0
C      1  0.5196940000000  0.5406940000000  0.6042860000000 1.0
C      1  0.5077610000000  0.5578690000000  0.4122280000000 1.0
C      1  0.5187170000000  0.3879310000000  0.4827890000000 1.0
C      1  0.5322520000000  0.5434140000000  0.4954880000000 1.0
C      1  0.5209700000000  0.4790050000000  0.4573590000000 1.0
C      1  0.5242530000000  0.4782810000000  0.5421080000000 1.0
C      1  0.4765550000000  0.5434340000000  0.5084930000000 1.0
C      1  0.4724390000000  0.4710590000000  0.4609570000000 1.0
C      1  0.4798510000000  0.4766230000000  0.5303680000000 1.0
C      1  0.4370320000000  0.5599400000000  0.5285180000000 1.0
C      1  0.4391070000000  0.4945020000000  0.4337720000000 1.0
C      1  0.4375310000000  0.4489400000000  0.5343920000000 1.0
C      1  0.5700950000000  0.5536110000000  0.5231580000000 1.0
C      1  0.5629530000000  0.4957420000000  0.4322070000000 1.0
C      1  0.5601500000000  0.4477570000000  0.5381820000000 1.0
C      1  0.5687830000000  0.4288740000000  0.5189250000000 1.0
C      1  0.5765080000000  0.5532910000000  0.5525900000000 1.0
C      1  0.5772160000000  0.5198220000000  0.4274790000000 1.0
C      1  0.4246810000000  0.4269620000000  0.5203520000000 1.0
C      1  0.4340080000000  0.5501310000000  0.5554210000000 1.0
C      1  0.4322050000000  0.5216920000000  0.4274920000000 1.0
C      1  0.5934250000000  0.4886930000000  0.5290530000000 1.0
C      1  0.5896180000000  0.5313030000000  0.5050110000000 1.0
C      1  0.5911500000000  0.4856660000000  0.4800770000000 1.0
C      1  0.4002150000000  0.4886300000000  0.5240970000000 1.0
C      1  0.4082540000000  0.5267720000000  0.4959940000000 1.0
C      1  0.4086890000000  0.4815990000000  0.4746960000000 1.0
C      1  0.5151590000000  0.5904010000000  0.4997070000000 1.0
C      1  0.5151850000000  0.4550830000000  0.4148770000000 1.0
C      1  0.5083140000000  0.4541270000000  0.5828170000000 1.0
C      1  0.4865540000000  0.5905020000000  0.5011640000000 1.0
C      1  0.4855080000000  0.4523530000000  0.4151400000000 1.0
C      1  0.4788220000000  0.4525250000000  0.5849520000000 1.0
C      1  0.4554000000000  0.5668160000000  0.4263730000000 1.0
C      1  0.4453610000000  0.4053560000000  0.4750280000000 1.0
C      1  0.4440090000000  0.5235080000000  0.5896700000000 1.0
C      1  0.5521810000000  0.5694260000000  0.4279570000000 1.0
C      1  0.5446670000000  0.4015850000000  0.4806490000000 1.0
C      1  0.5460370000000  0.5322630000000  0.5959680000000 1.0
C      1  0.5149560000000  0.4083050000000  0.5269080000000 1.0
C      1  0.5150800000000  0.5686850000000  0.5669010000000 1.0
C      1  0.5134180000000  0.5303190000000  0.4038430000000 1.0
C      1  0.4868410000000  0.4017100000000  0.5233600000000 1.0
C      1  0.4870420000000  0.5681330000000  0.5740410000000 1.0
C      1  0.4852080000000  0.5238080000000  0.4062310000000 1.0
C      1  0.5409860000000  0.5034570000000  0.6034640000000 1.0
C      1  0.5407650000000  0.5920180000000  0.4398800000000 1.0
C      1  0.5403700000000  0.4064700000000  0.4519600000000 1.0
C      1  0.4603780000000  0.5021750000000  0.6019930000000 1.0
C      1  0.4602610000000  0.5881420000000  0.4472320000000 1.0
C      1  0.4596580000000  0.4048930000000  0.4508440000000 1.0
C      1  0.4583920000000  0.5377510000000  0.5687380000000 1.0
C      1  0.4512590000000  0.5430170000000  0.4409720000000 1.0
C      1  0.4442810000000  0.4205270000000  0.4988690000000 1.0
C      1  0.5582560000000  0.5371290000000  0.5698450000000 1.0
C      1  0.5563530000000  0.5414350000000  0.4298410000000 1.0
C      1  0.5486940000000  0.4281090000000  0.4932490000000 1.0
C      1  0.4046780000000  0.5106120000000  0.4717970000000 1.0
C      1  0.4003320000000  0.4702430000000  0.5007020000000 1.0
C      1  0.4044480000000  0.5179540000000  0.5246280000000 1.0
C      1  0.5916190000000  0.5151380000000  0.4805900000000 1.0
C      1  0.5956510000000  0.4723680000000  0.5049930000000 1.0
C      1  0.6008880000000  0.5169650000000  0.5267740000000 1.0
C      1  0.4373730000000  0.4970130000000  0.5544330000000 1.0
C      1  0.4304890000000  0.5421490000000  0.4851460000000 1.0
C      1  0.4273950000000  0.4623960000000  0.4640480000000 1.0
C      1  0.5703120000000  0.4948270000000  0.5471930000000 1.0
C      1  0.5559860000000  0.5519550000000  0.4830070000000 1.0
C      1  0.5722340000000  0.4667190000000  0.4645150000000 1.0
C      1  0.4863260000000  0.4540150000000  0.4429280000000 1.0
C      1  0.4814920000000  0.4878090000000  0.5592280000000 1.0
C      1  0.4829550000000  0.5638670000000  0.4885240000000 1.0
C      1  0.5141470000000  0.4539820000000  0.4441520000000 1.0
C      1  0.5076520000000  0.4756310000000  0.5638060000000 1.0
C      1  0.5119690000000  0.5642190000000  0.4853770000000 1.0
C      1  0.4345570000000  0.5725610000000  0.4894180000000 1.0
C      1  0.4331520000000  0.4511590000000  0.4370450000000 1.0
C      1  0.4384800000000  0.4734040000000  0.5720980000000 1.0
C      1  0.5659400000000  0.5792450000000  0.4869600000000 1.0
C      1  0.5664730000000  0.4520650000000  0.4352890000000 1.0
C      1  0.5637290000000  0.4746200000000  0.5695180000000 1.0
C      1  0.4991470000000  0.5074520000000  0.4930230000000 1.0
END
