TITL C-2441165-58-1466 0.0577878664405863 125000 -18434.5747040817 0 0 136 (C1) n - 1
REM
REM in /home/bkarasulu/work/CARBON/AIRSS/Generating-Clusters/ReaxFF-fromJPCA2015/Units_Real/with-SteepDescent/Higher-Symm
REM
REM
REM
REM
REM
REM ./C.cell (1df0a924f5614ab8850e4351716899ee)
REM
REM compiler GCC version 9.2.1 20190827 (Red Hat 9.2.1-1)
REM options -cpp -mtune=generic -march=x86-64 -g -O0 -fpre-include=/usr/include/finclude/math-vector-fortran.h
REM seed 1084505192 1129462299 -1203865607 -647961119 140089923 -86885583 -2041839280 -1714661844 -836307103 -328399999 -664374457 1350550536 202491503 -516016284 -631117350 385488622 1039996842 1942877118 -182427009 -936919622 -424497198 -854783424 1805159148 -2137198462 763094078 354172903 1803944813 1747031865 -1309357411 -73894769 -842154562 -1214442989 -633282037
REM
CELL 1.54180   50.00000   50.00000   50.00000   90.00000   90.00000   90.00000
LATT -1
SFAC C  
C      1  0.5146870000000  0.5463590000000  0.5434150000000 1.0
C      1  0.4567120000000  0.5450510000000  0.4875880000000 1.0
C      1  0.5281720000000  0.5452730000000  0.4687560000000 1.0
C      1  0.5053590000000  0.5038110000000  0.5642440000000 1.0
C      1  0.4409210000000  0.5009780000000  0.4746320000000 1.0
C      1  0.5521220000000  0.5107310000000  0.4571230000000 1.0
C      1  0.5103950000000  0.4557380000000  0.5931100000000 1.0
C      1  0.4155290000000  0.4568460000000  0.4596780000000 1.0
C      1  0.5682680000000  0.4566580000000  0.4445920000000 1.0
C      1  0.4429800000000  0.4904490000000  0.4262690000000 1.0
C      1  0.5886040000000  0.4926550000000  0.4790160000000 1.0
C      1  0.4712200000000  0.4918060000000  0.5843480000000 1.0
C      1  0.5339480000000  0.4217510000000  0.4328250000000 1.0
C      1  0.5443930000000  0.4195750000000  0.5517560000000 1.0
C      1  0.4263330000000  0.4229930000000  0.5012490000000 1.0
C      1  0.4764860000000  0.5314150000000  0.4175970000000 1.0
C      1  0.5868270000000  0.5304520000000  0.5212930000000 1.0
C      1  0.4390950000000  0.5316870000000  0.5619060000000 1.0
C      1  0.4226900000000  0.5569060000000  0.4630620000000 1.0
C      1  0.5682870000000  0.5612290000000  0.4539540000000 1.0
C      1  0.5035170000000  0.5607400000000  0.5851070000000 1.0
C      1  0.4166120000000  0.4654570000000  0.5332990000000 1.0
C      1  0.5048970000000  0.4622240000000  0.4187260000000 1.0
C      1  0.5709810000000  0.4652560000000  0.5578680000000 1.0
C      1  0.4319760000000  0.5174560000000  0.4313370000000 1.0
C      1  0.5929330000000  0.5233850000000  0.4748090000000 1.0
C      1  0.4743750000000  0.5205380000000  0.5927380000000 1.0
C      1  0.5283570000000  0.4673310000000  0.5503640000000 1.0
C      1  0.4441730000000  0.4562170000000  0.4940080000000 1.0
C      1  0.5221550000000  0.4694630000000  0.4420060000000 1.0
C      1  0.4206080000000  0.5540800000000  0.5178460000000 1.0
C      1  0.5234190000000  0.5458400000000  0.4212530000000 1.0
C      1  0.5594820000000  0.5542220000000  0.5600720000000 1.0
C      1  0.5715890000000  0.5153400000000  0.4369050000000 1.0
C      1  0.5189630000000  0.5108130000000  0.5903070000000 1.0
C      1  0.4116240000000  0.5097250000000  0.4729500000000 1.0
C      1  0.4814460000000  0.5208760000000  0.5283450000000 1.0
C      1  0.4855110000000  0.5185850000000  0.4700420000000 1.0
C      1  0.5351740000000  0.5185490000000  0.5034510000000 1.0
C      1  0.5348290000000  0.4637700000000  0.5786820000000 1.0
C      1  0.4149410000000  0.4623280000000  0.4894910000000 1.0
C      1  0.5469520000000  0.4672170000000  0.4258130000000 1.0
C      1  0.4161890000000  0.5255980000000  0.5189080000000 1.0
C      1  0.5291180000000  0.5198040000000  0.4111670000000 1.0
C      1  0.5541160000000  0.5251380000000  0.5616510000000 1.0
C      1  0.4693540000000  0.5806020000000  0.4648800000000 1.0
C      1  0.5418350000000  0.5821270000000  0.4902880000000 1.0
C      1  0.4812360000000  0.5905770000000  0.5462050000000 1.0
C      1  0.5856520000000  0.5373460000000  0.4506310000000 1.0
C      1  0.5004000000000  0.5313430000000  0.5981810000000 1.0
C      1  0.4148260000000  0.5296520000000  0.4524360000000 1.0
C      1  0.4840770000000  0.5023370000000  0.4195460000000 1.0
C      1  0.5777440000000  0.5016240000000  0.5277140000000 1.0
C      1  0.4379040000000  0.5030030000000  0.5531850000000 1.0
C      1  0.5379740000000  0.5622440000000  0.4455250000000 1.0
C      1  0.5309650000000  0.5653270000000  0.5589910000000 1.0
C      1  0.4320510000000  0.5604350000000  0.4909770000000 1.0
C      1  0.4936120000000  0.5667160000000  0.4519270000000 1.0
C      1  0.5385980000000  0.5677580000000  0.5153180000000 1.0
C      1  0.4621510000000  0.5604370000000  0.5250990000000 1.0
C      1  0.5235820000000  0.4949140000000  0.5420440000000 1.0
C      1  0.4535060000000  0.5007310000000  0.5014920000000 1.0
C      1  0.5262320000000  0.4972790000000  0.4567600000000 1.0
C      1  0.5009210000000  0.4453780000000  0.4575920000000 1.0
C      1  0.5314710000000  0.4499030000000  0.5292870000000 1.0
C      1  0.4650620000000  0.4398530000000  0.5160110000000 1.0
C      1  0.4932920000000  0.4987130000000  0.4476570000000 1.0
C      1  0.5506100000000  0.5104530000000  0.5345840000000 1.0
C      1  0.4429550000000  0.5118840000000  0.5253220000000 1.0
C      1  0.4505820000000  0.4488120000000  0.5626300000000 1.0
C      1  0.4659620000000  0.4477590000000  0.4241520000000 1.0
C      1  0.5823560000000  0.4472790000000  0.5129180000000 1.0
C      1  0.4470830000000  0.5669660000000  0.4519320000000 1.0
C      1  0.5662520000000  0.5683180000000  0.4808460000000 1.0
C      1  0.4792540000000  0.5696430000000  0.5693910000000 1.0
C      1  0.4620990000000  0.4235380000000  0.4685540000000 1.0
C      1  0.5392700000000  0.4268740000000  0.4832380000000 1.0
C      1  0.4934750000000  0.4235800000000  0.5519630000000 1.0
C      1  0.4817500000000  0.4757600000000  0.4833440000000 1.0
C      1  0.5238540000000  0.4730040000000  0.4922060000000 1.0
C      1  0.4950160000000  0.4722830000000  0.5199960000000 1.0
C      1  0.5007800000000  0.5450570000000  0.4743300000000 1.0
C      1  0.5232810000000  0.5433540000000  0.5164030000000 1.0
C      1  0.4772460000000  0.5425800000000  0.5078740000000 1.0
C      1  0.5131100000000  0.5908080000000  0.4822690000000 1.0
C      1  0.5058450000000  0.5944720000000  0.5364160000000 1.0
C      1  0.4839000000000  0.5879330000000  0.4896440000000 1.0
C      1  0.4849650000000  0.4715840000000  0.4571560000000 1.0
C      1  0.5456280000000  0.4650620000000  0.5061030000000 1.0
C      1  0.4738950000000  0.4688620000000  0.5344410000000 1.0
C      1  0.4017190000000  0.5081040000000  0.5005420000000 1.0
C      1  0.5583020000000  0.5150580000000  0.4105330000000 1.0
C      1  0.5479560000000  0.5088140000000  0.5851310000000 1.0
C      1  0.5608460000000  0.4385210000000  0.5566100000000 1.0
C      1  0.4200380000000  0.4383260000000  0.5227460000000 1.0
C      1  0.5173010000000  0.4367520000000  0.4193520000000 1.0
C      1  0.4642500000000  0.5413710000000  0.5738830000000 1.0
C      1  0.4529240000000  0.5390080000000  0.4345760000000 1.0
C      1  0.5812200000000  0.5423590000000  0.4933670000000 1.0
C      1  0.5822370000000  0.4720300000000  0.5306410000000 1.0
C      1  0.4338270000000  0.4733060000000  0.5554430000000 1.0
C      1  0.4718830000000  0.4760710000000  0.4143590000000 1.0
C      1  0.5199130000000  0.4233580000000  0.5380190000000 1.0
C      1  0.4774340000000  0.4248110000000  0.4933670000000 1.0
C      1  0.5055360000000  0.4321380000000  0.4850470000000 1.0
C      1  0.4552320000000  0.4705560000000  0.4715860000000 1.0
C      1  0.5647560000000  0.4813230000000  0.4918090000000 1.0
C      1  0.4803010000000  0.4822040000000  0.5584700000000 1.0
C      1  0.4959880000000  0.5513770000000  0.4233530000000 1.0
C      1  0.5776650000000  0.5493650000000  0.5392790000000 1.0
C      1  0.4380400000000  0.5537330000000  0.5415790000000 1.0
C      1  0.5584890000000  0.4333960000000  0.4623430000000 1.0
C      1  0.4951200000000  0.4336020000000  0.5793980000000 1.0
C      1  0.4336330000000  0.4312560000000  0.4602860000000 1.0
C      1  0.4403020000000  0.4381830000000  0.4335790000000 1.0
C      1  0.5800400000000  0.4353610000000  0.4859820000000 1.0
C      1  0.4699150000000  0.4476240000000  0.5844590000000 1.0
C      1  0.5500780000000  0.5290670000000  0.4800690000000 1.0
C      1  0.4929530000000  0.5293650000000  0.5535550000000 1.0
C      1  0.4583400000000  0.5270500000000  0.4653580000000 1.0
C      1  0.4713720000000  0.5871170000000  0.5173110000000 1.0
C      1  0.5183340000000  0.5840980000000  0.4553570000000 1.0
C      1  0.5323090000000  0.5865010000000  0.5376630000000 1.0
C      1  0.4255560000000  0.4763790000000  0.4411600000000 1.0
C      1  0.5858570000000  0.4743210000000  0.4578620000000 1.0
C      1  0.4854390000000  0.4704440000000  0.5985850000000 1.0
C      1  0.5419270000000  0.4918220000000  0.4098150000000 1.0
C      1  0.5575150000000  0.4818180000000  0.5789600000000 1.0
C      1  0.4050990000000  0.4805830000000  0.5101140000000 1.0
C      1  0.4807550000000  0.5012000000000  0.4932070000000 1.0
C      1  0.5238520000000  0.4985440000000  0.4857040000000 1.0
C      1  0.4996600000000  0.4993630000000  0.5221440000000 1.0
C      1  0.4792380000000  0.4301830000000  0.4452200000000 1.0
C      1  0.5595090000000  0.4260930000000  0.5037740000000 1.0
C      1  0.4653050000000  0.4297830000000  0.5440750000000 1.0
C      1  0.5013470000000  0.4602020000000  0.4976220000000 1.0
END
