TITL C-2441162-9305-944 0.12077271738794 125000 -15989.0015580907 0 0 127 (C1) n - 1
REM
REM in /home/bkarasulu/work/CARBON/AIRSS/Generating-Clusters/ReaxFF-fromJPCA2015/Units_Real/with-SteepDescent/Higher-Symm
REM
REM
REM
REM
REM
REM ./C.cell (1df0a924f5614ab8850e4351716899ee)
REM
REM compiler GCC version 9.2.1 20190827 (Red Hat 9.2.1-1)
REM options -cpp -mtune=generic -march=x86-64 -g -O0 -fpre-include=/usr/include/finclude/math-vector-fortran.h
REM seed 2142318066 1920433753 -1521457838 934394878 -1979562972 -1749456759 177126652 -1754779610 -239847746 -1561760360 -1153124865 1593063197 1609944856 -1572168747 867591312 1326499353 -248370796 1108770578 576999583 -1131797043 936317909 340577662 -2015590981 1674330702 2112677936 -597854509 1304690957 2075685846 204821989 -216805724 571485764 63832188 343521664
REM
CELL 1.54180   50.00000   50.00000   50.00000   90.00000   90.00000   90.00000
LATT -1
SFAC C  
C      1  0.4921850000000  0.5298640000000  0.4247630000000 1.0
C      1  0.4712440000000  0.4115860000000  0.4679660000000 1.0
C      1  0.4787730000000  0.4698710000000  0.5704030000000 1.0
C      1  0.4841650000000  0.5823360000000  0.5291400000000 1.0
C      1  0.5190080000000  0.5328720000000  0.4148890000000 1.0
C      1  0.5134490000000  0.4253470000000  0.4640680000000 1.0
C      1  0.5262380000000  0.4681820000000  0.5854350000000 1.0
C      1  0.5149570000000  0.5807200000000  0.5299980000000 1.0
C      1  0.4556560000000  0.4782810000000  0.4238560000000 1.0
C      1  0.4478240000000  0.4196540000000  0.5249350000000 1.0
C      1  0.4472550000000  0.5253010000000  0.5799330000000 1.0
C      1  0.4453440000000  0.5775960000000  0.4763620000000 1.0
C      1  0.5504180000000  0.4755280000000  0.4224050000000 1.0
C      1  0.5461770000000  0.4199470000000  0.5231220000000 1.0
C      1  0.5543440000000  0.5245900000000  0.5794360000000 1.0
C      1  0.5537060000000  0.5789010000000  0.4780910000000 1.0
C      1  0.4596460000000  0.5639310000000  0.4542910000000 1.0
C      1  0.4595130000000  0.4532820000000  0.4340550000000 1.0
C      1  0.4608550000000  0.4345820000000  0.5451230000000 1.0
C      1  0.4548480000000  0.5496320000000  0.5693860000000 1.0
C      1  0.5430660000000  0.5697210000000  0.4534820000000 1.0
C      1  0.5452570000000  0.4504680000000  0.4306540000000 1.0
C      1  0.5469180000000  0.4340000000000  0.5476480000000 1.0
C      1  0.5459880000000  0.5491950000000  0.5672590000000 1.0
C      1  0.4246080000000  0.5259490000000  0.5597300000000 1.0
C      1  0.4241870000000  0.5576600000000  0.4714490000000 1.0
C      1  0.4294650000000  0.4789300000000  0.4388910000000 1.0
C      1  0.4260230000000  0.4411720000000  0.5248670000000 1.0
C      1  0.5745170000000  0.5213680000000  0.5574880000000 1.0
C      1  0.5771350000000  0.5604700000000  0.4739120000000 1.0
C      1  0.5742780000000  0.4748670000000  0.4423200000000 1.0
C      1  0.5754780000000  0.4464050000000  0.5225270000000 1.0
C      1  0.4527950000000  0.4205020000000  0.4858310000000 1.0
C      1  0.4560550000000  0.4857690000000  0.5773790000000 1.0
C      1  0.4578470000000  0.5756240000000  0.5157440000000 1.0
C      1  0.4670730000000  0.5174230000000  0.4224030000000 1.0
C      1  0.5348210000000  0.4222120000000  0.4845730000000 1.0
C      1  0.5469680000000  0.4845120000000  0.5792530000000 1.0
C      1  0.5400620000000  0.5733540000000  0.5164780000000 1.0
C      1  0.5405920000000  0.5151690000000  0.4239360000000 1.0
C      1  0.5884980000000  0.5359420000000  0.4835480000000 1.0
C      1  0.5868700000000  0.4879350000000  0.4640560000000 1.0
C      1  0.5990870000000  0.4625660000000  0.5174760000000 1.0
C      1  0.5875790000000  0.5148710000000  0.5315080000000 1.0
C      1  0.4088560000000  0.5369300000000  0.4867270000000 1.0
C      1  0.4099810000000  0.4857700000000  0.4626700000000 1.0
C      1  0.4130830000000  0.4652530000000  0.5137700000000 1.0
C      1  0.4133290000000  0.5150990000000  0.5348340000000 1.0
C      1  0.5103920000000  0.4530850000000  0.5091140000000 1.0
C      1  0.5209830000000  0.5078390000000  0.5538440000000 1.0
C      1  0.5098930000000  0.5523690000000  0.4955340000000 1.0
C      1  0.5204920000000  0.4960290000000  0.4531120000000 1.0
C      1  0.4828470000000  0.4463620000000  0.5074730000000 1.0
C      1  0.4921220000000  0.5072390000000  0.5539430000000 1.0
C      1  0.4839470000000  0.5553720000000  0.4907760000000 1.0
C      1  0.4902300000000  0.4944680000000  0.4547680000000 1.0
C      1  0.5140610000000  0.5873840000000  0.5583710000000 1.0
C      1  0.5236390000000  0.5591990000000  0.4199330000000 1.0
C      1  0.5273160000000  0.4099080000000  0.4419750000000 1.0
C      1  0.5130710000000  0.4445010000000  0.5861220000000 1.0
C      1  0.4845930000000  0.5875760000000  0.5578040000000 1.0
C      1  0.4727440000000  0.5472990000000  0.4156120000000 1.0
C      1  0.4778950000000  0.4112570000000  0.4430010000000 1.0
C      1  0.4843820000000  0.4453800000000  0.5840960000000 1.0
C      1  0.4203390000000  0.4697970000000  0.4861700000000 1.0
C      1  0.4150530000000  0.4864290000000  0.5340460000000 1.0
C      1  0.4207770000000  0.5343170000000  0.5135910000000 1.0
C      1  0.4069340000000  0.5119690000000  0.4730740000000 1.0
C      1  0.5835480000000  0.4773710000000  0.4950890000000 1.0
C      1  0.5939720000000  0.4901760000000  0.5198740000000 1.0
C      1  0.5826660000000  0.5352530000000  0.5116480000000 1.0
C      1  0.5808940000000  0.5153030000000  0.4622390000000 1.0
C      1  0.5216540000000  0.5748580000000  0.4387910000000 1.0
C      1  0.5233640000000  0.4352650000000  0.4257900000000 1.0
C      1  0.5207270000000  0.4311980000000  0.5608150000000 1.0
C      1  0.5192830000000  0.5601400000000  0.5690260000000 1.0
C      1  0.4754050000000  0.5688600000000  0.4332100000000 1.0
C      1  0.4810790000000  0.4371670000000  0.4315060000000 1.0
C      1  0.4785550000000  0.4273800000000  0.5633250000000 1.0
C      1  0.4787300000000  0.5622260000000  0.5719860000000 1.0
C      1  0.4724330000000  0.5296690000000  0.4850470000000 1.0
C      1  0.4464530000000  0.4996450000000  0.4744120000000 1.0
C      1  0.4679260000000  0.4634070000000  0.4920240000000 1.0
C      1  0.4623460000000  0.4987740000000  0.5278300000000 1.0
C      1  0.5410060000000  0.5265300000000  0.4907450000000 1.0
C      1  0.5352380000000  0.4849230000000  0.4783760000000 1.0
C      1  0.5629850000000  0.4576500000000  0.4999600000000 1.0
C      1  0.5378080000000  0.4954660000000  0.5331080000000 1.0
C      1  0.4402880000000  0.4539070000000  0.5453070000000 1.0
C      1  0.4370860000000  0.5497700000000  0.5499100000000 1.0
C      1  0.4391100000000  0.5430650000000  0.4519610000000 1.0
C      1  0.4382890000000  0.4540020000000  0.4509810000000 1.0
C      1  0.5650150000000  0.4559820000000  0.5464720000000 1.0
C      1  0.5603210000000  0.5431310000000  0.5441820000000 1.0
C      1  0.5626810000000  0.5508110000000  0.4505060000000 1.0
C      1  0.5627850000000  0.4499840000000  0.4518540000000 1.0
C      1  0.5602060000000  0.5231910000000  0.4439080000000 1.0
C      1  0.5554550000000  0.4415900000000  0.4783150000000 1.0
C      1  0.5585030000000  0.4833870000000  0.5515900000000 1.0
C      1  0.5546540000000  0.5467320000000  0.5154770000000 1.0
C      1  0.4461410000000  0.5151780000000  0.4494950000000 1.0
C      1  0.4430020000000  0.4525420000000  0.4793880000000 1.0
C      1  0.4422960000000  0.4834400000000  0.5467940000000 1.0
C      1  0.4405000000000  0.5529220000000  0.5222290000000 1.0
C      1  0.5095040000000  0.4789160000000  0.5250110000000 1.0
C      1  0.5051640000000  0.5268390000000  0.5118360000000 1.0
C      1  0.5214260000000  0.5238730000000  0.4690240000000 1.0
C      1  0.5141470000000  0.4662750000000  0.4841970000000 1.0
C      1  0.4843520000000  0.4826990000000  0.5401320000000 1.0
C      1  0.4883350000000  0.5296590000000  0.5357170000000 1.0
C      1  0.4925440000000  0.5208470000000  0.4675740000000 1.0
C      1  0.4889680000000  0.4797500000000  0.4809130000000 1.0
C      1  0.4716070000000  0.5094820000000  0.5794040000000 1.0
C      1  0.4701800000000  0.5812060000000  0.4907540000000 1.0
C      1  0.4821950000000  0.4912720000000  0.4249840000000 1.0
C      1  0.4722950000000  0.4191510000000  0.5075930000000 1.0
C      1  0.5306170000000  0.5079500000000  0.5805850000000 1.0
C      1  0.5274750000000  0.5752930000000  0.4913400000000 1.0
C      1  0.5248870000000  0.4903800000000  0.4238690000000 1.0
C      1  0.5208220000000  0.4223810000000  0.5114640000000 1.0
C      1  0.4994340000000  0.4269180000000  0.5449990000000 1.0
C      1  0.4970050000000  0.5459870000000  0.5582520000000 1.0
C      1  0.5047500000000  0.4456310000000  0.4444050000000 1.0
C      1  0.4979570000000  0.5714270000000  0.4467620000000 1.0
C      1  0.4579860000000  0.5075270000000  0.5001080000000 1.0
C      1  0.5442370000000  0.5005890000000  0.5009120000000 1.0
C      1  0.5015410000000  0.4986420000000  0.5046670000000 1.0
END
