TITL C-2441166-8118-505 0.0267491275592992 125000 -6052.83360433658 0 0 52 (C1) n - 1
REM
REM in /home/bkarasulu/work/CARBON/AIRSS/Generating-Clusters/ReaxFF-fromJPCA2015/Units_Real/with-SteepDescent/Higher-Symm
REM
REM
REM
REM
REM
REM ./C.cell (1df0a924f5614ab8850e4351716899ee)
REM
REM compiler GCC version 9.2.1 20190827 (Red Hat 9.2.1-1)
REM options -cpp -mtune=generic -march=x86-64 -g -O0 -fpre-include=/usr/include/finclude/math-vector-fortran.h
REM seed -2092706697 1480164905 494446212 -2076797910 -308806247 1137266559 1686852830 -1660904637 622171745 1263375965 -841973164 1899432081 1953112238 631338128 817765520 -1512093328 1996941299 -806999245 -1834708240 231660315 1367704560 1260279418 1845982805 2107111171 1060934864 53527155 -839186123 318459602 235037691 66038219 1207176822 1195006908 -739101767
REM
CELL 1.54180   50.00000   50.00000   50.00000   90.00000   90.00000   90.00000
LATT -1
SFAC C  
C      1  0.4659480000000  0.4937900000000  0.5571800000000 1.0
C      1  0.4864500000000  0.5294450000000  0.5563630000000 1.0
C      1  0.5292370000000  0.5157460000000  0.5550710000000 1.0
C      1  0.5272500000000  0.4855380000000  0.5595910000000 1.0
C      1  0.4938360000000  0.4633310000000  0.5526390000000 1.0
C      1  0.4653310000000  0.4635470000000  0.5510480000000 1.0
C      1  0.4504200000000  0.5142480000000  0.5429500000000 1.0
C      1  0.5012630000000  0.5518770000000  0.5467190000000 1.0
C      1  0.5557260000000  0.5128100000000  0.5459520000000 1.0
C      1  0.5330440000000  0.4595880000000  0.5445530000000 1.0
C      1  0.5430610000000  0.5066200000000  0.4597830000000 1.0
C      1  0.5216200000000  0.4625920000000  0.4608230000000 1.0
C      1  0.4706540000000  0.4709780000000  0.4628740000000 1.0
C      1  0.4642470000000  0.5195270000000  0.4611440000000 1.0
C      1  0.5078380000000  0.5397800000000  0.4622510000000 1.0
C      1  0.5267160000000  0.5016140000000  0.4845680000000 1.0
C      1  0.5040650000000  0.4686240000000  0.4839430000000 1.0
C      1  0.4696630000000  0.4865060000000  0.4895090000000 1.0
C      1  0.4813310000000  0.5121180000000  0.4845590000000 1.0
C      1  0.5215510000000  0.5274830000000  0.4881340000000 1.0
C      1  0.4933270000000  0.5591880000000  0.4988390000000 1.0
C      1  0.5599910000000  0.5268600000000  0.4974880000000 1.0
C      1  0.5438680000000  0.4545760000000  0.4978860000000 1.0
C      1  0.4703760000000  0.4462470000000  0.5001270000000 1.0
C      1  0.4393620000000  0.5091500000000  0.4968830000000 1.0
C      1  0.5266080000000  0.4966010000000  0.4378150000000 1.0
C      1  0.5078020000000  0.4744210000000  0.4372240000000 1.0
C      1  0.4807640000000  0.4849880000000  0.4390490000000 1.0
C      1  0.4821820000000  0.5149860000000  0.4386250000000 1.0
C      1  0.5109550000000  0.5222420000000  0.4388860000000 1.0
C      1  0.4994460000000  0.4404060000000  0.4912840000000 1.0
C      1  0.4408210000000  0.4812410000000  0.4901600000000 1.0
C      1  0.4661640000000  0.5475890000000  0.4955970000000 1.0
C      1  0.5414560000000  0.5481810000000  0.4908920000000 1.0
C      1  0.5575960000000  0.4811320000000  0.4950620000000 1.0
C      1  0.4533730000000  0.4538510000000  0.4776870000000 1.0
C      1  0.4454300000000  0.5318430000000  0.4798680000000 1.0
C      1  0.5123990000000  0.5635420000000  0.4776570000000 1.0
C      1  0.5657440000000  0.5051530000000  0.4783960000000 1.0
C      1  0.5295520000000  0.4395700000000  0.4774150000000 1.0
C      1  0.4824080000000  0.5319380000000  0.5293940000000 1.0
C      1  0.5211600000000  0.5224020000000  0.5274390000000 1.0
C      1  0.5340450000000  0.4840800000000  0.5322810000000 1.0
C      1  0.4997610000000  0.4677120000000  0.5247490000000 1.0
C      1  0.4683330000000  0.4951560000000  0.5273680000000 1.0
C      1  0.5612060000000  0.5017930000000  0.5196620000000 1.0
C      1  0.5232790000000  0.4478690000000  0.5200480000000 1.0
C      1  0.4601780000000  0.4633470000000  0.5223170000000 1.0
C      1  0.4548940000000  0.5331630000000  0.5192600000000 1.0
C      1  0.5148970000000  0.5521190000000  0.5209550000000 1.0
C      1  0.5025040000000  0.4971450000000  0.5217820000000 1.0
C      1  0.5030770000000  0.4964910000000  0.4743820000000 1.0
END
