TITL C-2441161-5029-561 0.00508958262043202 125000 -5742.58302800695 0 0 42 (C1) n - 1
REM
REM in /home/bkarasulu/work/CARBON/AIRSS/Generating-Clusters/ReaxFF-fromJPCA2015/Units_Real/with-SteepDescent/Higher-Symm
REM
REM
REM
REM
REM
REM ./C.cell (1df0a924f5614ab8850e4351716899ee)
REM
REM compiler GCC version 9.2.1 20190827 (Red Hat 9.2.1-1)
REM options -cpp -mtune=generic -march=x86-64 -g -O0 -fpre-include=/usr/include/finclude/math-vector-fortran.h
REM seed -1288152183 -2007772867 -409834805 909411915 -910912750 -1867993067 -358190656 778258008 -1586073622 373274908 -382993087 -428579954 1818918466 -1452102255 274825479 858390996 501769977 456433519 90589994 -430278302 -1599492224 -1455531734 1026142839 175212889 -426977262 -302793853 161828697 168159315 2023020684 -1252182076 1621378816 -1170126290 -573723604
REM
CELL 1.54180   50.00000   50.00000   50.00000   90.00000   90.00000   90.00000
LATT -1
SFAC C  
C      1  0.4857840000000  0.5448310000000  0.4506860000000 1.0
C      1  0.5504080000000  0.5445700000000  0.5127390000000 1.0
C      1  0.4632170000000  0.5453760000000  0.5370900000000 1.0
C      1  0.4853980000000  0.5437780000000  0.5492880000000 1.0
C      1  0.5499900000000  0.5444760000000  0.4870720000000 1.0
C      1  0.4635390000000  0.5457190000000  0.4629070000000 1.0
C      1  0.5418150000000  0.5200420000000  0.4565440000000 1.0
C      1  0.5163870000000  0.5201700000000  0.5577340000000 1.0
C      1  0.4421030000000  0.5200040000000  0.4849210000000 1.0
C      1  0.5431690000000  0.5199500000000  0.5441970000000 1.0
C      1  0.5160880000000  0.5201460000000  0.4426350000000 1.0
C      1  0.4411670000000  0.5199570000000  0.5144620000000 1.0
C      1  0.5247880000000  0.4576670000000  0.4857050000000 1.0
C      1  0.4999930000000  0.4574810000000  0.5285730000000 1.0
C      1  0.4751530000000  0.4576340000000  0.4857710000000 1.0
C      1  0.5247560000000  0.4576730000000  0.5142420000000 1.0
C      1  0.5000180000000  0.4574600000000  0.4713950000000 1.0
C      1  0.4751600000000  0.4576800000000  0.5141870000000 1.0
C      1  0.5042570000000  0.5292860000000  0.5360740000000 1.0
C      1  0.4681740000000  0.5287320000000  0.4846150000000 1.0
C      1  0.5279020000000  0.5288820000000  0.4800270000000 1.0
C      1  0.5026900000000  0.5280270000000  0.4651580000000 1.0
C      1  0.4679220000000  0.5303460000000  0.5141430000000 1.0
C      1  0.5287220000000  0.5289020000000  0.5204920000000 1.0
C      1  0.4394100000000  0.4946120000000  0.5289810000000 1.0
C      1  0.5053500000000  0.4949390000000  0.4332520000000 1.0
C      1  0.5556690000000  0.4943210000000  0.5380130000000 1.0
C      1  0.4395950000000  0.4947330000000  0.4710660000000 1.0
C      1  0.5052940000000  0.4951210000000  0.5668160000000 1.0
C      1  0.5553030000000  0.4946880000000  0.4619740000000 1.0
C      1  0.5474480000000  0.4695870000000  0.5268050000000 1.0
C      1  0.4528780000000  0.4696310000000  0.5274940000000 1.0
C      1  0.4997690000000  0.4696280000000  0.4452310000000 1.0
C      1  0.5473800000000  0.4697740000000  0.4730570000000 1.0
C      1  0.4528630000000  0.4695010000000  0.4724420000000 1.0
C      1  0.4997690000000  0.4698150000000  0.5546940000000 1.0
C      1  0.4786590000000  0.4843420000000  0.5652550000000 1.0
C      1  0.4542440000000  0.4838790000000  0.4487270000000 1.0
C      1  0.5673690000000  0.4842620000000  0.4858540000000 1.0
C      1  0.4786890000000  0.4841210000000  0.4345860000000 1.0
C      1  0.4542160000000  0.4841470000000  0.5511380000000 1.0
C      1  0.5674960000000  0.4841100000000  0.5139590000000 1.0
END
