TITL C-2441161-5029-92 0.259748886673367 125000 -15800.6690212177 0 0 155 (C1) n - 1
REM
REM in /home/bkarasulu/work/CARBON/AIRSS/Generating-Clusters/ReaxFF-fromJPCA2015/Units_Real/with-SteepDescent/Higher-Symm
REM
REM
REM
REM
REM
REM ./C.cell (1df0a924f5614ab8850e4351716899ee)
REM
REM compiler GCC version 9.2.1 20190827 (Red Hat 9.2.1-1)
REM options -cpp -mtune=generic -march=x86-64 -g -O0 -fpre-include=/usr/include/finclude/math-vector-fortran.h
REM seed 631923155 1394381003 761876428 -1284664035 -134733939 649541227 -815070380 634312675 -2071664606 -9460662 1922397341 -1594874948 929904825 -1438510352 839677739 352013670 -499407720 510225309 -847761800 -1117391422 -1952091743 -2133268080 -753023055 1734234602 -349996241 1807169645 -117944984 553126360 -665686803 -521934369 279716090 -2090128585 1248232687
REM
CELL 1.54180   50.00000   50.00000   50.00000   90.00000   90.00000   90.00000
LATT -1
SFAC C  
C      1  0.4143380000000  0.4715140000000  0.4655420000000 1.0
C      1  0.5169200000000  0.4774380000000  0.5874630000000 1.0
C      1  0.5731070000000  0.4809520000000  0.4407180000000 1.0
C      1  0.4080330000000  0.5296490000000  0.4708360000000 1.0
C      1  0.5157210000000  0.5199870000000  0.5955720000000 1.0
C      1  0.5738560000000  0.5240030000000  0.4359270000000 1.0
C      1  0.4792830000000  0.5719420000000  0.5748990000000 1.0
C      1  0.5744530000000  0.5701260000000  0.4843930000000 1.0
C      1  0.4493600000000  0.5695270000000  0.4398210000000 1.0
C      1  0.4769710000000  0.4301910000000  0.5721390000000 1.0
C      1  0.5753240000000  0.4294360000000  0.4819430000000 1.0
C      1  0.4482540000000  0.4327290000000  0.4424130000000 1.0
C      1  0.4522000000000  0.4167280000000  0.4896590000000 1.0
C      1  0.5149090000000  0.4109350000000  0.5422580000000 1.0
C      1  0.5293890000000  0.4187900000000  0.4649460000000 1.0
C      1  0.4527380000000  0.5869090000000  0.4933530000000 1.0
C      1  0.5159930000000  0.5835720000000  0.5424490000000 1.0
C      1  0.5289790000000  0.5844200000000  0.4645270000000 1.0
C      1  0.5204450000000  0.4125150000000  0.5141860000000 1.0
C      1  0.5020570000000  0.4137200000000  0.4739830000000 1.0
C      1  0.4784050000000  0.4129040000000  0.5105100000000 1.0
C      1  0.5207000000000  0.5866140000000  0.5144790000000 1.0
C      1  0.5021870000000  0.5859010000000  0.4752870000000 1.0
C      1  0.4760080000000  0.5878200000000  0.5110630000000 1.0
C      1  0.4087470000000  0.4836070000000  0.4907930000000 1.0
C      1  0.5425890000000  0.4887190000000  0.5858840000000 1.0
C      1  0.5551410000000  0.4816040000000  0.4216300000000 1.0
C      1  0.4051670000000  0.5120700000000  0.4931930000000 1.0
C      1  0.5413980000000  0.5177170000000  0.5877910000000 1.0
C      1  0.5538390000000  0.5116500000000  0.4203180000000 1.0
C      1  0.4967290000000  0.5763460000000  0.4261270000000 1.0
C      1  0.4365590000000  0.5755920000000  0.5380920000000 1.0
C      1  0.5641420000000  0.5729480000000  0.5335800000000 1.0
C      1  0.4973280000000  0.4254110000000  0.4255750000000 1.0
C      1  0.4391990000000  0.4255150000000  0.5401340000000 1.0
C      1  0.5644500000000  0.4234970000000  0.5346510000000 1.0
C      1  0.4655490000000  0.4228580000000  0.4629620000000 1.0
C      1  0.4898880000000  0.4243730000000  0.5468620000000 1.0
C      1  0.5469700000000  0.4250280000000  0.4878780000000 1.0
C      1  0.4685040000000  0.5757180000000  0.4603400000000 1.0
C      1  0.4878510000000  0.5773500000000  0.5474040000000 1.0
C      1  0.5465090000000  0.5769480000000  0.4863130000000 1.0
C      1  0.5068870000000  0.4577680000000  0.4918650000000 1.0
C      1  0.4791640000000  0.4529440000000  0.4921420000000 1.0
C      1  0.5103860000000  0.4511910000000  0.5195080000000 1.0
C      1  0.5169260000000  0.5454900000000  0.4864330000000 1.0
C      1  0.4796190000000  0.5504170000000  0.4966930000000 1.0
C      1  0.5037630000000  0.5480810000000  0.5097160000000 1.0
C      1  0.5110140000000  0.5097640000000  0.4850080000000 1.0
C      1  0.4771490000000  0.5147250000000  0.5111700000000 1.0
C      1  0.5194080000000  0.5124310000000  0.5123290000000 1.0
C      1  0.4952820000000  0.4883800000000  0.4778990000000 1.0
C      1  0.4795370000000  0.4891160000000  0.5105360000000 1.0
C      1  0.5203190000000  0.4876890000000  0.5172830000000 1.0
C      1  0.4513640000000  0.5943210000000  0.5217620000000 1.0
C      1  0.5418360000000  0.5913350000000  0.5311370000000 1.0
C      1  0.5063300000000  0.5918350000000  0.4486710000000 1.0
C      1  0.4523350000000  0.4090510000000  0.5204350000000 1.0
C      1  0.5413700000000  0.4069810000000  0.5313820000000 1.0
C      1  0.5081820000000  0.4094040000000  0.4471940000000 1.0
C      1  0.5453910000000  0.5421570000000  0.4565460000000 1.0
C      1  0.4392670000000  0.5632110000000  0.4834720000000 1.0
C      1  0.5155960000000  0.5484510000000  0.5610500000000 1.0
C      1  0.5458790000000  0.4553090000000  0.4583740000000 1.0
C      1  0.4398110000000  0.4444830000000  0.4882890000000 1.0
C      1  0.5139380000000  0.4588910000000  0.5679170000000 1.0
C      1  0.4717150000000  0.5593300000000  0.4230170000000 1.0
C      1  0.4540460000000  0.5578040000000  0.5620250000000 1.0
C      1  0.5790310000000  0.5590490000000  0.5113520000000 1.0
C      1  0.4696240000000  0.4409570000000  0.4248390000000 1.0
C      1  0.4520980000000  0.4412470000000  0.5623060000000 1.0
C      1  0.5766070000000  0.4436630000000  0.5100190000000 1.0
C      1  0.5097700000000  0.4627050000000  0.4311090000000 1.0
C      1  0.4223570000000  0.4611940000000  0.5295700000000 1.0
C      1  0.5546750000000  0.4600950000000  0.5487440000000 1.0
C      1  0.5142270000000  0.5404150000000  0.4290790000000 1.0
C      1  0.4251420000000  0.5376670000000  0.5290000000000 1.0
C      1  0.5619480000000  0.5339190000000  0.5498210000000 1.0
C      1  0.5297460000000  0.4350290000000  0.5755660000000 1.0
C      1  0.5497850000000  0.4420220000000  0.4323410000000 1.0
C      1  0.4134640000000  0.4365540000000  0.4929930000000 1.0
C      1  0.5334820000000  0.5642050000000  0.5777440000000 1.0
C      1  0.5505270000000  0.5595830000000  0.4339970000000 1.0
C      1  0.4141870000000  0.5566050000000  0.4846270000000 1.0
C      1  0.4483130000000  0.4875060000000  0.4371860000000 1.0
C      1  0.4713760000000  0.4858870000000  0.5752380000000 1.0
C      1  0.5780940000000  0.4865850000000  0.4858320000000 1.0
C      1  0.4499730000000  0.5162770000000  0.4401300000000 1.0
C      1  0.4721830000000  0.5153900000000  0.5714830000000 1.0
C      1  0.5782160000000  0.5158420000000  0.4868190000000 1.0
C      1  0.5481350000000  0.4882300000000  0.5157860000000 1.0
C      1  0.4868700000000  0.4887850000000  0.4511670000000 1.0
C      1  0.4623310000000  0.4832050000000  0.5329570000000 1.0
C      1  0.5485020000000  0.5149270000000  0.5128160000000 1.0
C      1  0.4920560000000  0.5144770000000  0.4488000000000 1.0
C      1  0.4618200000000  0.5116850000000  0.5355990000000 1.0
C      1  0.5543670000000  0.4338740000000  0.5598530000000 1.0
C      1  0.5227620000000  0.4386370000000  0.4200020000000 1.0
C      1  0.4188350000000  0.4351510000000  0.5212140000000 1.0
C      1  0.5573830000000  0.5605110000000  0.5593300000000 1.0
C      1  0.5237450000000  0.5661880000000  0.4213020000000 1.0
C      1  0.4200440000000  0.5632480000000  0.5191650000000 1.0
C      1  0.4637050000000  0.5459110000000  0.5167820000000 1.0
C      1  0.5314290000000  0.5481100000000  0.5239730000000 1.0
C      1  0.5019150000000  0.5410930000000  0.4564650000000 1.0
C      1  0.4639790000000  0.4549110000000  0.5176770000000 1.0
C      1  0.5357480000000  0.4532410000000  0.5274290000000 1.0
C      1  0.5012240000000  0.4535440000000  0.4557370000000 1.0
C      1  0.4913160000000  0.4865490000000  0.5969310000000 1.0
C      1  0.5909350000000  0.4852610000000  0.4588680000000 1.0
C      1  0.4199120000000  0.4880760000000  0.4434140000000 1.0
C      1  0.4889370000000  0.5163400000000  0.5983830000000 1.0
C      1  0.5895540000000  0.5160030000000  0.4587580000000 1.0
C      1  0.4212970000000  0.5169110000000  0.4477710000000 1.0
C      1  0.5066370000000  0.4852110000000  0.5428150000000 1.0
C      1  0.5353700000000  0.4852210000000  0.4635630000000 1.0
C      1  0.4592900000000  0.4884880000000  0.4884410000000 1.0
C      1  0.5097680000000  0.5133060000000  0.5428660000000 1.0
C      1  0.5349710000000  0.5129800000000  0.4689370000000 1.0
C      1  0.4534160000000  0.5159140000000  0.4900410000000 1.0
C      1  0.5706780000000  0.4407420000000  0.4556660000000 1.0
C      1  0.4251740000000  0.4456150000000  0.4629840000000 1.0
C      1  0.5019450000000  0.4392110000000  0.5826830000000 1.0
C      1  0.5697660000000  0.5580640000000  0.4583950000000 1.0
C      1  0.4271930000000  0.5637170000000  0.4581600000000 1.0
C      1  0.5045050000000  0.5617400000000  0.5848220000000 1.0
C      1  0.4236320000000  0.4757700000000  0.5550660000000 1.0
C      1  0.5916050000000  0.4887100000000  0.5320710000000 1.0
C      1  0.4846630000000  0.4856240000000  0.4055770000000 1.0
C      1  0.4239520000000  0.5223690000000  0.5560390000000 1.0
C      1  0.5872730000000  0.5197960000000  0.5376070000000 1.0
C      1  0.4831060000000  0.5142680000000  0.4035280000000 1.0
C      1  0.4277580000000  0.4833710000000  0.5124520000000 1.0
C      1  0.5548000000000  0.4851410000000  0.5607750000000 1.0
C      1  0.5282470000000  0.4826840000000  0.4358460000000 1.0
C      1  0.4290000000000  0.5228410000000  0.5045190000000 1.0
C      1  0.5343510000000  0.5252210000000  0.5572180000000 1.0
C      1  0.5261420000000  0.5179520000000  0.4209980000000 1.0
C      1  0.4752540000000  0.4533760000000  0.4644000000000 1.0
C      1  0.4879020000000  0.4512680000000  0.5355360000000 1.0
C      1  0.5487150000000  0.4506940000000  0.5029570000000 1.0
C      1  0.4766060000000  0.5503410000000  0.4690710000000 1.0
C      1  0.4734380000000  0.5530090000000  0.5400600000000 1.0
C      1  0.5417960000000  0.5492200000000  0.4952770000000 1.0
C      1  0.4478520000000  0.4689160000000  0.5699560000000 1.0
C      1  0.5873380000000  0.4726900000000  0.5094300000000 1.0
C      1  0.4660750000000  0.4699120000000  0.4212530000000 1.0
C      1  0.4468720000000  0.5301800000000  0.5716750000000 1.0
C      1  0.5859230000000  0.5314750000000  0.5103640000000 1.0
C      1  0.4656470000000  0.5309850000000  0.4197880000000 1.0
C      1  0.5779990000000  0.4973980000000  0.5535400000000 1.0
C      1  0.4169100000000  0.4993840000000  0.5407630000000 1.0
C      1  0.5086430000000  0.5020720000000  0.4067300000000 1.0
C      1  0.4995020000000  0.5991090000000  0.5006690000000 1.0
C      1  0.5009070000000  0.4009320000000  0.4984440000000 1.0
END
