TITL C-2441163-1170-221 0.00665698080005891 125000 -11823.581600494 0 0 79 (C1) n - 1
REM
REM in /home/bkarasulu/work/CARBON/AIRSS/Generating-Clusters/ReaxFF-fromJPCA2015/Units_Real/with-SteepDescent/Higher-Symm
REM
REM
REM
REM
REM
REM ./C.cell (1df0a924f5614ab8850e4351716899ee)
REM
REM compiler GCC version 9.2.1 20190827 (Red Hat 9.2.1-1)
REM options -cpp -mtune=generic -march=x86-64 -g -O0 -fpre-include=/usr/include/finclude/math-vector-fortran.h
REM seed -1201769788 -1711408770 -1440034985 1808888695 1124721060 -1526088631 1544856494 1671045358 785502698 1676038011 -77440427 -1507433909 478467278 731097261 -1470541881 -1541549967 -2114413627 -1180151861 -1889442474 410965334 -1218756439 -1565542988 -1778629521 -1494466963 654175415 2039224941 484057859 -398452370 -1436178573 -190856517 -1641094817 -1240668134 1071674055
REM
CELL 1.54180   50.00000   50.00000   50.00000   90.00000   90.00000   90.00000
LATT -1
SFAC C  
C      1  0.5044860000000  0.4596010000000  0.4389540000000 1.0
C      1  0.5036180000000  0.5415110000000  0.5613190000000 1.0
C      1  0.4958040000000  0.4587120000000  0.5612710000000 1.0
C      1  0.4957730000000  0.5419480000000  0.4380960000000 1.0
C      1  0.5028810000000  0.4384770000000  0.4581090000000 1.0
C      1  0.5034200000000  0.5617540000000  0.5418410000000 1.0
C      1  0.4943640000000  0.5611570000000  0.4589800000000 1.0
C      1  0.4953000000000  0.4387230000000  0.5414680000000 1.0
C      1  0.4361410000000  0.5269470000000  0.4966840000000 1.0
C      1  0.4339060000000  0.4661920000000  0.5056010000000 1.0
C      1  0.5652260000000  0.5378470000000  0.5053770000000 1.0
C      1  0.5642250000000  0.4609220000000  0.4935120000000 1.0
C      1  0.4338780000000  0.4950760000000  0.5382290000000 1.0
C      1  0.4348510000000  0.5069020000000  0.4613830000000 1.0
C      1  0.5645500000000  0.5052600000000  0.5342110000000 1.0
C      1  0.5629860000000  0.4964750000000  0.4735310000000 1.0
C      1  0.5228980000000  0.5292350000000  0.4880680000000 1.0
C      1  0.5215810000000  0.4701360000000  0.5087700000000 1.0
C      1  0.4782750000000  0.5302550000000  0.5093990000000 1.0
C      1  0.4754710000000  0.4715060000000  0.4888040000000 1.0
C      1  0.5218270000000  0.4887480000000  0.5279390000000 1.0
C      1  0.5221910000000  0.5090370000000  0.4701710000000 1.0
C      1  0.4780520000000  0.5116150000000  0.5287390000000 1.0
C      1  0.4760630000000  0.4912610000000  0.4704330000000 1.0
C      1  0.5251280000000  0.4314520000000  0.4744260000000 1.0
C      1  0.5264210000000  0.5671170000000  0.5254010000000 1.0
C      1  0.4716320000000  0.4339490000000  0.5254420000000 1.0
C      1  0.4717720000000  0.5641120000000  0.4762160000000 1.0
C      1  0.5280440000000  0.4756320000000  0.4359510000000 1.0
C      1  0.5267160000000  0.5250130000000  0.5660610000000 1.0
C      1  0.4734580000000  0.5256330000000  0.4311870000000 1.0
C      1  0.4727180000000  0.4749370000000  0.5668900000000 1.0
C      1  0.4502450000000  0.4631010000000  0.4420930000000 1.0
C      1  0.4511950000000  0.5387120000000  0.5584670000000 1.0
C      1  0.5484190000000  0.4623620000000  0.5574570000000 1.0
C      1  0.5489580000000  0.5366350000000  0.4424990000000 1.0
C      1  0.4495210000000  0.4423720000000  0.4621860000000 1.0
C      1  0.4506430000000  0.5576120000000  0.5366840000000 1.0
C      1  0.5485670000000  0.5586780000000  0.4612310000000 1.0
C      1  0.5483450000000  0.4418830000000  0.5371800000000 1.0
C      1  0.4296310000000  0.4791980000000  0.4564930000000 1.0
C      1  0.4296520000000  0.5231420000000  0.5464920000000 1.0
C      1  0.5688260000000  0.4777010000000  0.5433960000000 1.0
C      1  0.5683830000000  0.5215850000000  0.4595150000000 1.0
C      1  0.4297360000000  0.4570240000000  0.4780070000000 1.0
C      1  0.4309270000000  0.5410190000000  0.5217750000000 1.0
C      1  0.5696150000000  0.5462690000000  0.4773260000000 1.0
C      1  0.5692110000000  0.4560710000000  0.5212330000000 1.0
C      1  0.4490220000000  0.5278130000000  0.4503470000000 1.0
C      1  0.4485730000000  0.4719050000000  0.5495490000000 1.0
C      1  0.5503430000000  0.5276590000000  0.5479020000000 1.0
C      1  0.5511520000000  0.4752950000000  0.4570720000000 1.0
C      1  0.4480380000000  0.4523890000000  0.5279780000000 1.0
C      1  0.4484230000000  0.5433080000000  0.4756680000000 1.0
C      1  0.5503220000000  0.5492280000000  0.5283730000000 1.0
C      1  0.5500250000000  0.4500040000000  0.4725310000000 1.0
C      1  0.5208930000000  0.4397520000000  0.5232420000000 1.0
C      1  0.5211210000000  0.5602520000000  0.4760500000000 1.0
C      1  0.4770600000000  0.4406450000000  0.4764310000000 1.0
C      1  0.4781470000000  0.5607360000000  0.5235260000000 1.0
C      1  0.5214240000000  0.5231250000000  0.4401490000000 1.0
C      1  0.5209850000000  0.4769360000000  0.5589650000000 1.0
C      1  0.4775080000000  0.4773670000000  0.4402400000000 1.0
C      1  0.4782810000000  0.5235280000000  0.5596000000000 1.0
C      1  0.4853970000000  0.4997140000000  0.5749250000000 1.0
C      1  0.4853670000000  0.5005250000000  0.4228690000000 1.0
C      1  0.5147750000000  0.4983390000000  0.4237330000000 1.0
C      1  0.5139050000000  0.5004830000000  0.5745720000000 1.0
C      1  0.4850600000000  0.5754250000000  0.4990030000000 1.0
C      1  0.4838360000000  0.4241590000000  0.5006900000000 1.0
C      1  0.5128650000000  0.4229470000000  0.4993170000000 1.0
C      1  0.5138730000000  0.5758760000000  0.5004670000000 1.0
C      1  0.4735710000000  0.4852070000000  0.5155770000000 1.0
C      1  0.5174160000000  0.4827750000000  0.4826350000000 1.0
C      1  0.4816130000000  0.5171980000000  0.4830430000000 1.0
C      1  0.5252000000000  0.5153910000000  0.5146410000000 1.0
C      1  0.4410950000000  0.4950890000000  0.5095470000000 1.0
C      1  0.5579340000000  0.5091470000000  0.5052360000000 1.0
C      1  0.4995380000000  0.4996930000000  0.4985890000000 1.0
END
