TITL C-2441159-1093-605 0.00403480128459734 125000 -2435.66159555511 0 0 23 (C1) n - 1
REM
REM in /home/bkarasulu/work/CARBON/AIRSS/Generating-Clusters/ReaxFF-fromJPCA2015/Units_Real/with-SteepDescent/Higher-Symm
REM
REM
REM
REM
REM
REM ./C.cell (1df0a924f5614ab8850e4351716899ee)
REM
REM compiler GCC version 9.2.1 20190827 (Red Hat 9.2.1-1)
REM options -cpp -mtune=generic -march=x86-64 -g -O0 -fpre-include=/usr/include/finclude/math-vector-fortran.h
REM seed 466246776 407879656 -416656658 -523235216 -106581349 -441859937 1412865870 1607696935 1652840844 -2127801519 -149951853 70545001 1391227062 379562659 -1303458676 163545701 -1260755604 -1294222913 1189587834 397453182 -530927486 -156398024 -801006870 -874970840 1261587614 476643258 -2054989702 1350963669 1560036619 1561495615 -1776090817 -363833521 -224650476
REM
CELL 1.54180   50.00000   50.00000   50.00000   90.00000   90.00000   90.00000
LATT -1
SFAC C  
C      1  0.5151050000000  0.4644200000000  0.5411420000000 1.0
C      1  0.5156210000000  0.4641780000000  0.4666850000000 1.0
C      1  0.5166150000000  0.5322550000000  0.4608150000000 1.0
C      1  0.5173790000000  0.5422890000000  0.5327990000000 1.0
C      1  0.4885060000000  0.5374550000000  0.5406340000000 1.0
C      1  0.4888790000000  0.5377030000000  0.4673270000000 1.0
C      1  0.4873290000000  0.4701170000000  0.4609650000000 1.0
C      1  0.4877050000000  0.4604240000000  0.5345920000000 1.0
C      1  0.4681120000000  0.4837470000000  0.4743900000000 1.0
C      1  0.4713730000000  0.5275990000000  0.4885270000000 1.0
C      1  0.4709870000000  0.5178980000000  0.5284880000000 1.0
C      1  0.4736290000000  0.4755630000000  0.5142530000000 1.0
C      1  0.5366750000000  0.5185340000000  0.4737080000000 1.0
C      1  0.5329690000000  0.4737830000000  0.4881320000000 1.0
C      1  0.5301190000000  0.4847390000000  0.5274950000000 1.0
C      1  0.5343770000000  0.5282510000000  0.5144060000000 1.0
C      1  0.4988220000000  0.5288620000000  0.4915130000000 1.0
C      1  0.5059840000000  0.4730060000000  0.4904360000000 1.0
C      1  0.5011840000000  0.4829630000000  0.5266520000000 1.0
C      1  0.4989210000000  0.5183400000000  0.5289170000000 1.0
C      1  0.5425030000000  0.5015000000000  0.5012610000000 1.0
C      1  0.4627330000000  0.5014580000000  0.5031870000000 1.0
C      1  0.5024300000000  0.5010160000000  0.4903370000000 1.0
END
