TITL C-2441157-2117-1181 0.032054627485355 125000 -22478.1424408283 0 0 163 (C1) n - 1
REM
REM in /home/bkarasulu/work/CARBON/AIRSS/Generating-Clusters/ReaxFF-fromJPCA2015/Units_Real/with-SteepDescent/Higher-Symm
REM
REM
REM
REM
REM
REM ./C.cell (1df0a924f5614ab8850e4351716899ee)
REM
REM compiler GCC version 9.2.1 20190827 (Red Hat 9.2.1-1)
REM options -cpp -mtune=generic -march=x86-64 -g -O0 -fpre-include=/usr/include/finclude/math-vector-fortran.h
REM seed -566096563 1005212198 1701401382 1452571431 1549533054 1658360471 2033081328 -1004084090 383546537 830119995 46806401 603595143 -1560578049 1526555597 1586656029 225422188 -2119451125 1997415966 -1179223804 -1753401299 -791327450 -353354824 1557952716 -317015681 -653262318 682978199 -1660229724 -711866919 1914401982 832466529 -1713610895 -589602792 -300462437
REM
CELL 1.54180   50.00000   50.00000   50.00000   90.00000   90.00000   90.00000
LATT -1
SFAC C  
C      1  0.5083490000000  0.4153620000000  0.5787670000000 1.0
C      1  0.4881320000000  0.4091070000000  0.5101050000000 1.0
C      1  0.5116010000000  0.4039740000000  0.4453190000000 1.0
C      1  0.4905850000000  0.4528960000000  0.3968560000000 1.0
C      1  0.5108290000000  0.5200360000000  0.4055960000000 1.0
C      1  0.4891540000000  0.5869640000000  0.4253810000000 1.0
C      1  0.5044180000000  0.6136750000000  0.4920700000000 1.0
C      1  0.4900470000000  0.6013290000000  0.5632860000000 1.0
C      1  0.5126680000000  0.5469310000000  0.6076920000000 1.0
C      1  0.4905070000000  0.4773720000000  0.6062600000000 1.0
C      1  0.5247900000000  0.4384920000000  0.5921870000000 1.0
C      1  0.4784880000000  0.4023580000000  0.5367390000000 1.0
C      1  0.5151520000000  0.4031860000000  0.4747130000000 1.0
C      1  0.4822520000000  0.4331580000000  0.4159310000000 1.0
C      1  0.5209260000000  0.4948730000000  0.3911020000000 1.0
C      1  0.4825790000000  0.5659390000000  0.4056750000000 1.0
C      1  0.5087380000000  0.6048700000000  0.4655540000000 1.0
C      1  0.4877760000000  0.6073770000000  0.5386990000000 1.0
C      1  0.5205580000000  0.5651600000000  0.5857850000000 1.0
C      1  0.4809570000000  0.5054370000000  0.6055640000000 1.0
C      1  0.5234250000000  0.4145950000000  0.5568330000000 1.0
C      1  0.4721130000000  0.3882470000000  0.4896310000000 1.0
C      1  0.5273600000000  0.4201850000000  0.4312320000000 1.0
C      1  0.4757500000000  0.4759910000000  0.3935020000000 1.0
C      1  0.5296910000000  0.5427300000000  0.4094600000000 1.0
C      1  0.4685080000000  0.5858960000000  0.4437360000000 1.0
C      1  0.5276410000000  0.5999880000000  0.5008000000000 1.0
C      1  0.4667670000000  0.5922740000000  0.5693420000000 1.0
C      1  0.5347730000000  0.5290400000000  0.6086080000000 1.0
C      1  0.4685170000000  0.4624900000000  0.5964300000000 1.0
C      1  0.4832470000000  0.4085830000000  0.5639700000000 1.0
C      1  0.4997940000000  0.3891090000000  0.4923680000000 1.0
C      1  0.4886930000000  0.4107270000000  0.4305520000000 1.0
C      1  0.5154180000000  0.4671720000000  0.3894240000000 1.0
C      1  0.4909700000000  0.5407420000000  0.3966430000000 1.0
C      1  0.5143940000000  0.5889360000000  0.4435460000000 1.0
C      1  0.4832810000000  0.6039010000000  0.5136650000000 1.0
C      1  0.5133860000000  0.5854100000000  0.5680850000000 1.0
C      1  0.4863590000000  0.5328040000000  0.6069720000000 1.0
C      1  0.5184800000000  0.4654850000000  0.6016560000000 1.0
C      1  0.5408830000000  0.4512880000000  0.4622030000000 1.0
C      1  0.4604250000000  0.4775950000000  0.4318130000000 1.0
C      1  0.5144620000000  0.5154320000000  0.4370250000000 1.0
C      1  0.4793410000000  0.5477700000000  0.4658170000000 1.0
C      1  0.5131640000000  0.5619410000000  0.5142070000000 1.0
C      1  0.4679750000000  0.5614650000000  0.5418320000000 1.0
C      1  0.5250050000000  0.5065910000000  0.5769850000000 1.0
C      1  0.4699770000000  0.4869210000000  0.5640370000000 1.0
C      1  0.5274270000000  0.4535370000000  0.5323890000000 1.0
C      1  0.4762500000000  0.4291360000000  0.4913040000000 1.0
C      1  0.5898580000000  0.5184660000000  0.5717230000000 1.0
C      1  0.4119670000000  0.4884940000000  0.5695820000000 1.0
C      1  0.5865930000000  0.4439860000000  0.5343920000000 1.0
C      1  0.4174490000000  0.4261120000000  0.4979370000000 1.0
C      1  0.5823810000000  0.4440030000000  0.4561040000000 1.0
C      1  0.4169860000000  0.4844490000000  0.4256900000000 1.0
C      1  0.5899930000000  0.5240970000000  0.4291730000000 1.0
C      1  0.4139990000000  0.5565110000000  0.4620660000000 1.0
C      1  0.5950830000000  0.5545860000000  0.4851450000000 1.0
C      1  0.4150500000000  0.5539790000000  0.5421460000000 1.0
C      1  0.6110590000000  0.4367430000000  0.5291790000000 1.0
C      1  0.3947940000000  0.4272300000000  0.4834420000000 1.0
C      1  0.6059160000000  0.4506270000000  0.4490440000000 1.0
C      1  0.3939190000000  0.4941220000000  0.4254740000000 1.0
C      1  0.6136640000000  0.5144220000000  0.4353670000000 1.0
C      1  0.3935090000000  0.5719810000000  0.4694820000000 1.0
C      1  0.5808190000000  0.5635350000000  0.5052890000000 1.0
C      1  0.3917880000000  0.5499000000000  0.5539420000000 1.0
C      1  0.6118240000000  0.5067740000000  0.5771940000000 1.0
C      1  0.4004990000000  0.4627700000000  0.5633180000000 1.0
C      1  0.5080340000000  0.5403890000000  0.4577920000000 1.0
C      1  0.4881250000000  0.5557490000000  0.4986070000000 1.0
C      1  0.5084240000000  0.5446640000000  0.5385260000000 1.0
C      1  0.4776500000000  0.5351510000000  0.5490360000000 1.0
C      1  0.5164020000000  0.4964700000000  0.5478730000000 1.0
C      1  0.4920550000000  0.4773810000000  0.5473470000000 1.0
C      1  0.5112140000000  0.4515180000000  0.5076380000000 1.0
C      1  0.4862880000000  0.4470480000000  0.4697180000000 1.0
C      1  0.5155040000000  0.4659540000000  0.4657830000000 1.0
C      1  0.4768230000000  0.4943500000000  0.4546760000000 1.0
C      1  0.5186840000000  0.5192850000000  0.5267810000000 1.0
C      1  0.4623680000000  0.5098910000000  0.5469360000000 1.0
C      1  0.5368010000000  0.4800040000000  0.5385060000000 1.0
C      1  0.4864770000000  0.4620890000000  0.5243320000000 1.0
C      1  0.5176510000000  0.4770540000000  0.4920670000000 1.0
C      1  0.4709820000000  0.4714530000000  0.4743180000000 1.0
C      1  0.5068580000000  0.4904550000000  0.4472870000000 1.0
C      1  0.4673450000000  0.5224590000000  0.4612710000000 1.0
C      1  0.5182780000000  0.5265960000000  0.4806250000000 1.0
C      1  0.4796730000000  0.5272580000000  0.5023530000000 1.0
C      1  0.5261780000000  0.5643040000000  0.4546750000000 1.0
C      1  0.4704420000000  0.5762140000000  0.5141280000000 1.0
C      1  0.5247150000000  0.5599960000000  0.5584030000000 1.0
C      1  0.4702380000000  0.5237960000000  0.5861760000000 1.0
C      1  0.5389230000000  0.4612090000000  0.5811040000000 1.0
C      1  0.4610010000000  0.4187040000000  0.5486340000000 1.0
C      1  0.5233040000000  0.4217380000000  0.4947180000000 1.0
C      1  0.4722020000000  0.4323070000000  0.4426310000000 1.0
C      1  0.5372910000000  0.4774640000000  0.4038620000000 1.0
C      1  0.4647690000000  0.5446430000000  0.4053970000000 1.0
C      1  0.5606570000000  0.4431960000000  0.4814370000000 1.0
C      1  0.4378600000000  0.4617300000000  0.4404590000000 1.0
C      1  0.5784880000000  0.4977080000000  0.4236590000000 1.0
C      1  0.4251540000000  0.5441760000000  0.4369560000000 1.0
C      1  0.5770820000000  0.5629810000000  0.4625970000000 1.0
C      1  0.4229650000000  0.5654730000000  0.5170600000000 1.0
C      1  0.5808140000000  0.5446240000000  0.5547870000000 1.0
C      1  0.4228050000000  0.5117210000000  0.5750040000000 1.0
C      1  0.5822130000000  0.4699910000000  0.5499430000000 1.0
C      1  0.4253190000000  0.4345300000000  0.5229210000000 1.0
C      1  0.5628160000000  0.4270630000000  0.5200040000000 1.0
C      1  0.4331290000000  0.4195430000000  0.4720580000000 1.0
C      1  0.5711760000000  0.4477050000000  0.4284460000000 1.0
C      1  0.4298720000000  0.5049280000000  0.4079430000000 1.0
C      1  0.5747170000000  0.5535680000000  0.4348930000000 1.0
C      1  0.4330640000000  0.5766490000000  0.4789080000000 1.0
C      1  0.5657540000000  0.5714420000000  0.5261850000000 1.0
C      1  0.4293830000000  0.5520590000000  0.5695460000000 1.0
C      1  0.5729180000000  0.4948530000000  0.5820420000000 1.0
C      1  0.4296840000000  0.4507270000000  0.5601090000000 1.0
C      1  0.4509730000000  0.5717610000000  0.5637990000000 1.0
C      1  0.5462900000000  0.5069000000000  0.5959370000000 1.0
C      1  0.4520150000000  0.4650150000000  0.5762680000000 1.0
C      1  0.5422560000000  0.4284460000000  0.5410700000000 1.0
C      1  0.4582100000000  0.4101280000000  0.4815170000000 1.0
C      1  0.5456450000000  0.4392480000000  0.4366220000000 1.0
C      1  0.4569540000000  0.4923950000000  0.4059840000000 1.0
C      1  0.5515850000000  0.5496210000000  0.4208600000000 1.0
C      1  0.4588900000000  0.5731640000000  0.4635020000000 1.0
C      1  0.5368720000000  0.5790910000000  0.5150940000000 1.0
C      1  0.5445670000000  0.4851160000000  0.4945030000000 1.0
C      1  0.4479960000000  0.4682210000000  0.4911890000000 1.0
C      1  0.5573840000000  0.5036330000000  0.4770430000000 1.0
C      1  0.4433790000000  0.5227410000000  0.4760490000000 1.0
C      1  0.5451950000000  0.5299590000000  0.4860850000000 1.0
C      1  0.4514790000000  0.5207690000000  0.5045460000000 1.0
C      1  0.5459610000000  0.5246790000000  0.5189020000000 1.0
C      1  0.4463910000000  0.4987910000000  0.5246030000000 1.0
C      1  0.5529370000000  0.4947320000000  0.5206040000000 1.0
C      1  0.4577090000000  0.4671350000000  0.5193960000000 1.0
C      1  0.5660480000000  0.4718570000000  0.5717220000000 1.0
C      1  0.4437780000000  0.4411040000000  0.5384810000000 1.0
C      1  0.5515560000000  0.4229040000000  0.4961260000000 1.0
C      1  0.4412000000000  0.4350780000000  0.4491090000000 1.0
C      1  0.5640690000000  0.4748230000000  0.4173220000000 1.0
C      1  0.4379950000000  0.5331240000000  0.4152120000000 1.0
C      1  0.5494310000000  0.5569160000000  0.4690310000000 1.0
C      1  0.4405220000000  0.5754220000000  0.5039130000000 1.0
C      1  0.5555750000000  0.5472540000000  0.5417510000000 1.0
C      1  0.4411340000000  0.5296650000000  0.5820930000000 1.0
C      1  0.4208970000000  0.4785130000000  0.4857030000000 1.0
C      1  0.5857710000000  0.5002420000000  0.4793930000000 1.0
C      1  0.4194650000000  0.5069960000000  0.4788820000000 1.0
C      1  0.6012270000000  0.5237960000000  0.4923490000000 1.0
C      1  0.4098270000000  0.5202100000000  0.5029310000000 1.0
C      1  0.6014350000000  0.5150710000000  0.5230080000000 1.0
C      1  0.4122740000000  0.4991360000000  0.5264740000000 1.0
C      1  0.5857650000000  0.4896550000000  0.5271460000000 1.0
C      1  0.4023740000000  0.4768380000000  0.5077700000000 1.0
C      1  0.5981110000000  0.4823340000000  0.4989970000000 1.0
C      1  0.6191370000000  0.5019590000000  0.5045190000000 1.0
C      1  0.3906180000000  0.5012860000000  0.5106490000000 1.0
C      1  0.5035980000000  0.5101600000000  0.4996280000000 1.0
END
