TITL C-2441164-471-431 0.0476272408269406 125000 -23506.8660303328 0 0 165 (C1) n - 1
REM
REM in /home/bkarasulu/work/CARBON/AIRSS/Generating-Clusters/ReaxFF-fromJPCA2015/Units_Real/with-SteepDescent/Higher-Symm
REM
REM
REM
REM
REM
REM ./C.cell (1df0a924f5614ab8850e4351716899ee)
REM
REM compiler GCC version 9.2.1 20190827 (Red Hat 9.2.1-1)
REM options -cpp -mtune=generic -march=x86-64 -g -O0 -fpre-include=/usr/include/finclude/math-vector-fortran.h
REM seed 1948841142 -1460416006 -1479880952 -1473625929 1219890100 -2036136019 778359744 -1424759707 2092227474 15952022 790318720 -1963472318 -1585642773 -203145003 1224820091 2082944047 -121747787 239048555 193882188 -1737408254 -826436970 1417166722 -383712848 560090518 2139748095 -425130003 1523895104 -1088033175 756488058 1620581260 -690706954 -125781077 1143601087
REM
CELL 1.54180   50.00000   50.00000   50.00000   90.00000   90.00000   90.00000
LATT -1
SFAC C  
C      1  0.4455500000000  0.5927910000000  0.4925150000000 1.0
C      1  0.4967770000000  0.5923400000000  0.4485000000000 1.0
C      1  0.5473970000000  0.5936530000000  0.4699120000000 1.0
C      1  0.5385830000000  0.5941610000000  0.5404600000000 1.0
C      1  0.4748280000000  0.5955610000000  0.5457730000000 1.0
C      1  0.5523110000000  0.4032360000000  0.4869560000000 1.0
C      1  0.5064240000000  0.4042760000000  0.4446770000000 1.0
C      1  0.4508400000000  0.4047380000000  0.4779310000000 1.0
C      1  0.4647500000000  0.4081000000000  0.5414350000000 1.0
C      1  0.5270580000000  0.4028570000000  0.5467020000000 1.0
C      1  0.5964630000000  0.5299180000000  0.4649130000000 1.0
C      1  0.5633440000000  0.5305130000000  0.5820590000000 1.0
C      1  0.4424760000000  0.5318650000000  0.5814410000000 1.0
C      1  0.3982950000000  0.5318750000000  0.4705760000000 1.0
C      1  0.5003100000000  0.5339640000000  0.3985120000000 1.0
C      1  0.4013770000000  0.4679010000000  0.4645680000000 1.0
C      1  0.4373470000000  0.4663180000000  0.5820750000000 1.0
C      1  0.5583360000000  0.4675100000000  0.5860380000000 1.0
C      1  0.5974810000000  0.4671230000000  0.4693970000000 1.0
C      1  0.5044130000000  0.4683520000000  0.3957290000000 1.0
C      1  0.5238030000000  0.3999490000000  0.4946830000000 1.0
C      1  0.5115200000000  0.4003930000000  0.5216800000000 1.0
C      1  0.4832080000000  0.4024160000000  0.5182030000000 1.0
C      1  0.4780300000000  0.4016500000000  0.4894220000000 1.0
C      1  0.5032090000000  0.4014650000000  0.4750520000000 1.0
C      1  0.4765040000000  0.5870770000000  0.5006700000000 1.0
C      1  0.4914350000000  0.5973990000000  0.5221520000000 1.0
C      1  0.5198090000000  0.5909170000000  0.5157920000000 1.0
C      1  0.5230170000000  0.6001700000000  0.4862100000000 1.0
C      1  0.4971930000000  0.5962270000000  0.4769490000000 1.0
C      1  0.5127870000000  0.5281450000000  0.5693090000000 1.0
C      1  0.4346600000000  0.5321210000000  0.5267140000000 1.0
C      1  0.4451170000000  0.5302890000000  0.4593270000000 1.0
C      1  0.5250120000000  0.5299440000000  0.4428290000000 1.0
C      1  0.5695810000000  0.5313280000000  0.5156830000000 1.0
C      1  0.4821820000000  0.4690580000000  0.5645570000000 1.0
C      1  0.5625230000000  0.4697550000000  0.5324110000000 1.0
C      1  0.5489930000000  0.4712040000000  0.4599880000000 1.0
C      1  0.4773790000000  0.4647040000000  0.4377340000000 1.0
C      1  0.4286200000000  0.4693340000000  0.5091470000000 1.0
C      1  0.5004000000000  0.4429630000000  0.4101690000000 1.0
C      1  0.5856680000000  0.4411320000000  0.4716660000000 1.0
C      1  0.5517950000000  0.4433460000000  0.5719630000000 1.0
C      1  0.4433920000000  0.4415220000000  0.5698910000000 1.0
C      1  0.4158200000000  0.4436020000000  0.4700530000000 1.0
C      1  0.5012060000000  0.5589830000000  0.4132780000000 1.0
C      1  0.4122950000000  0.5567480000000  0.4732520000000 1.0
C      1  0.4498490000000  0.5565050000000  0.5686300000000 1.0
C      1  0.5539490000000  0.5554650000000  0.5713560000000 1.0
C      1  0.5829150000000  0.5547420000000  0.4727810000000 1.0
C      1  0.4576700000000  0.4882300000000  0.5909140000000 1.0
C      1  0.3979060000000  0.4875400000000  0.4873570000000 1.0
C      1  0.4832470000000  0.4886700000000  0.4002740000000 1.0
C      1  0.5849620000000  0.4884340000000  0.4516090000000 1.0
C      1  0.5734110000000  0.4878280000000  0.5693100000000 1.0
C      1  0.5426550000000  0.5097980000000  0.5914390000000 1.0
C      1  0.5978230000000  0.5108380000000  0.4879550000000 1.0
C      1  0.5201550000000  0.5120910000000  0.4017080000000 1.0
C      1  0.4097380000000  0.5125720000000  0.4501840000000 1.0
C      1  0.4308890000000  0.5112150000000  0.5630660000000 1.0
C      1  0.4623800000000  0.5164680000000  0.5978730000000 1.0
C      1  0.3910830000000  0.5155970000000  0.4942410000000 1.0
C      1  0.4761430000000  0.5166840000000  0.3935750000000 1.0
C      1  0.5894110000000  0.5154220000000  0.4407480000000 1.0
C      1  0.5845450000000  0.5151380000000  0.5677030000000 1.0
C      1  0.5390370000000  0.4827470000000  0.6025820000000 1.0
C      1  0.6039140000000  0.4822770000000  0.4939250000000 1.0
C      1  0.5288600000000  0.4843590000000  0.3958380000000 1.0
C      1  0.4060300000000  0.4850110000000  0.4400310000000 1.0
C      1  0.4194150000000  0.4841040000000  0.5648780000000 1.0
C      1  0.4271500000000  0.5699380000000  0.4982070000000 1.0
C      1  0.4785820000000  0.5686930000000  0.4363610000000 1.0
C      1  0.5563070000000  0.5651410000000  0.4638370000000 1.0
C      1  0.5573140000000  0.5708140000000  0.5425980000000 1.0
C      1  0.4789740000000  0.5695860000000  0.5630480000000 1.0
C      1  0.5689630000000  0.4275270000000  0.4987560000000 1.0
C      1  0.5157780000000  0.4304070000000  0.4320400000000 1.0
C      1  0.4442240000000  0.4305550000000  0.4609890000000 1.0
C      1  0.4439420000000  0.4312470000000  0.5387990000000 1.0
C      1  0.5235560000000  0.4289390000000  0.5645570000000 1.0
C      1  0.4484600000000  0.5762210000000  0.4413180000000 1.0
C      1  0.5291480000000  0.5663780000000  0.4186090000000 1.0
C      1  0.5747810000000  0.5792810000000  0.5160300000000 1.0
C      1  0.5065170000000  0.5749210000000  0.5786150000000 1.0
C      1  0.4257920000000  0.5791260000000  0.5284180000000 1.0
C      1  0.5714130000000  0.4332930000000  0.4474090000000 1.0
C      1  0.4573220000000  0.4234170000000  0.4327020000000 1.0
C      1  0.4210530000000  0.4232920000000  0.5177210000000 1.0
C      1  0.4961010000000  0.4280860000000  0.5815590000000 1.0
C      1  0.5738090000000  0.4225900000000  0.5299490000000 1.0
C      1  0.4678230000000  0.4929360000000  0.5640560000000 1.0
C      1  0.4261080000000  0.4921030000000  0.4908800000000 1.0
C      1  0.4821750000000  0.4918830000000  0.4294930000000 1.0
C      1  0.5625180000000  0.4953180000000  0.4696230000000 1.0
C      1  0.5526320000000  0.4925750000000  0.5492410000000 1.0
C      1  0.5309150000000  0.5042270000000  0.5654570000000 1.0
C      1  0.5695830000000  0.5088860000000  0.4946340000000 1.0
C      1  0.5196810000000  0.5052030000000  0.4306240000000 1.0
C      1  0.4341190000000  0.5041570000000  0.4650380000000 1.0
C      1  0.4516660000000  0.5067760000000  0.5427830000000 1.0
C      1  0.4774840000000  0.5146360000000  0.4917190000000 1.0
C      1  0.5035870000000  0.5234340000000  0.4831130000000 1.0
C      1  0.5240620000000  0.5139330000000  0.5002030000000 1.0
C      1  0.5091350000000  0.5183540000000  0.5248630000000 1.0
C      1  0.4821630000000  0.5071090000000  0.5243650000000 1.0
C      1  0.5203370000000  0.4867400000000  0.4881550000000 1.0
C      1  0.4958880000000  0.4799560000000  0.4747620000000 1.0
C      1  0.4711930000000  0.4863570000000  0.4858570000000 1.0
C      1  0.4934820000000  0.4802300000000  0.5246730000000 1.0
C      1  0.5159440000000  0.4741120000000  0.5122590000000 1.0
C      1  0.5909990000000  0.4745480000000  0.5193970000000 1.0
C      1  0.5107100000000  0.4729960000000  0.6056140000000 1.0
C      1  0.4140090000000  0.4750350000000  0.5375830000000 1.0
C      1  0.4304680000000  0.4799210000000  0.4244570000000 1.0
C      1  0.5520550000000  0.4743020000000  0.4126650000000 1.0
C      1  0.4059570000000  0.5231130000000  0.5190400000000 1.0
C      1  0.4911380000000  0.5216450000000  0.5929780000000 1.0
C      1  0.5889530000000  0.5228290000000  0.5395740000000 1.0
C      1  0.5660390000000  0.5230750000000  0.4240150000000 1.0
C      1  0.4507600000000  0.5240230000000  0.4078010000000 1.0
C      1  0.5458840000000  0.5430620000000  0.4288670000000 1.0
C      1  0.5834330000000  0.5557720000000  0.5019640000000 1.0
C      1  0.5270520000000  0.5539330000000  0.5819520000000 1.0
C      1  0.4309370000000  0.5556120000000  0.5467130000000 1.0
C      1  0.4298310000000  0.5546080000000  0.4500240000000 1.0
C      1  0.4714850000000  0.4444980000000  0.4175550000000 1.0
C      1  0.4121520000000  0.4440360000000  0.4986850000000 1.0
C      1  0.4930740000000  0.4561570000000  0.5882230000000 1.0
C      1  0.5698160000000  0.4446820000000  0.5493110000000 1.0
C      1  0.5555040000000  0.4566300000000  0.4352600000000 1.0
C      1  0.5214960000000  0.5850490000000  0.4383180000000 1.0
C      1  0.5639480000000  0.5931200000000  0.4937110000000 1.0
C      1  0.5228610000000  0.5898340000000  0.5626150000000 1.0
C      1  0.4483150000000  0.5921660000000  0.5379610000000 1.0
C      1  0.4458830000000  0.5894040000000  0.4651960000000 1.0
C      1  0.4803040000000  0.4078820000000  0.4345740000000 1.0
C      1  0.4331700000000  0.4087060000000  0.4983490000000 1.0
C      1  0.4764580000000  0.4174300000000  0.5651710000000 1.0
C      1  0.5529980000000  0.4082270000000  0.5399170000000 1.0
C      1  0.5596990000000  0.4112970000000  0.4615390000000 1.0
C      1  0.4880100000000  0.4563790000000  0.5392830000000 1.0
C      1  0.4581050000000  0.4611420000000  0.5008660000000 1.0
C      1  0.4879790000000  0.4555210000000  0.4630430000000 1.0
C      1  0.5343810000000  0.4527460000000  0.4747160000000 1.0
C      1  0.5330770000000  0.4552470000000  0.5218490000000 1.0
C      1  0.5113410000000  0.5392470000000  0.5416450000000 1.0
C      1  0.5296360000000  0.5611440000000  0.5053790000000 1.0
C      1  0.5093420000000  0.5416330000000  0.4639670000000 1.0
C      1  0.4643990000000  0.5378730000000  0.4767540000000 1.0
C      1  0.4747270000000  0.5604290000000  0.5138960000000 1.0
C      1  0.5434280000000  0.5477530000000  0.5267380000000 1.0
C      1  0.4874930000000  0.5547480000000  0.5389430000000 1.0
C      1  0.4498400000000  0.5477390000000  0.5055020000000 1.0
C      1  0.4827840000000  0.5514370000000  0.4592620000000 1.0
C      1  0.5336560000000  0.5542040000000  0.4781210000000 1.0
C      1  0.4649570000000  0.4461020000000  0.5245900000000 1.0
C      1  0.5147250000000  0.4447640000000  0.5419270000000 1.0
C      1  0.5445290000000  0.4437050000000  0.4986480000000 1.0
C      1  0.5141570000000  0.4421740000000  0.4586410000000 1.0
C      1  0.4632050000000  0.4471700000000  0.4759000000000 1.0
C      1  0.4017930000000  0.4984760000000  0.5303590000000 1.0
C      1  0.5487690000000  0.4994390000000  0.4273710000000 1.0
C      1  0.4520590000000  0.5012920000000  0.4279830000000 1.0
C      1  0.5974830000000  0.4980700000000  0.5319290000000 1.0
C      1  0.4995520000000  0.4983620000000  0.6034050000000 1.0
END
