TITL C-2441156-4686-357 0.000279006712118248 125000 -5795.38724929428 0 0 44 (C1) n - 1
REM
REM in /home/bkarasulu/work/CARBON/AIRSS/Generating-Clusters/ReaxFF-fromJPCA2015/Units_Real/with-SteepDescent/Higher-Symm
REM
REM
REM
REM
REM
REM ./C.cell (1df0a924f5614ab8850e4351716899ee)
REM
REM compiler GCC version 9.2.1 20190827 (Red Hat 9.2.1-1)
REM options -cpp -mtune=generic -march=x86-64 -g -O0 -fpre-include=/usr/include/finclude/math-vector-fortran.h
REM seed -1786947787 -1257983537 563800296 -1582866866 1523321189 -223946316 896965761 -560204221 -1842488517 2145877009 730384435 -1242347134 -1313269024 1347963395 501095315 1681709176 -194560766 439525959 -2141430394 -1619287336 -1278927068 -717929313 2012865260 -1022676041 -785384561 -271400332 -1383219991 -1586805935 1625315025 434938725 1330870469 -901885998 1187810475
REM
CELL 1.54180   50.00000   50.00000   50.00000   90.00000   90.00000   90.00000
LATT -1
SFAC C  
C      1  0.5603150000000  0.4677220000000  0.4790310000000 1.0
C      1  0.5601490000000  0.5208390000000  0.4677220000000 1.0
C      1  0.5601470000000  0.5321820000000  0.5208270000000 1.0
C      1  0.5604590000000  0.4790730000000  0.5321550000000 1.0
C      1  0.4441310000000  0.4689390000000  0.4798710000000 1.0
C      1  0.4431600000000  0.5206540000000  0.4692950000000 1.0
C      1  0.4430510000000  0.5306410000000  0.5194510000000 1.0
C      1  0.4432110000000  0.4800170000000  0.5301020000000 1.0
C      1  0.4861350000000  0.4894290000000  0.5628590000000 1.0
C      1  0.4860960000000  0.4368810000000  0.4898150000000 1.0
C      1  0.4858030000000  0.5104620000000  0.4374590000000 1.0
C      1  0.4861020000000  0.5627590000000  0.5106640000000 1.0
C      1  0.5157190000000  0.4895510000000  0.5633620000000 1.0
C      1  0.5156580000000  0.4369100000000  0.4896050000000 1.0
C      1  0.5152270000000  0.5102560000000  0.4369670000000 1.0
C      1  0.5156330000000  0.5632850000000  0.5104460000000 1.0
C      1  0.4434940000000  0.5075390000000  0.5345940000000 1.0
C      1  0.4441360000000  0.4649640000000  0.5073780000000 1.0
C      1  0.4435120000000  0.4925820000000  0.4644690000000 1.0
C      1  0.4440320000000  0.5352610000000  0.4922150000000 1.0
C      1  0.5596310000000  0.5079010000000  0.5367290000000 1.0
C      1  0.5596700000000  0.4631830000000  0.5078840000000 1.0
C      1  0.5594180000000  0.4919910000000  0.4631390000000 1.0
C      1  0.5594600000000  0.5367340000000  0.4919890000000 1.0
C      1  0.4861670000000  0.5550890000000  0.4815690000000 1.0
C      1  0.4860890000000  0.5187370000000  0.5551840000000 1.0
C      1  0.4862510000000  0.4445840000000  0.5190920000000 1.0
C      1  0.4860190000000  0.4813960000000  0.4451500000000 1.0
C      1  0.5157000000000  0.5557260000000  0.4809740000000 1.0
C      1  0.5157460000000  0.5191250000000  0.5557700000000 1.0
C      1  0.5159070000000  0.4442400000000  0.5192210000000 1.0
C      1  0.5155700000000  0.4808640000000  0.4444400000000 1.0
C      1  0.4677000000000  0.5330630000000  0.4759680000000 1.0
C      1  0.4677560000000  0.5242960000000  0.5327300000000 1.0
C      1  0.4679230000000  0.4671690000000  0.5241680000000 1.0
C      1  0.4679960000000  0.4762490000000  0.4672160000000 1.0
C      1  0.5343750000000  0.5334060000000  0.4758360000000 1.0
C      1  0.5343910000000  0.5237890000000  0.5333080000000 1.0
C      1  0.5346230000000  0.4665670000000  0.5240580000000 1.0
C      1  0.5344680000000  0.4757040000000  0.4665500000000 1.0
C      1  0.5013200000000  0.4699880000000  0.5475000000000 1.0
C      1  0.5007710000000  0.4527240000000  0.4703510000000 1.0
C      1  0.5009110000000  0.5300330000000  0.4527360000000 1.0
C      1  0.5013480000000  0.5474970000000  0.5301480000000 1.0
END
