TITL C-2441162-9305-273 0.0731501051991178 125000 -22765.2344926673 0 0 163 (C1) n - 1
REM
REM in /home/bkarasulu/work/CARBON/AIRSS/Generating-Clusters/ReaxFF-fromJPCA2015/Units_Real/with-SteepDescent/Higher-Symm
REM
REM
REM
REM
REM
REM ./C.cell (1df0a924f5614ab8850e4351716899ee)
REM
REM compiler GCC version 9.2.1 20190827 (Red Hat 9.2.1-1)
REM options -cpp -mtune=generic -march=x86-64 -g -O0 -fpre-include=/usr/include/finclude/math-vector-fortran.h
REM seed 438005373 748563936 -171892274 -1543655666 -409887814 -939114614 -882725111 489155883 -1680143008 28054969 -1318139257 -374149741 -1609152478 -1806700533 449495945 1865816938 -952809246 -1520109523 -146906091 1812524295 1581098784 1209422972 964927371 -2134921583 -146360266 -1729967621 -1782177419 1803213207 1683776307 987838186 430265380 191584819 -656338578
REM
CELL 1.54180   50.00000   50.00000   50.00000   90.00000   90.00000   90.00000
LATT -1
SFAC C  
C      1  0.5193620000000  0.4814690000000  0.5480840000000 1.0
C      1  0.4823450000000  0.5478400000000  0.5176580000000 1.0
C      1  0.5575710000000  0.5119240000000  0.4848820000000 1.0
C      1  0.5199090000000  0.5198610000000  0.4494480000000 1.0
C      1  0.4854430000000  0.4836280000000  0.4484240000000 1.0
C      1  0.4817090000000  0.5203720000000  0.5548730000000 1.0
C      1  0.4814940000000  0.4434260000000  0.4748180000000 1.0
C      1  0.5355940000000  0.5531300000000  0.4794310000000 1.0
C      1  0.5197680000000  0.4399700000000  0.5107980000000 1.0
C      1  0.5622920000000  0.4743040000000  0.5218610000000 1.0
C      1  0.4482720000000  0.5197570000000  0.5180320000000 1.0
C      1  0.4510340000000  0.4834810000000  0.4833940000000 1.0
C      1  0.4712500000000  0.4819080000000  0.5496190000000 1.0
C      1  0.5206780000000  0.5625510000000  0.5155110000000 1.0
C      1  0.4619470000000  0.5375750000000  0.4755630000000 1.0
C      1  0.4675300000000  0.5195080000000  0.4514860000000 1.0
C      1  0.5403430000000  0.4789550000000  0.4578060000000 1.0
C      1  0.5197350000000  0.5225610000000  0.5453780000000 1.0
C      1  0.5231000000000  0.4575810000000  0.4658030000000 1.0
C      1  0.4878810000000  0.5527230000000  0.4736990000000 1.0
C      1  0.4824860000000  0.4552920000000  0.5172770000000 1.0
C      1  0.4400330000000  0.4809720000000  0.5212700000000 1.0
C      1  0.5532140000000  0.5202100000000  0.5168660000000 1.0
C      1  0.5627540000000  0.4710480000000  0.4752570000000 1.0
C      1  0.5131520000000  0.4253590000000  0.5604670000000 1.0
C      1  0.4307190000000  0.5540440000000  0.5138130000000 1.0
C      1  0.5521330000000  0.5139880000000  0.4290710000000 1.0
C      1  0.5112210000000  0.5767700000000  0.4370670000000 1.0
C      1  0.4861870000000  0.4297930000000  0.4466690000000 1.0
C      1  0.4845150000000  0.5732210000000  0.5590430000000 1.0
C      1  0.4258570000000  0.4386230000000  0.4856690000000 1.0
C      1  0.5785160000000  0.5656020000000  0.4856770000000 1.0
C      1  0.5705440000000  0.4452030000000  0.5150100000000 1.0
C      1  0.5533290000000  0.4861630000000  0.5695560000000 1.0
C      1  0.4404930000000  0.5122620000000  0.5752890000000 1.0
C      1  0.4443670000000  0.4867470000000  0.4278090000000 1.0
C      1  0.4858180000000  0.4267850000000  0.5591870000000 1.0
C      1  0.5775770000000  0.5644250000000  0.5135440000000 1.0
C      1  0.4452850000000  0.5146370000000  0.4298890000000 1.0
C      1  0.4845830000000  0.5703740000000  0.4439390000000 1.0
C      1  0.5153690000000  0.4313080000000  0.4455890000000 1.0
C      1  0.5117680000000  0.5761350000000  0.5622480000000 1.0
C      1  0.5708710000000  0.4435070000000  0.4859760000000 1.0
C      1  0.4325770000000  0.5538960000000  0.4835680000000 1.0
C      1  0.4249520000000  0.4393600000000  0.5132240000000 1.0
C      1  0.4448600000000  0.4843220000000  0.5711380000000 1.0
C      1  0.5579560000000  0.5131980000000  0.5741120000000 1.0
C      1  0.5540710000000  0.4849770000000  0.4305410000000 1.0
C      1  0.4069010000000  0.5137590000000  0.4641950000000 1.0
C      1  0.5142330000000  0.4637520000000  0.4073210000000 1.0
C      1  0.4646330000000  0.4078030000000  0.5153050000000 1.0
C      1  0.4100510000000  0.4840180000000  0.5348760000000 1.0
C      1  0.5818690000000  0.5179340000000  0.5314050000000 1.0
C      1  0.5894890000000  0.4800840000000  0.4647930000000 1.0
C      1  0.5145780000000  0.5355540000000  0.5928250000000 1.0
C      1  0.4848830000000  0.4644960000000  0.5927000000000 1.0
C      1  0.4838090000000  0.5363780000000  0.4058490000000 1.0
C      1  0.4643510000000  0.5938870000000  0.4847330000000 1.0
C      1  0.5360170000000  0.4067430000000  0.4835600000000 1.0
C      1  0.5341970000000  0.5883090000000  0.5195580000000 1.0
C      1  0.5827380000000  0.5181010000000  0.4668950000000 1.0
C      1  0.4847430000000  0.4635540000000  0.4077760000000 1.0
C      1  0.5346590000000  0.4138980000000  0.5160910000000 1.0
C      1  0.5888950000000  0.4826730000000  0.5338530000000 1.0
C      1  0.4077470000000  0.5158130000000  0.5359230000000 1.0
C      1  0.4096300000000  0.4840150000000  0.4641180000000 1.0
C      1  0.4848210000000  0.5355320000000  0.5925620000000 1.0
C      1  0.5143230000000  0.4639310000000  0.5925260000000 1.0
C      1  0.5137490000000  0.5368670000000  0.4061850000000 1.0
C      1  0.5342400000000  0.5832050000000  0.4807110000000 1.0
C      1  0.4644150000000  0.4055560000000  0.4856460000000 1.0
C      1  0.4640680000000  0.5927800000000  0.5149400000000 1.0
C      1  0.5352320000000  0.5142760000000  0.5930360000000 1.0
C      1  0.5132960000000  0.5945650000000  0.5397300000000 1.0
C      1  0.5929440000000  0.5391070000000  0.5137940000000 1.0
C      1  0.5328970000000  0.4859590000000  0.4062940000000 1.0
C      1  0.4649890000000  0.5144670000000  0.4052020000000 1.0
C      1  0.4651510000000  0.4856470000000  0.5953430000000 1.0
C      1  0.5146640000000  0.4061100000000  0.4645200000000 1.0
C      1  0.4851190000000  0.5943340000000  0.4637110000000 1.0
C      1  0.4855200000000  0.4080200000000  0.5357940000000 1.0
C      1  0.5982330000000  0.4600030000000  0.4856180000000 1.0
C      1  0.4071710000000  0.5342170000000  0.4850510000000 1.0
C      1  0.4059790000000  0.4619580000000  0.5134070000000 1.0
C      1  0.4642040000000  0.5143670000000  0.5928820000000 1.0
C      1  0.4843210000000  0.5928690000000  0.5364470000000 1.0
C      1  0.4063590000000  0.5345980000000  0.5142540000000 1.0
C      1  0.4649630000000  0.4857540000000  0.4071300000000 1.0
C      1  0.5328430000000  0.5147460000000  0.4057080000000 1.0
C      1  0.5343150000000  0.4851170000000  0.5925130000000 1.0
C      1  0.4855970000000  0.4034140000000  0.4655110000000 1.0
C      1  0.5138120000000  0.5927490000000  0.4613580000000 1.0
C      1  0.5143590000000  0.4071870000000  0.5375870000000 1.0
C      1  0.4081520000000  0.4633170000000  0.4845680000000 1.0
C      1  0.5928190000000  0.5397970000000  0.4844350000000 1.0
C      1  0.6007600000000  0.4624220000000  0.5138740000000 1.0
C      1  0.4418910000000  0.4191540000000  0.4722270000000 1.0
C      1  0.4241130000000  0.4725370000000  0.4414390000000 1.0
C      1  0.4733150000000  0.4416120000000  0.4221780000000 1.0
C      1  0.4415560000000  0.5783940000000  0.5267710000000 1.0
C      1  0.5602340000000  0.4224110000000  0.5286330000000 1.0
C      1  0.5617190000000  0.5827410000000  0.4695830000000 1.0
C      1  0.4218940000000  0.5266440000000  0.5585050000000 1.0
C      1  0.5773940000000  0.4725950000000  0.5602210000000 1.0
C      1  0.5746270000000  0.5279960000000  0.4405140000000 1.0
C      1  0.4714070000000  0.5578000000000  0.5794250000000 1.0
C      1  0.5270810000000  0.4412840000000  0.5794680000000 1.0
C      1  0.5261130000000  0.5596260000000  0.4194020000000 1.0
C      1  0.5582500000000  0.4192750000000  0.4713750000000 1.0
C      1  0.5803980000000  0.4716220000000  0.4383760000000 1.0
C      1  0.5264540000000  0.4404450000000  0.4204030000000 1.0
C      1  0.5605530000000  0.5803150000000  0.5300230000000 1.0
C      1  0.4421830000000  0.4213560000000  0.5276860000000 1.0
C      1  0.4410810000000  0.5807190000000  0.4727000000000 1.0
C      1  0.5766540000000  0.5279880000000  0.5589190000000 1.0
C      1  0.4206590000000  0.4722140000000  0.5601500000000 1.0
C      1  0.4200300000000  0.5271200000000  0.4418940000000 1.0
C      1  0.5267260000000  0.5589210000000  0.5804490000000 1.0
C      1  0.4720560000000  0.4421990000000  0.5785790000000 1.0
C      1  0.4712180000000  0.5579440000000  0.4210840000000 1.0
C      1  0.5664000000000  0.4229050000000  0.5560440000000 1.0
C      1  0.4221830000000  0.5544750000000  0.5651490000000 1.0
C      1  0.5539960000000  0.5659680000000  0.4200900000000 1.0
C      1  0.5670520000000  0.5786970000000  0.4415420000000 1.0
C      1  0.4357230000000  0.4213290000000  0.4439670000000 1.0
C      1  0.4344740000000  0.5778440000000  0.5549770000000 1.0
C      1  0.4239250000000  0.4448720000000  0.4341090000000 1.0
C      1  0.5763960000000  0.5543930000000  0.4312130000000 1.0
C      1  0.5775280000000  0.4454140000000  0.5674950000000 1.0
C      1  0.5548980000000  0.4344740000000  0.5788750000000 1.0
C      1  0.4439760000000  0.5644550000000  0.5781100000000 1.0
C      1  0.4462650000000  0.4349420000000  0.4216540000000 1.0
C      1  0.4358960000000  0.4222310000000  0.5552570000000 1.0
C      1  0.5778130000000  0.5548500000000  0.5671600000000 1.0
C      1  0.4442740000000  0.5646780000000  0.4222360000000 1.0
C      1  0.4348160000000  0.5788830000000  0.4446830000000 1.0
C      1  0.5645740000000  0.4211200000000  0.4431390000000 1.0
C      1  0.5668910000000  0.5778610000000  0.5571200000000 1.0
C      1  0.5774790000000  0.4440680000000  0.4314060000000 1.0
C      1  0.4213550000000  0.5549170000000  0.4354110000000 1.0
C      1  0.4213670000000  0.4443290000000  0.5649760000000 1.0
C      1  0.4448300000000  0.4351100000000  0.5775390000000 1.0
C      1  0.5550510000000  0.5657890000000  0.5796480000000 1.0
C      1  0.5535270000000  0.4336760000000  0.4205360000000 1.0
C      1  0.4677500000000  0.5301730000000  0.5022800000000 1.0
C      1  0.5248210000000  0.4623730000000  0.4951700000000 1.0
C      1  0.4656210000000  0.5075340000000  0.5375020000000 1.0
C      1  0.5317120000000  0.5031220000000  0.4712930000000 1.0
C      1  0.4942510000000  0.4659370000000  0.5420390000000 1.0
C      1  0.5133230000000  0.5413280000000  0.4667960000000 1.0
C      1  0.4585200000000  0.4666940000000  0.5061570000000 1.0
C      1  0.4667240000000  0.4949170000000  0.4645720000000 1.0
C      1  0.4960200000000  0.4661030000000  0.4660890000000 1.0
C      1  0.5395080000000  0.5434300000000  0.5064280000000 1.0
C      1  0.5298500000000  0.5016470000000  0.5261300000000 1.0
C      1  0.4958730000000  0.5381090000000  0.5405630000000 1.0
C      1  0.4945160000000  0.5096090000000  0.4397680000000 1.0
C      1  0.5047640000000  0.5030450000000  0.5627140000000 1.0
C      1  0.4934200000000  0.4363790000000  0.5005640000000 1.0
C      1  0.4965010000000  0.5643940000000  0.4999550000000 1.0
C      1  0.5635070000000  0.4873330000000  0.4965420000000 1.0
C      1  0.4350480000000  0.4996680000000  0.5013050000000 1.0
C      1  0.5151790000000  0.4923800000000  0.4979790000000 1.0
END
