TITL C-2441154-10-9 0.120671944089182 125000 -17505.2720300394 0 0 139 (C1) n - 1
REM
REM in /home/bkarasulu/work/CARBON/AIRSS/Generating-Clusters/ReaxFF-fromJPCA2015/Units_Real/with-SteepDescent/Higher-Symm
REM
REM
REM
REM
REM
REM ./C.cell (1df0a924f5614ab8850e4351716899ee)
REM
REM compiler GCC version 9.2.1 20190827 (Red Hat 9.2.1-1)
REM options -cpp -mtune=generic -march=x86-64 -g -O0 -fpre-include=/usr/include/finclude/math-vector-fortran.h
REM seed -68668558 -510102731 -1524968444 362369693 -1863030490 682191763 -1411013078 -2116775389 80991508 -899096536 -1340346741 191469813 450688085 10428553 1918289022 1732697553 -2118375830 -154300465 1409313224 -1920676154 866941701 603947775 -1452279718 -338693506 429725527 1859325688 797801690 -1256173837 792982220 -1185206926 -188144678 1472030599 2124862655
REM
CELL 1.54180   50.00000   50.00000   50.00000   90.00000   90.00000   90.00000
LATT -1
SFAC C  
C      1  0.4979350000000  0.4600730000000  0.4394660000000 1.0
C      1  0.5005220000000  0.5708480000000  0.4953900000000 1.0
C      1  0.4979800000000  0.4634130000000  0.5639670000000 1.0
C      1  0.5306480000000  0.4387920000000  0.5656510000000 1.0
C      1  0.5309980000000  0.4681700000000  0.4175690000000 1.0
C      1  0.5352700000000  0.5756190000000  0.5232540000000 1.0
C      1  0.4245710000000  0.5541970000000  0.4904460000000 1.0
C      1  0.4272120000000  0.4800380000000  0.5549320000000 1.0
C      1  0.4276080000000  0.4602600000000  0.4556340000000 1.0
C      1  0.4696610000000  0.5818950000000  0.5040880000000 1.0
C      1  0.4700870000000  0.4529010000000  0.5684540000000 1.0
C      1  0.4711060000000  0.4625460000000  0.4269110000000 1.0
C      1  0.5461370000000  0.4240370000000  0.4644270000000 1.0
C      1  0.5471270000000  0.5719490000000  0.4548510000000 1.0
C      1  0.5440490000000  0.4977370000000  0.5849450000000 1.0
C      1  0.4557430000000  0.5060970000000  0.4490360000000 1.0
C      1  0.4551870000000  0.5405150000000  0.5326540000000 1.0
C      1  0.4554060000000  0.4516590000000  0.5202250000000 1.0
C      1  0.5787160000000  0.5483020000000  0.5233320000000 1.0
C      1  0.5716940000000  0.4538130000000  0.5319600000000 1.0
C      1  0.5731320000000  0.4931980000000  0.4442870000000 1.0
C      1  0.4882770000000  0.5236040000000  0.5131890000000 1.0
C      1  0.4879620000000  0.4766840000000  0.5149680000000 1.0
C      1  0.4864980000000  0.4986760000000  0.4747880000000 1.0
C      1  0.5672010000000  0.4599300000000  0.4908700000000 1.0
C      1  0.5716790000000  0.5277930000000  0.4659100000000 1.0
C      1  0.5668400000000  0.5117850000000  0.5413470000000 1.0
C      1  0.4994120000000  0.5319510000000  0.5581290000000 1.0
C      1  0.4968410000000  0.4344850000000  0.4997540000000 1.0
C      1  0.5003810000000  0.5315030000000  0.4435520000000 1.0
C      1  0.4126530000000  0.5223790000000  0.5285750000000 1.0
C      1  0.4121680000000  0.4637200000000  0.5054510000000 1.0
C      1  0.4128130000000  0.5082380000000  0.4661940000000 1.0
C      1  0.4785720000000  0.5461500000000  0.4318950000000 1.0
C      1  0.4760100000000  0.5350220000000  0.5776190000000 1.0
C      1  0.4760550000000  0.4148250000000  0.4945790000000 1.0
C      1  0.4666960000000  0.4251050000000  0.4469980000000 1.0
C      1  0.4589960000000  0.5749730000000  0.4652200000000 1.0
C      1  0.4661430000000  0.4894020000000  0.5909570000000 1.0
C      1  0.4396290000000  0.4976670000000  0.4268390000000 1.0
C      1  0.4380280000000  0.5634610000000  0.5352340000000 1.0
C      1  0.4379770000000  0.4371550000000  0.5377590000000 1.0
C      1  0.5564650000000  0.5018310000000  0.4696690000000 1.0
C      1  0.5548560000000  0.5248580000000  0.5175930000000 1.0
C      1  0.5548950000000  0.4728680000000  0.5129650000000 1.0
C      1  0.5521020000000  0.5689490000000  0.4827310000000 1.0
C      1  0.5463690000000  0.4800010000000  0.5628220000000 1.0
C      1  0.5522980000000  0.4489960000000  0.4496700000000 1.0
C      1  0.4862490000000  0.4899170000000  0.5698950000000 1.0
C      1  0.4848460000000  0.4435450000000  0.4589290000000 1.0
C      1  0.4935390000000  0.5583310000000  0.4720140000000 1.0
C      1  0.4942800000000  0.4600580000000  0.4929800000000 1.0
C      1  0.4986010000000  0.5226720000000  0.4680830000000 1.0
C      1  0.4943890000000  0.5135410000000  0.5387470000000 1.0
C      1  0.4622420000000  0.4296560000000  0.5541050000000 1.0
C      1  0.4641840000000  0.4866370000000  0.4137330000000 1.0
C      1  0.4616560000000  0.5814110000000  0.5309870000000 1.0
C      1  0.5354590000000  0.4102080000000  0.5377520000000 1.0
C      1  0.5339970000000  0.5115230000000  0.4018050000000 1.0
C      1  0.5250630000000  0.5760480000000  0.5634840000000 1.0
C      1  0.5161380000000  0.5338850000000  0.4046710000000 1.0
C      1  0.5320140000000  0.5544030000000  0.5798630000000 1.0
C      1  0.5174790000000  0.3998420000000  0.5172610000000 1.0
C      1  0.5517290000000  0.5068290000000  0.4283350000000 1.0
C      1  0.5670080000000  0.5570120000000  0.5482180000000 1.0
C      1  0.5510570000000  0.4328870000000  0.5229530000000 1.0
C      1  0.4796870000000  0.5629540000000  0.5722020000000 1.0
C      1  0.4883180000000  0.4015820000000  0.5199480000000 1.0
C      1  0.4879170000000  0.5301800000000  0.4062670000000 1.0
C      1  0.5344730000000  0.5460890000000  0.5241690000000 1.0
C      1  0.5312610000000  0.4551950000000  0.5187320000000 1.0
C      1  0.5323270000000  0.5021100000000  0.4522400000000 1.0
C      1  0.5906580000000  0.4705400000000  0.4788060000000 1.0
C      1  0.5887200000000  0.5295300000000  0.4884060000000 1.0
C      1  0.5867890000000  0.4927040000000  0.5329610000000 1.0
C      1  0.4182230000000  0.4593740000000  0.5343130000000 1.0
C      1  0.4195990000000  0.4876790000000  0.4465110000000 1.0
C      1  0.4179010000000  0.5498130000000  0.5182850000000 1.0
C      1  0.5148130000000  0.4180150000000  0.5570790000000 1.0
C      1  0.5165130000000  0.4883030000000  0.4039800000000 1.0
C      1  0.5144580000000  0.5882150000000  0.5417070000000 1.0
C      1  0.5202290000000  0.5099670000000  0.5935810000000 1.0
C      1  0.5191380000000  0.4128230000000  0.4664280000000 1.0
C      1  0.5206400000000  0.5731990000000  0.4428040000000 1.0
C      1  0.4493420000000  0.4725310000000  0.5744140000000 1.0
C      1  0.4495620000000  0.4474250000000  0.4396530000000 1.0
C      1  0.4441960000000  0.5784550000000  0.4888670000000 1.0
C      1  0.5281740000000  0.4466680000000  0.4335180000000 1.0
C      1  0.5292640000000  0.5811100000000  0.4956310000000 1.0
C      1  0.5263290000000  0.4622190000000  0.5785200000000 1.0
C      1  0.4251130000000  0.4512350000000  0.4834880000000 1.0
C      1  0.4250860000000  0.5341060000000  0.4685680000000 1.0
C      1  0.4250410000000  0.5084090000000  0.5510130000000 1.0
C      1  0.4863510000000  0.4162760000000  0.5447480000000 1.0
C      1  0.4885740000000  0.5012210000000  0.4072020000000 1.0
C      1  0.4850690000000  0.5803400000000  0.5500310000000 1.0
C      1  0.4673690000000  0.5477840000000  0.4752140000000 1.0
C      1  0.4703310000000  0.4991470000000  0.5466230000000 1.0
C      1  0.4691360000000  0.4594830000000  0.4779080000000 1.0
C      1  0.5533430000000  0.5354860000000  0.4285030000000 1.0
C      1  0.5600750000000  0.5503800000000  0.5758490000000 1.0
C      1  0.5599430000000  0.4207470000000  0.4920600000000 1.0
C      1  0.4922720000000  0.5713130000000  0.4471980000000 1.0
C      1  0.4892020000000  0.5080910000000  0.5940590000000 1.0
C      1  0.4886980000000  0.4130760000000  0.4643590000000 1.0
C      1  0.5247110000000  0.5447100000000  0.4325100000000 1.0
C      1  0.5228210000000  0.5288690000000  0.5710480000000 1.0
C      1  0.5199780000000  0.4193970000000  0.4949450000000 1.0
C      1  0.5110480000000  0.4823700000000  0.4583540000000 1.0
C      1  0.5115300000000  0.5427340000000  0.5056600000000 1.0
C      1  0.5102570000000  0.4680770000000  0.5350830000000 1.0
C      1  0.5769600000000  0.4665800000000  0.4527680000000 1.0
C      1  0.5778090000000  0.5556980000000  0.4958980000000 1.0
C      1  0.5755170000000  0.4734620000000  0.5520670000000 1.0
C      1  0.5829080000000  0.4366820000000  0.4908610000000 1.0
C      1  0.5665550000000  0.5505760000000  0.4482270000000 1.0
C      1  0.5734170000000  0.5310220000000  0.5610780000000 1.0
C      1  0.4523700000000  0.5211940000000  0.5546430000000 1.0
C      1  0.4530110000000  0.4407530000000  0.4934140000000 1.0
C      1  0.4523910000000  0.5345920000000  0.4528920000000 1.0
C      1  0.5200350000000  0.4720580000000  0.4843560000000 1.0
C      1  0.5221550000000  0.5243470000000  0.4846800000000 1.0
C      1  0.5228670000000  0.4975660000000  0.5338610000000 1.0
C      1  0.4595720000000  0.5306050000000  0.5053710000000 1.0
C      1  0.4595180000000  0.4807280000000  0.5239620000000 1.0
C      1  0.4576820000000  0.4889300000000  0.4735290000000 1.0
C      1  0.4004320000000  0.4920380000000  0.4924550000000 1.0
C      1  0.3216900000000  0.4999700000000  0.5020400000000 1.0
C      1  0.6679200000000  0.4989800000000  0.5003250000000 1.0
C      1  0.5280150000000  0.4982210000000  0.4994030000000 1.0
C      1  0.4903240000000  0.4995130000000  0.5010720000000 1.0
C      1  0.3715760000000  0.4973260000000  0.4983710000000 1.0
C      1  0.5927870000000  0.4977220000000  0.5008460000000 1.0
C      1  0.6436920000000  0.4986600000000  0.5005120000000 1.0
C      1  0.3466880000000  0.4997320000000  0.5012970000000 1.0
C      1  0.4461640000000  0.5017540000000  0.5018680000000 1.0
C      1  0.6188980000000  0.4982030000000  0.5008420000000 1.0
C      1  0.5532820000000  0.4996610000000  0.5006050000000 1.0
C      1  0.4187270000000  0.5056640000000  0.5081190000000 1.0
END
