TITL C-2441154-10-1210 0.03272643539447 125000 -17549.1512771592 0 0 120 (C1) n - 1
REM
REM in /home/bkarasulu/work/CARBON/AIRSS/Generating-Clusters/ReaxFF-fromJPCA2015/Units_Real/with-SteepDescent/Higher-Symm
REM
REM
REM
REM
REM
REM ./C.cell (1df0a924f5614ab8850e4351716899ee)
REM
REM compiler GCC version 9.2.1 20190827 (Red Hat 9.2.1-1)
REM options -cpp -mtune=generic -march=x86-64 -g -O0 -fpre-include=/usr/include/finclude/math-vector-fortran.h
REM seed -785720368 1640295275 1521668351 899640262 1203391943 2093418500 -318496551 -1805788556 1613733355 -317547246 -1112048090 1477449035 1619568944 1074448282 1108399883 -1069854783 -1011745015 -424746108 1082351355 -517777992 -743047972 -1320852298 1651031729 1240759912 -1508399131 1407774670 746479494 173177177 1588525067 1165945031 351738611 -1507075409 -1764228812
REM
CELL 1.54180   50.00000   50.00000   50.00000   90.00000   90.00000   90.00000
LATT -1
SFAC C  
C      1  0.4745280000000  0.5356540000000  0.4947840000000 1.0
C      1  0.5405420000000  0.4999740000000  0.4902610000000 1.0
C      1  0.4801080000000  0.4630130000000  0.4938840000000 1.0
C      1  0.5771670000000  0.4766030000000  0.5444630000000 1.0
C      1  0.4343710000000  0.4491480000000  0.5531040000000 1.0
C      1  0.4876980000000  0.5868870000000  0.5541940000000 1.0
C      1  0.4713550000000  0.5825000000000  0.4815940000000 1.0
C      1  0.5903100000000  0.4848850000000  0.4821110000000 1.0
C      1  0.4365190000000  0.4284820000000  0.4803550000000 1.0
C      1  0.5993930000000  0.5120710000000  0.4769210000000 1.0
C      1  0.4576850000000  0.4073720000000  0.4794230000000 1.0
C      1  0.4503710000000  0.5636240000000  0.4821630000000 1.0
C      1  0.5252460000000  0.5472530000000  0.4255780000000 1.0
C      1  0.5491520000000  0.4604950000000  0.4358840000000 1.0
C      1  0.4497830000000  0.4988940000000  0.4233820000000 1.0
C      1  0.4773280000000  0.4769400000000  0.5936980000000 1.0
C      1  0.4948670000000  0.5316100000000  0.5655540000000 1.0
C      1  0.5264020000000  0.4859700000000  0.5747410000000 1.0
C      1  0.4705390000000  0.4808970000000  0.4141940000000 1.0
C      1  0.5000760000000  0.5448340000000  0.4123180000000 1.0
C      1  0.5406270000000  0.4781380000000  0.4164600000000 1.0
C      1  0.5140020000000  0.4315060000000  0.4968580000000 1.0
C      1  0.4274030000000  0.5121190000000  0.4995550000000 1.0
C      1  0.5593310000000  0.5751240000000  0.4968200000000 1.0
C      1  0.4718970000000  0.5813200000000  0.5108590000000 1.0
C      1  0.5790540000000  0.4762830000000  0.5102310000000 1.0
C      1  0.4424990000000  0.4328000000000  0.5093780000000 1.0
C      1  0.5142390000000  0.5790770000000  0.5547540000000 1.0
C      1  0.5534240000000  0.4605270000000  0.5482280000000 1.0
C      1  0.4380690000000  0.4779190000000  0.5557440000000 1.0
C      1  0.5139390000000  0.4730360000000  0.4077250000000 1.0
C      1  0.4947240000000  0.4926740000000  0.4033180000000 1.0
C      1  0.5075760000000  0.5189430000000  0.4016730000000 1.0
C      1  0.5782020000000  0.4745900000000  0.4576950000000 1.0
C      1  0.4389740000000  0.4490260000000  0.4597120000000 1.0
C      1  0.4885370000000  0.5754480000000  0.4601230000000 1.0
C      1  0.5636480000000  0.5483460000000  0.4567260000000 1.0
C      1  0.5315630000000  0.4206980000000  0.4568530000000 1.0
C      1  0.4255500000000  0.5295630000000  0.4539870000000 1.0
C      1  0.4622780000000  0.5072510000000  0.5010270000000 1.0
C      1  0.5231910000000  0.5234560000000  0.4947890000000 1.0
C      1  0.5092540000000  0.4626670000000  0.4977430000000 1.0
C      1  0.4602650000000  0.4950910000000  0.5487410000000 1.0
C      1  0.5043060000000  0.5366850000000  0.5362190000000 1.0
C      1  0.5234860000000  0.4718710000000  0.5485780000000 1.0
C      1  0.4259090000000  0.4761670000000  0.4604910000000 1.0
C      1  0.5178460000000  0.5733840000000  0.4666020000000 1.0
C      1  0.5659570000000  0.4496310000000  0.4698010000000 1.0
C      1  0.4145100000000  0.4551970000000  0.5306110000000 1.0
C      1  0.4913680000000  0.5978040000000  0.5259280000000 1.0
C      1  0.5750530000000  0.4456190000000  0.5145150000000 1.0
C      1  0.4117950000000  0.4841340000000  0.5442100000000 1.0
C      1  0.5328270000000  0.5860600000000  0.5370530000000 1.0
C      1  0.5560500000000  0.4352190000000  0.5347510000000 1.0
C      1  0.5829640000000  0.5361860000000  0.5226200000000 1.0
C      1  0.4828040000000  0.4086360000000  0.5253650000000 1.0
C      1  0.4304440000000  0.5557910000000  0.5267160000000 1.0
C      1  0.5343440000000  0.5557220000000  0.4511180000000 1.0
C      1  0.5288730000000  0.4417560000000  0.4368510000000 1.0
C      1  0.4313270000000  0.5006200000000  0.4462760000000 1.0
C      1  0.5753540000000  0.4314520000000  0.4893810000000 1.0
C      1  0.4139530000000  0.4673120000000  0.5061440000000 1.0
C      1  0.5176580000000  0.5968010000000  0.5129500000000 1.0
C      1  0.5699920000000  0.5003340000000  0.4437170000000 1.0
C      1  0.4643060000000  0.4403010000000  0.4477730000000 1.0
C      1  0.4685610000000  0.5607640000000  0.4449270000000 1.0
C      1  0.5711990000000  0.5003600000000  0.5594330000000 1.0
C      1  0.4593870000000  0.4370830000000  0.5609450000000 1.0
C      1  0.4675070000000  0.5670570000000  0.5631910000000 1.0
C      1  0.5045790000000  0.4855880000000  0.5239380000000 1.0
C      1  0.4757770000000  0.4937860000000  0.5251100000000 1.0
C      1  0.5139000000000  0.5137790000000  0.5207110000000 1.0
C      1  0.5345290000000  0.5234790000000  0.4126890000000 1.0
C      1  0.5051090000000  0.4503980000000  0.4213240000000 1.0
C      1  0.4636970000000  0.5212450000000  0.4202290000000 1.0
C      1  0.4744850000000  0.5462710000000  0.4213340000000 1.0
C      1  0.5514530000000  0.5031680000000  0.4222240000000 1.0
C      1  0.4774310000000  0.4550180000000  0.4267440000000 1.0
C      1  0.5244220000000  0.4784460000000  0.4786190000000 1.0
C      1  0.4691630000000  0.4863120000000  0.4811820000000 1.0
C      1  0.4996940000000  0.5318020000000  0.4797640000000 1.0
C      1  0.5805040000000  0.5239610000000  0.4557750000000 1.0
C      1  0.4783510000000  0.4184160000000  0.4620110000000 1.0
C      1  0.4427560000000  0.5549060000000  0.4564560000000 1.0
C      1  0.5607270000000  0.5174990000000  0.5359600000000 1.0
C      1  0.4794520000000  0.4361080000000  0.5380090000000 1.0
C      1  0.4557660000000  0.5494820000000  0.5420640000000 1.0
C      1  0.5496260000000  0.5636300000000  0.5419410000000 1.0
C      1  0.5287290000000  0.4243790000000  0.5371670000000 1.0
C      1  0.4183880000000  0.5123900000000  0.5430770000000 1.0
C      1  0.5404430000000  0.5372340000000  0.5476050000000 1.0
C      1  0.5104820000000  0.4435510000000  0.5519590000000 1.0
C      1  0.4457550000000  0.5201480000000  0.5553180000000 1.0
C      1  0.4590760000000  0.4071830000000  0.5091670000000 1.0
C      1  0.4415630000000  0.5738050000000  0.5079760000000 1.0
C      1  0.5933720000000  0.5226350000000  0.5014870000000 1.0
C      1  0.4655680000000  0.4503330000000  0.5146060000000 1.0
C      1  0.4806770000000  0.5487570000000  0.5205240000000 1.0
C      1  0.5564300000000  0.4955630000000  0.5134270000000 1.0
C      1  0.5698900000000  0.5628390000000  0.5216160000000 1.0
C      1  0.5111410000000  0.4113210000000  0.5176240000000 1.0
C      1  0.4150670000000  0.5311190000000  0.5212020000000 1.0
C      1  0.5065700000000  0.4182810000000  0.4718750000000 1.0
C      1  0.4194630000000  0.5319120000000  0.4806830000000 1.0
C      1  0.5716100000000  0.5563960000000  0.4812980000000 1.0
C      1  0.4740990000000  0.4477720000000  0.5834810000000 1.0
C      1  0.4749680000000  0.5465910000000  0.5826080000000 1.0
C      1  0.5500140000000  0.5028370000000  0.5792220000000 1.0
C      1  0.4640290000000  0.5010810000000  0.5907420000000 1.0
C      1  0.5126850000000  0.5342360000000  0.5847630000000 1.0
C      1  0.5074820000000  0.4723620000000  0.5923110000000 1.0
C      1  0.5305250000000  0.5847220000000  0.4902470000000 1.0
C      1  0.5579450000000  0.4225930000000  0.4686810000000 1.0
C      1  0.4148790000000  0.4846120000000  0.4863760000000 1.0
C      1  0.4536340000000  0.5251740000000  0.5852490000000 1.0
C      1  0.5393390000000  0.5306600000000  0.5771570000000 1.0
C      1  0.5030480000000  0.4455360000000  0.5814950000000 1.0
C      1  0.5100760000000  0.4889210000000  0.4571360000000 1.0
C      1  0.4831030000000  0.4922300000000  0.4580260000000 1.0
C      1  0.4990640000000  0.5148790000000  0.4560400000000 1.0
END
