TITL C-2441163-1170-1309 0.0135160635339617 125000 -8452.1417924841 0 0 61 (C1) n - 1
REM
REM in /home/bkarasulu/work/CARBON/AIRSS/Generating-Clusters/ReaxFF-fromJPCA2015/Units_Real/with-SteepDescent/Higher-Symm
REM
REM
REM
REM
REM
REM ./C.cell (1df0a924f5614ab8850e4351716899ee)
REM
REM compiler GCC version 9.2.1 20190827 (Red Hat 9.2.1-1)
REM options -cpp -mtune=generic -march=x86-64 -g -O0 -fpre-include=/usr/include/finclude/math-vector-fortran.h
REM seed 1664538817 -931607001 -1527909706 -1645838134 1429712480 1189893709 1601292005 -2063637413 327680530 -379586019 -1562525871 -1762801042 -154362244 952176138 1305526394 -1169135727 -1131103302 723084733 307727202 1264082683 -24530447 598701699 912014949 -1744520622 -1245660154 -1111114912 -1096157315 -416562328 -503806020 -1406933055 1670020473 1793021465 1406538924
REM
CELL 1.54180   50.00000   50.00000   50.00000   90.00000   90.00000   90.00000
LATT -1
SFAC C  
C      1  0.5290260000000  0.4060030000000  0.4852410000000 1.0
C      1  0.5273880000000  0.4160290000000  0.5094410000000 1.0
C      1  0.5000450000000  0.5082680000000  0.4317070000000 1.0
C      1  0.5013080000000  0.5097330000000  0.5713750000000 1.0
C      1  0.5343230000000  0.5458230000000  0.5464700000000 1.0
C      1  0.5337120000000  0.5451290000000  0.4535770000000 1.0
C      1  0.4464450000000  0.5176450000000  0.4337760000000 1.0
C      1  0.4452710000000  0.5185600000000  0.5691670000000 1.0
C      1  0.5559370000000  0.5235100000000  0.5394310000000 1.0
C      1  0.5571580000000  0.5265090000000  0.4629510000000 1.0
C      1  0.5081550000000  0.4399470000000  0.4467050000000 1.0
C      1  0.5081420000000  0.4393180000000  0.5547490000000 1.0
C      1  0.5224080000000  0.4616000000000  0.5696810000000 1.0
C      1  0.5200130000000  0.4608740000000  0.4338340000000 1.0
C      1  0.5118190000000  0.5583430000000  0.4700300000000 1.0
C      1  0.5122680000000  0.5583350000000  0.5319950000000 1.0
C      1  0.5452890000000  0.4775170000000  0.5652970000000 1.0
C      1  0.5418500000000  0.4796620000000  0.4395710000000 1.0
C      1  0.5167490000000  0.5103330000000  0.4894020000000 1.0
C      1  0.5128230000000  0.5087440000000  0.5164610000000 1.0
C      1  0.4703690000000  0.4640200000000  0.5225500000000 1.0
C      1  0.4677160000000  0.4598220000000  0.4751380000000 1.0
C      1  0.4859630000000  0.4404080000000  0.4630370000000 1.0
C      1  0.4865760000000  0.4490220000000  0.5402480000000 1.0
C      1  0.5124360000000  0.4843720000000  0.5296630000000 1.0
C      1  0.5073170000000  0.4838450000000  0.4799930000000 1.0
C      1  0.4834250000000  0.5672670000000  0.4662490000000 1.0
C      1  0.4842420000000  0.5666760000000  0.5365080000000 1.0
C      1  0.5773330000000  0.4807490000000  0.5149740000000 1.0
C      1  0.5773170000000  0.4813030000000  0.4855030000000 1.0
C      1  0.4723310000000  0.5800200000000  0.5146930000000 1.0
C      1  0.4723800000000  0.5785620000000  0.4889170000000 1.0
C      1  0.5669870000000  0.5111920000000  0.4864070000000 1.0
C      1  0.5672620000000  0.5109790000000  0.5153750000000 1.0
C      1  0.4430730000000  0.5315890000000  0.4810230000000 1.0
C      1  0.4447710000000  0.5317300000000  0.5226230000000 1.0
C      1  0.4474020000000  0.4808730000000  0.4677580000000 1.0
C      1  0.4471510000000  0.4810160000000  0.5328370000000 1.0
C      1  0.5057710000000  0.5360780000000  0.4870180000000 1.0
C      1  0.4989400000000  0.5353030000000  0.5168400000000 1.0
C      1  0.5243980000000  0.4353530000000  0.5296180000000 1.0
C      1  0.5131840000000  0.4362380000000  0.4742180000000 1.0
C      1  0.4710620000000  0.5055660000000  0.4292400000000 1.0
C      1  0.4726960000000  0.5096640000000  0.5633190000000 1.0
C      1  0.4397940000000  0.5025350000000  0.5150730000000 1.0
C      1  0.4405980000000  0.5026690000000  0.4864610000000 1.0
C      1  0.4428070000000  0.5373180000000  0.4527190000000 1.0
C      1  0.4324160000000  0.5371060000000  0.5497260000000 1.0
C      1  0.4512830000000  0.4903710000000  0.5598260000000 1.0
C      1  0.4498680000000  0.4902880000000  0.4404940000000 1.0
C      1  0.5060430000000  0.4830930000000  0.5580650000000 1.0
C      1  0.5110420000000  0.4836880000000  0.4467110000000 1.0
C      1  0.5148240000000  0.5304020000000  0.4397990000000 1.0
C      1  0.5174470000000  0.5305480000000  0.5616110000000 1.0
C      1  0.5236110000000  0.4606650000000  0.4880620000000 1.0
C      1  0.5239160000000  0.4618270000000  0.5160930000000 1.0
C      1  0.5539580000000  0.4998080000000  0.5534910000000 1.0
C      1  0.5498900000000  0.5050850000000  0.4477650000000 1.0
C      1  0.4720430000000  0.5419020000000  0.5278230000000 1.0
C      1  0.4651280000000  0.5451080000000  0.4669340000000 1.0
C      1  0.4808330000000  0.4737590000000  0.4963770000000 1.0
END
