TITL C-2441167-4473-286 0.0631016388686591 125000 -13620.0796339582 0 0 102 (C1) n - 1
REM
REM in /home/bkarasulu/work/CARBON/AIRSS/Generating-Clusters/ReaxFF-fromJPCA2015/Units_Real/with-SteepDescent/Higher-Symm
REM
REM
REM
REM
REM
REM ./C.cell (1df0a924f5614ab8850e4351716899ee)
REM
REM compiler GCC version 9.2.1 20190827 (Red Hat 9.2.1-1)
REM options -cpp -mtune=generic -march=x86-64 -g -O0 -fpre-include=/usr/include/finclude/math-vector-fortran.h
REM seed -1648606077 -618162200 370061139 -996549217 1930521369 1420759194 1604691031 -2079656217 1825120165 -1911765851 1037032816 193002710 190467926 1110405784 70921935 1933257363 2048105541 682344144 -248128942 30109430 -846839381 1377523054 -2086131364 469260512 894267409 924261992 -292275541 -1632204434 -1588945422 1784445140 112254672 -1146358532 783266845
REM
CELL 1.54180   50.00000   50.00000   50.00000   90.00000   90.00000   90.00000
LATT -1
SFAC C  
C      1  0.5669490000000  0.5113460000000  0.5616800000000 1.0
C      1  0.5670120000000  0.5113000000000  0.4381970000000 1.0
C      1  0.4881170000000  0.5756580000000  0.5265030000000 1.0
C      1  0.4883170000000  0.5756440000000  0.4735130000000 1.0
C      1  0.5276330000000  0.4107050000000  0.5147980000000 1.0
C      1  0.5284670000000  0.4107810000000  0.4859360000000 1.0
C      1  0.5049790000000  0.4158800000000  0.4678930000000 1.0
C      1  0.5041780000000  0.4156770000000  0.5320220000000 1.0
C      1  0.4434520000000  0.5273090000000  0.5142360000000 1.0
C      1  0.4379850000000  0.5312230000000  0.4876880000000 1.0
C      1  0.4884080000000  0.5676920000000  0.5578190000000 1.0
C      1  0.4880480000000  0.5675700000000  0.4419120000000 1.0
C      1  0.5427080000000  0.5654090000000  0.5161030000000 1.0
C      1  0.5425000000000  0.5654260000000  0.4841030000000 1.0
C      1  0.5375900000000  0.5560220000000  0.5647120000000 1.0
C      1  0.5375990000000  0.5563490000000  0.4351150000000 1.0
C      1  0.4906810000000  0.4743780000000  0.5462370000000 1.0
C      1  0.4918790000000  0.4750470000000  0.4535870000000 1.0
C      1  0.4784640000000  0.5445060000000  0.4259530000000 1.0
C      1  0.4787380000000  0.5444910000000  0.5734310000000 1.0
C      1  0.5147570000000  0.5693050000000  0.4433180000000 1.0
C      1  0.5154390000000  0.5701720000000  0.5559350000000 1.0
C      1  0.5514000000000  0.4868970000000  0.5706670000000 1.0
C      1  0.5499200000000  0.4903440000000  0.4275040000000 1.0
C      1  0.4895030000000  0.4375180000000  0.5149620000000 1.0
C      1  0.4901930000000  0.4370330000000  0.4844860000000 1.0
C      1  0.5547280000000  0.5541660000000  0.5401360000000 1.0
C      1  0.5545470000000  0.5542370000000  0.4599780000000 1.0
C      1  0.5046100000000  0.4609010000000  0.4744240000000 1.0
C      1  0.5034490000000  0.4615910000000  0.5251250000000 1.0
C      1  0.5132900000000  0.4498390000000  0.4264260000000 1.0
C      1  0.5146620000000  0.4493460000000  0.5730240000000 1.0
C      1  0.4958070000000  0.5483860000000  0.5137920000000 1.0
C      1  0.4954380000000  0.5486570000000  0.4863270000000 1.0
C      1  0.4371520000000  0.4395290000000  0.4859480000000 1.0
C      1  0.4371390000000  0.4394490000000  0.5117590000000 1.0
C      1  0.4566720000000  0.5020100000000  0.4396240000000 1.0
C      1  0.4563470000000  0.5026070000000  0.5605900000000 1.0
C      1  0.4691590000000  0.4450770000000  0.5652200000000 1.0
C      1  0.4692010000000  0.4449710000000  0.4342890000000 1.0
C      1  0.4587730000000  0.4402360000000  0.4715940000000 1.0
C      1  0.4582630000000  0.4408110000000  0.5261540000000 1.0
C      1  0.4606450000000  0.5750220000000  0.5139350000000 1.0
C      1  0.4612940000000  0.5742140000000  0.4855620000000 1.0
C      1  0.4343150000000  0.5423210000000  0.5500510000000 1.0
C      1  0.4345230000000  0.5418310000000  0.4489830000000 1.0
C      1  0.5563460000000  0.5012960000000  0.4775130000000 1.0
C      1  0.5565470000000  0.5017770000000  0.5218810000000 1.0
C      1  0.5746440000000  0.5324620000000  0.5424790000000 1.0
C      1  0.5743320000000  0.5325280000000  0.4577550000000 1.0
C      1  0.4452430000000  0.4508090000000  0.5515690000000 1.0
C      1  0.4473320000000  0.4514830000000  0.4488440000000 1.0
C      1  0.4534230000000  0.5307050000000  0.5688540000000 1.0
C      1  0.4535810000000  0.5298760000000  0.4305910000000 1.0
C      1  0.4887340000000  0.4647290000000  0.5750170000000 1.0
C      1  0.4872870000000  0.4636190000000  0.4279780000000 1.0
C      1  0.5180670000000  0.4807790000000  0.4873280000000 1.0
C      1  0.5175110000000  0.4811970000000  0.5127140000000 1.0
C      1  0.5027020000000  0.5241080000000  0.4715270000000 1.0
C      1  0.5019880000000  0.5236790000000  0.5284700000000 1.0
C      1  0.5191420000000  0.5828360000000  0.4860520000000 1.0
C      1  0.5193440000000  0.5829010000000  0.5148600000000 1.0
C      1  0.5761200000000  0.5220210000000  0.5146810000000 1.0
C      1  0.5753750000000  0.5218920000000  0.4854210000000 1.0
C      1  0.4216950000000  0.5216510000000  0.4662950000000 1.0
C      1  0.4216180000000  0.5219190000000  0.5335730000000 1.0
C      1  0.4384660000000  0.4796970000000  0.4448930000000 1.0
C      1  0.4371590000000  0.4808430000000  0.5566770000000 1.0
C      1  0.4814670000000  0.5101280000000  0.4863560000000 1.0
C      1  0.4774040000000  0.5122190000000  0.5150150000000 1.0
C      1  0.5692760000000  0.4762080000000  0.5145400000000 1.0
C      1  0.5690470000000  0.4758750000000  0.4849070000000 1.0
C      1  0.4386430000000  0.4822870000000  0.4863720000000 1.0
C      1  0.4380460000000  0.4819180000000  0.5151560000000 1.0
C      1  0.5551130000000  0.4533700000000  0.5217930000000 1.0
C      1  0.5586630000000  0.4513490000000  0.4781570000000 1.0
C      1  0.5279870000000  0.5080590000000  0.4840840000000 1.0
C      1  0.5275240000000  0.5085630000000  0.5161850000000 1.0
C      1  0.5264920000000  0.5326660000000  0.4213440000000 1.0
C      1  0.5269690000000  0.5319520000000  0.5784100000000 1.0
C      1  0.4899560000000  0.4989460000000  0.4167650000000 1.0
C      1  0.4897250000000  0.4991900000000  0.5835010000000 1.0
C      1  0.5534780000000  0.4252880000000  0.5161890000000 1.0
C      1  0.5542720000000  0.4252830000000  0.4858870000000 1.0
C      1  0.5382600000000  0.4647760000000  0.4349010000000 1.0
C      1  0.5359560000000  0.4651850000000  0.5627080000000 1.0
C      1  0.4987910000000  0.5262230000000  0.4142270000000 1.0
C      1  0.4990260000000  0.5262360000000  0.5851900000000 1.0
C      1  0.5034710000000  0.4294800000000  0.4430450000000 1.0
C      1  0.5047110000000  0.4296030000000  0.5563720000000 1.0
C      1  0.5387760000000  0.5127740000000  0.4357830000000 1.0
C      1  0.5397600000000  0.5118100000000  0.5652190000000 1.0
C      1  0.4873710000000  0.5021620000000  0.4457020000000 1.0
C      1  0.4872740000000  0.5014400000000  0.5542720000000 1.0
C      1  0.4486550000000  0.5522920000000  0.5268880000000 1.0
C      1  0.4486620000000  0.5518550000000  0.4730940000000 1.0
C      1  0.5514260000000  0.4528690000000  0.4556560000000 1.0
C      1  0.5531370000000  0.4546100000000  0.5456230000000 1.0
C      1  0.4216310000000  0.4924250000000  0.4646270000000 1.0
C      1  0.4205490000000  0.4930010000000  0.5363390000000 1.0
C      1  0.4689650000000  0.4839640000000  0.4846930000000 1.0
C      1  0.4679260000000  0.4843080000000  0.5147770000000 1.0
END
