TITL C-2441164-471-769 0.201127324049482 125000 -24396.4258995166 0 0 199 (C1) n - 1
REM
REM in /home/bkarasulu/work/CARBON/AIRSS/Generating-Clusters/ReaxFF-fromJPCA2015/Units_Real/with-SteepDescent/Higher-Symm
REM
REM
REM
REM
REM
REM ./C.cell (1df0a924f5614ab8850e4351716899ee)
REM
REM compiler GCC version 9.2.1 20190827 (Red Hat 9.2.1-1)
REM options -cpp -mtune=generic -march=x86-64 -g -O0 -fpre-include=/usr/include/finclude/math-vector-fortran.h
REM seed 2049812424 -1985438522 -700023765 361728020 1275515082 -19963141 1599812783 855649469 -1747446445 753061519 1622391983 1111825702 216761680 -1103251990 1004145000 914383623 -960592413 1219779180 -619919626 -1145457916 -1087891645 1377984472 900770068 -1808417234 495005627 1662285288 -2124763508 1320621070 860342485 -1239215236 -1688168941 1343832420 -1297275659
REM
CELL 1.54180   50.00000   50.00000   50.00000   90.00000   90.00000   90.00000
LATT -1
SFAC C  
C      1  0.5352170000000  0.5980560000000  0.5211480000000 1.0
C      1  0.4133270000000  0.5657810000000  0.5294740000000 1.0
C      1  0.4135280000000  0.4407630000000  0.5307280000000 1.0
C      1  0.5295970000000  0.3991260000000  0.5300840000000 1.0
C      1  0.6052660000000  0.4975980000000  0.5319980000000 1.0
C      1  0.5381610000000  0.5997620000000  0.4695730000000 1.0
C      1  0.4179900000000  0.5627440000000  0.4745340000000 1.0
C      1  0.4142270000000  0.4396350000000  0.4751130000000 1.0
C      1  0.5341270000000  0.4006670000000  0.4743820000000 1.0
C      1  0.6018250000000  0.4958400000000  0.4748090000000 1.0
C      1  0.3985070000000  0.4625650000000  0.4684330000000 1.0
C      1  0.5061720000000  0.3948200000000  0.4717810000000 1.0
C      1  0.6048360000000  0.4671980000000  0.4694640000000 1.0
C      1  0.5636670000000  0.5886120000000  0.4770200000000 1.0
C      1  0.4350820000000  0.5861250000000  0.4726380000000 1.0
C      1  0.4006140000000  0.4654180000000  0.5275410000000 1.0
C      1  0.5015570000000  0.3942360000000  0.5281600000000 1.0
C      1  0.6067660000000  0.4690070000000  0.5299350000000 1.0
C      1  0.5631950000000  0.5888570000000  0.5201780000000 1.0
C      1  0.4296250000000  0.5896600000000  0.5273610000000 1.0
C      1  0.4632820000000  0.5350180000000  0.5403480000000 1.0
C      1  0.4578350000000  0.4665300000000  0.5453370000000 1.0
C      1  0.5126730000000  0.4513600000000  0.5484070000000 1.0
C      1  0.5555600000000  0.4929970000000  0.5413910000000 1.0
C      1  0.5125200000000  0.5582090000000  0.5436780000000 1.0
C      1  0.4566000000000  0.5337610000000  0.4562840000000 1.0
C      1  0.4398190000000  0.4799570000000  0.4604500000000 1.0
C      1  0.5183840000000  0.4493610000000  0.4524860000000 1.0
C      1  0.5536690000000  0.4945850000000  0.4592920000000 1.0
C      1  0.5182550000000  0.5520130000000  0.4578640000000 1.0
C      1  0.4736750000000  0.5017440000000  0.4277180000000 1.0
C      1  0.4890160000000  0.4750510000000  0.4301340000000 1.0
C      1  0.5180440000000  0.4844870000000  0.4297000000000 1.0
C      1  0.5217850000000  0.5144220000000  0.4308280000000 1.0
C      1  0.4940940000000  0.5237360000000  0.4280770000000 1.0
C      1  0.4720050000000  0.5027600000000  0.5684130000000 1.0
C      1  0.4906060000000  0.4796050000000  0.5729720000000 1.0
C      1  0.5196400000000  0.4856640000000  0.5733800000000 1.0
C      1  0.5250110000000  0.5160920000000  0.5693700000000 1.0
C      1  0.4955420000000  0.5237740000000  0.5704390000000 1.0
C      1  0.5854940000000  0.4567470000000  0.4869790000000 1.0
C      1  0.5490570000000  0.5661560000000  0.4878060000000 1.0
C      1  0.4594870000000  0.5785860000000  0.4881920000000 1.0
C      1  0.4187680000000  0.4787560000000  0.4817560000000 1.0
C      1  0.5003130000000  0.4198850000000  0.4852550000000 1.0
C      1  0.5838470000000  0.4698130000000  0.5111790000000 1.0
C      1  0.5587590000000  0.5605750000000  0.5127130000000 1.0
C      1  0.4502900000000  0.5730670000000  0.5137310000000 1.0
C      1  0.4247920000000  0.4742040000000  0.5100230000000 1.0
C      1  0.4960560000000  0.4217540000000  0.5138420000000 1.0
C      1  0.4836030000000  0.5202000000000  0.5097210000000 1.0
C      1  0.4719240000000  0.4946040000000  0.5105020000000 1.0
C      1  0.4927370000000  0.4771300000000  0.5168880000000 1.0
C      1  0.5295260000000  0.4827950000000  0.5139130000000 1.0
C      1  0.5093400000000  0.5217260000000  0.5177730000000 1.0
C      1  0.4795620000000  0.5340540000000  0.4890200000000 1.0
C      1  0.4787370000000  0.4811430000000  0.4818210000000 1.0
C      1  0.5025850000000  0.4697530000000  0.4911600000000 1.0
C      1  0.5228410000000  0.4904440000000  0.4877920000000 1.0
C      1  0.5094380000000  0.5154750000000  0.4747500000000 1.0
C      1  0.4668730000000  0.5366700000000  0.3997850000000 1.0
C      1  0.4617110000000  0.4560930000000  0.4068080000000 1.0
C      1  0.5145280000000  0.4447450000000  0.4038600000000 1.0
C      1  0.5600740000000  0.5037380000000  0.4136390000000 1.0
C      1  0.5144100000000  0.5548070000000  0.4074860000000 1.0
C      1  0.4648310000000  0.5359990000000  0.5984740000000 1.0
C      1  0.4654540000000  0.4564460000000  0.5942760000000 1.0
C      1  0.5134340000000  0.4455150000000  0.5928740000000 1.0
C      1  0.5594370000000  0.5094570000000  0.5949510000000 1.0
C      1  0.5155300000000  0.5561090000000  0.5894740000000 1.0
C      1  0.4698240000000  0.4252960000000  0.4439460000000 1.0
C      1  0.5726360000000  0.4414780000000  0.4456510000000 1.0
C      1  0.5773990000000  0.5463850000000  0.4407290000000 1.0
C      1  0.4889180000000  0.5779030000000  0.4458180000000 1.0
C      1  0.3997450000000  0.5065840000000  0.4429880000000 1.0
C      1  0.4625190000000  0.4136920000000  0.5550470000000 1.0
C      1  0.5721370000000  0.4375570000000  0.5494690000000 1.0
C      1  0.5846830000000  0.5528960000000  0.5519930000000 1.0
C      1  0.4884720000000  0.5889180000000  0.5580640000000 1.0
C      1  0.4055230000000  0.5072660000000  0.5494630000000 1.0
C      1  0.5552050000000  0.5268320000000  0.4910930000000 1.0
C      1  0.4833680000000  0.5615080000000  0.4872800000000 1.0
C      1  0.4344020000000  0.5165030000000  0.4957570000000 1.0
C      1  0.4677150000000  0.4438570000000  0.4781750000000 1.0
C      1  0.5442990000000  0.4474050000000  0.4875720000000 1.0
C      1  0.5516660000000  0.5339280000000  0.5210140000000 1.0
C      1  0.4939500000000  0.5685220000000  0.5103320000000 1.0
C      1  0.4412030000000  0.4991320000000  0.5192390000000 1.0
C      1  0.4720140000000  0.4418380000000  0.5069330000000 1.0
C      1  0.5380640000000  0.4561450000000  0.5133240000000 1.0
C      1  0.5314460000000  0.4678720000000  0.4048360000000 1.0
C      1  0.5336300000000  0.5096360000000  0.4029530000000 1.0
C      1  0.4963340000000  0.5315250000000  0.3985400000000 1.0
C      1  0.4547920000000  0.5107060000000  0.4058340000000 1.0
C      1  0.4843200000000  0.4709810000000  0.4009370000000 1.0
C      1  0.5333480000000  0.4657060000000  0.5927680000000 1.0
C      1  0.5304030000000  0.5123010000000  0.5999850000000 1.0
C      1  0.4941060000000  0.5321200000000  0.5998090000000 1.0
C      1  0.4533010000000  0.5099800000000  0.5916710000000 1.0
C      1  0.4856240000000  0.4753830000000  0.6014940000000 1.0
C      1  0.4473370000000  0.5947010000000  0.5500650000000 1.0
C      1  0.3968730000000  0.4815510000000  0.5523410000000 1.0
C      1  0.4859480000000  0.3956680000000  0.5525970000000 1.0
C      1  0.5945130000000  0.4542430000000  0.5523370000000 1.0
C      1  0.5714930000000  0.5782810000000  0.5478440000000 1.0
C      1  0.4516570000000  0.5947760000000  0.4500780000000 1.0
C      1  0.3976430000000  0.4786810000000  0.4426690000000 1.0
C      1  0.4888320000000  0.3938870000000  0.4467410000000 1.0
C      1  0.5943780000000  0.4566590000000  0.4440980000000 1.0
C      1  0.5743000000000  0.5757000000000  0.4501980000000 1.0
C      1  0.4669520000000  0.5626260000000  0.4136150000000 1.0
C      1  0.4293550000000  0.5017640000000  0.4159640000000 1.0
C      1  0.4912210000000  0.4318740000000  0.4114100000000 1.0
C      1  0.5573850000000  0.4623160000000  0.4162530000000 1.0
C      1  0.5429670000000  0.5538860000000  0.4132170000000 1.0
C      1  0.4637700000000  0.5614870000000  0.5849440000000 1.0
C      1  0.4280260000000  0.5019960000000  0.5810010000000 1.0
C      1  0.4921260000000  0.4298920000000  0.5867700000000 1.0
C      1  0.5583670000000  0.4586720000000  0.5804220000000 1.0
C      1  0.5520940000000  0.5474090000000  0.5780510000000 1.0
C      1  0.5821150000000  0.4743960000000  0.5698700000000 1.0
C      1  0.5481040000000  0.5731450000000  0.5657720000000 1.0
C      1  0.4433540000000  0.5695260000000  0.5658490000000 1.0
C      1  0.4194270000000  0.4758210000000  0.5705900000000 1.0
C      1  0.5054210000000  0.4103470000000  0.5702900000000 1.0
C      1  0.5812650000000  0.4789040000000  0.4274630000000 1.0
C      1  0.5497140000000  0.5760620000000  0.4301030000000 1.0
C      1  0.4470420000000  0.5708450000000  0.4335970000000 1.0
C      1  0.4198450000000  0.4736690000000  0.4243030000000 1.0
C      1  0.5052110000000  0.4130700000000  0.4293940000000 1.0
C      1  0.5758120000000  0.4263960000000  0.5285950000000 1.0
C      1  0.5944460000000  0.5489690000000  0.5288840000000 1.0
C      1  0.4739810000000  0.6039560000000  0.5400490000000 1.0
C      1  0.3934930000000  0.5170190000000  0.5316280000000 1.0
C      1  0.4533990000000  0.4088920000000  0.5307880000000 1.0
C      1  0.5771310000000  0.4239020000000  0.4610130000000 1.0
C      1  0.5899900000000  0.5533900000000  0.4633820000000 1.0
C      1  0.4797900000000  0.6013230000000  0.4618380000000 1.0
C      1  0.3965810000000  0.5123230000000  0.4658470000000 1.0
C      1  0.4621670000000  0.4016920000000  0.4582110000000 1.0
C      1  0.4507580000000  0.4369330000000  0.4245600000000 1.0
C      1  0.5525260000000  0.4350570000000  0.4301030000000 1.0
C      1  0.5640580000000  0.5317940000000  0.4199700000000 1.0
C      1  0.4945550000000  0.5740400000000  0.4170490000000 1.0
C      1  0.4186080000000  0.5230570000000  0.4322390000000 1.0
C      1  0.4534860000000  0.4372180000000  0.5763070000000 1.0
C      1  0.5510150000000  0.4339820000000  0.5672910000000 1.0
C      1  0.5745670000000  0.5278860000000  0.5754450000000 1.0
C      1  0.4915350000000  0.5730980000000  0.5811520000000 1.0
C      1  0.4160920000000  0.5256870000000  0.5654500000000 1.0
C      1  0.5696470000000  0.4332890000000  0.4849060000000 1.0
C      1  0.5815110000000  0.5370880000000  0.4846460000000 1.0
C      1  0.4940810000000  0.6079360000000  0.4880750000000 1.0
C      1  0.4080130000000  0.5186090000000  0.4883260000000 1.0
C      1  0.4543690000000  0.4168170000000  0.4804320000000 1.0
C      1  0.5690590000000  0.4131970000000  0.5074470000000 1.0
C      1  0.6033970000000  0.5361740000000  0.5054860000000 1.0
C      1  0.4880740000000  0.5964180000000  0.5143730000000 1.0
C      1  0.3932540000000  0.5312990000000  0.5074930000000 1.0
C      1  0.4402940000000  0.4102870000000  0.5058750000000 1.0
C      1  0.4844090000000  0.4592250000000  0.5544930000000 1.0
C      1  0.5300830000000  0.4758100000000  0.5509670000000 1.0
C      1  0.5439580000000  0.5195050000000  0.5450530000000 1.0
C      1  0.4890240000000  0.5441030000000  0.5510770000000 1.0
C      1  0.4538430000000  0.5078390000000  0.5453090000000 1.0
C      1  0.4871490000000  0.4504070000000  0.4497840000000 1.0
C      1  0.5344590000000  0.4745000000000  0.4504730000000 1.0
C      1  0.5335800000000  0.5253670000000  0.4572860000000 1.0
C      1  0.4867500000000  0.5457920000000  0.4481470000000 1.0
C      1  0.4619300000000  0.5049740000000  0.4520230000000 1.0
C      1  0.5824920000000  0.4975020000000  0.4518090000000 1.0
C      1  0.5281960000000  0.5819800000000  0.4477520000000 1.0
C      1  0.4305940000000  0.5492110000000  0.4478540000000 1.0
C      1  0.4318310000000  0.4538550000000  0.4415400000000 1.0
C      1  0.5301950000000  0.4205940000000  0.4444050000000 1.0
C      1  0.5874460000000  0.5002340000000  0.5572210000000 1.0
C      1  0.5256950000000  0.5840020000000  0.5467090000000 1.0
C      1  0.4232020000000  0.5522320000000  0.5540430000000 1.0
C      1  0.4326850000000  0.4521110000000  0.5580200000000 1.0
C      1  0.5309380000000  0.4157180000000  0.5560090000000 1.0
C      1  0.5224620000000  0.5596630000000  0.4847700000000 1.0
C      1  0.4538300000000  0.5310300000000  0.4840600000000 1.0
C      1  0.4569070000000  0.4675530000000  0.4777420000000 1.0
C      1  0.5158850000000  0.4448390000000  0.4802520000000 1.0
C      1  0.5539790000000  0.4982430000000  0.4898870000000 1.0
C      1  0.5159350000000  0.5506820000000  0.5158510000000 1.0
C      1  0.4499110000000  0.5448860000000  0.5172260000000 1.0
C      1  0.4520460000000  0.4563250000000  0.5190670000000 1.0
C      1  0.5187110000000  0.4390690000000  0.5242930000000 1.0
C      1  0.5662440000000  0.4898800000000  0.5143730000000 1.0
C      1  0.4180020000000  0.4303160000000  0.5028270000000 1.0
C      1  0.5231440000000  0.6059570000000  0.4944240000000 1.0
C      1  0.4079410000000  0.5564700000000  0.5013840000000 1.0
C      1  0.5426610000000  0.4015460000000  0.5027180000000 1.0
C      1  0.6060650000000  0.5069730000000  0.5031570000000 1.0
C      1  0.5076850000000  0.4996070000000  0.3908230000000 1.0
C      1  0.5022120000000  0.5022600000000  0.6103730000000 1.0
C      1  0.4859270000000  0.5015730000000  0.4652120000000 1.0
C      1  0.5108520000000  0.4948290000000  0.5319440000000 1.0
END
