TITL C-2441162-9305-156 0.0180788693496997 125000 -14306.2717332051 0 0 101 (C1) n - 1
REM
REM in /home/bkarasulu/work/CARBON/AIRSS/Generating-Clusters/ReaxFF-fromJPCA2015/Units_Real/with-SteepDescent/Higher-Symm
REM
REM
REM
REM
REM
REM ./C.cell (1df0a924f5614ab8850e4351716899ee)
REM
REM compiler GCC version 9.2.1 20190827 (Red Hat 9.2.1-1)
REM options -cpp -mtune=generic -march=x86-64 -g -O0 -fpre-include=/usr/include/finclude/math-vector-fortran.h
REM seed -581308187 1516812009 -1975720790 738872375 2080979924 1157085445 1717673130 1018639792 2018693410 422611619 -1364557372 1260197680 128335425 409325950 -678145390 181652824 1321699013 1381724269 1029516825 -316433549 935144031 -1868626155 1392031647 1034743348 -1676351909 851252931 1222802630 719245244 -2138522524 1047676896 683998485 -35318164 -676111308
REM
CELL 1.54180   50.00000   50.00000   50.00000   90.00000   90.00000   90.00000
LATT -1
SFAC C  
C      1  0.5133820000000  0.5158810000000  0.5916660000000 1.0
C      1  0.4836340000000  0.5137090000000  0.5905870000000 1.0
C      1  0.4876150000000  0.4836610000000  0.5907940000000 1.0
C      1  0.5162310000000  0.4867610000000  0.5897310000000 1.0
C      1  0.5131480000000  0.5164460000000  0.4084850000000 1.0
C      1  0.4837790000000  0.5124520000000  0.4075540000000 1.0
C      1  0.4868140000000  0.4831440000000  0.4086900000000 1.0
C      1  0.5162420000000  0.4871530000000  0.4077780000000 1.0
C      1  0.4756310000000  0.4846080000000  0.5147400000000 1.0
C      1  0.5200150000000  0.4705310000000  0.5130870000000 1.0
C      1  0.5243680000000  0.5180340000000  0.5136510000000 1.0
C      1  0.4742290000000  0.5316810000000  0.5169270000000 1.0
C      1  0.4735370000000  0.4814990000000  0.4831630000000 1.0
C      1  0.5200590000000  0.4702260000000  0.4856830000000 1.0
C      1  0.5269640000000  0.5193430000000  0.4852590000000 1.0
C      1  0.4803870000000  0.5260560000000  0.4873130000000 1.0
C      1  0.4341610000000  0.5158370000000  0.4842260000000 1.0
C      1  0.4936640000000  0.4316390000000  0.4897320000000 1.0
C      1  0.5634250000000  0.4838910000000  0.4855450000000 1.0
C      1  0.5072000000000  0.5675330000000  0.4897140000000 1.0
C      1  0.4293660000000  0.5063490000000  0.5084960000000 1.0
C      1  0.4837830000000  0.4377090000000  0.5128750000000 1.0
C      1  0.5679830000000  0.4928470000000  0.5089590000000 1.0
C      1  0.5158550000000  0.5618930000000  0.5134010000000 1.0
C      1  0.4599630000000  0.5074210000000  0.5260670000000 1.0
C      1  0.4934310000000  0.4606330000000  0.5254970000000 1.0
C      1  0.5369710000000  0.4926940000000  0.5235880000000 1.0
C      1  0.5064620000000  0.5386930000000  0.5260380000000 1.0
C      1  0.4579130000000  0.5089800000000  0.4719400000000 1.0
C      1  0.4947340000000  0.4598940000000  0.4739960000000 1.0
C      1  0.5382520000000  0.4916880000000  0.4741550000000 1.0
C      1  0.5073940000000  0.5388080000000  0.4748680000000 1.0
C      1  0.5359340000000  0.5789300000000  0.4798570000000 1.0
C      1  0.4220170000000  0.5395170000000  0.4766410000000 1.0
C      1  0.4646580000000  0.4204110000000  0.4795570000000 1.0
C      1  0.5765810000000  0.4610910000000  0.4771800000000 1.0
C      1  0.5385360000000  0.5764520000000  0.5202830000000 1.0
C      1  0.4220320000000  0.5329500000000  0.5204640000000 1.0
C      1  0.4614160000000  0.4230290000000  0.5199780000000 1.0
C      1  0.5776290000000  0.4655940000000  0.5208390000000 1.0
C      1  0.4300850000000  0.5386430000000  0.4493940000000 1.0
C      1  0.4632350000000  0.4288380000000  0.4527810000000 1.0
C      1  0.5694500000000  0.4620230000000  0.4498820000000 1.0
C      1  0.5372140000000  0.5703640000000  0.4530820000000 1.0
C      1  0.4317850000000  0.5364410000000  0.5458630000000 1.0
C      1  0.4627220000000  0.4295280000000  0.5478820000000 1.0
C      1  0.5688890000000  0.4628580000000  0.5470040000000 1.0
C      1  0.5380110000000  0.5695180000000  0.5480730000000 1.0
C      1  0.5369100000000  0.4767970000000  0.4244660000000 1.0
C      1  0.5239080000000  0.5372750000000  0.4252800000000 1.0
C      1  0.4636630000000  0.5230590000000  0.4244570000000 1.0
C      1  0.4762220000000  0.4627890000000  0.4258050000000 1.0
C      1  0.5355280000000  0.4771860000000  0.5726860000000 1.0
C      1  0.5239140000000  0.5370370000000  0.5748930000000 1.0
C      1  0.4631350000000  0.5250680000000  0.5741000000000 1.0
C      1  0.4769670000000  0.4632760000000  0.5735920000000 1.0
C      1  0.5461720000000  0.5249660000000  0.5685750000000 1.0
C      1  0.4756400000000  0.5465020000000  0.5659300000000 1.0
C      1  0.4547980000000  0.4752250000000  0.5676870000000 1.0
C      1  0.5239920000000  0.4542830000000  0.5669970000000 1.0
C      1  0.5453820000000  0.5247780000000  0.4329390000000 1.0
C      1  0.4756830000000  0.5451970000000  0.4306270000000 1.0
C      1  0.4547720000000  0.4752620000000  0.4334420000000 1.0
C      1  0.5250750000000  0.4539240000000  0.4299630000000 1.0
C      1  0.4446360000000  0.5123870000000  0.4456680000000 1.0
C      1  0.4888040000000  0.4445770000000  0.4473920000000 1.0
C      1  0.5547800000000  0.4874550000000  0.4459340000000 1.0
C      1  0.5119130000000  0.5544200000000  0.4481260000000 1.0
C      1  0.4444520000000  0.5114640000000  0.5520380000000 1.0
C      1  0.4878520000000  0.4444700000000  0.5518040000000 1.0
C      1  0.5528530000000  0.4885930000000  0.5505580000000 1.0
C      1  0.5128330000000  0.5544850000000  0.5522450000000 1.0
C      1  0.4825720000000  0.5673890000000  0.5497770000000 1.0
C      1  0.4331220000000  0.4815590000000  0.5534200000000 1.0
C      1  0.5186220000000  0.4338990000000  0.5497290000000 1.0
C      1  0.5665460000000  0.5172720000000  0.5528060000000 1.0
C      1  0.4821120000000  0.5663350000000  0.4461820000000 1.0
C      1  0.4342650000000  0.4808910000000  0.4496330000000 1.0
C      1  0.5183880000000  0.4327830000000  0.4453720000000 1.0
C      1  0.5654850000000  0.5174710000000  0.4493840000000 1.0
C      1  0.4379540000000  0.5618490000000  0.4651630000000 1.0
C      1  0.4420510000000  0.4378780000000  0.4713070000000 1.0
C      1  0.5622990000000  0.4381690000000  0.4651260000000 1.0
C      1  0.5585160000000  0.5612880000000  0.4715370000000 1.0
C      1  0.4469300000000  0.5509000000000  0.5241680000000 1.0
C      1  0.4388070000000  0.4374030000000  0.5338450000000 1.0
C      1  0.5615370000000  0.4416820000000  0.5275380000000 1.0
C      1  0.5615210000000  0.5618130000000  0.5333090000000 1.0
C      1  0.5718300000000  0.5348990000000  0.5283160000000 1.0
C      1  0.4678440000000  0.5732760000000  0.5242020000000 1.0
C      1  0.4281280000000  0.4641650000000  0.5286550000000 1.0
C      1  0.5343470000000  0.4300160000000  0.5235210000000 1.0
C      1  0.5692550000000  0.5336840000000  0.4755350000000 1.0
C      1  0.4649980000000  0.5720340000000  0.4709560000000 1.0
C      1  0.4308120000000  0.4653030000000  0.4756180000000 1.0
C      1  0.5354630000000  0.4274890000000  0.4704590000000 1.0
C      1  0.5235980000000  0.4245840000000  0.4966570000000 1.0
C      1  0.5746920000000  0.5229850000000  0.5021830000000 1.0
C      1  0.4774900000000  0.5765830000000  0.4968740000000 1.0
C      1  0.4249280000000  0.4756310000000  0.5023980000000 1.0
C      1  0.4931110000000  0.4998890000000  0.4957550000000 1.0
END
