TITL C-2441167-4473-550 0.121302133239392 125000 -19023.0866518652 0 0 150 (C1) n - 1
REM
REM in /home/bkarasulu/work/CARBON/AIRSS/Generating-Clusters/ReaxFF-fromJPCA2015/Units_Real/with-SteepDescent/Higher-Symm
REM
REM
REM
REM
REM
REM ./C.cell (1df0a924f5614ab8850e4351716899ee)
REM
REM compiler GCC version 9.2.1 20190827 (Red Hat 9.2.1-1)
REM options -cpp -mtune=generic -march=x86-64 -g -O0 -fpre-include=/usr/include/finclude/math-vector-fortran.h
REM seed 1623940729 -165576370 1569540230 -1004608934 1135849175 1575174404 -1663677430 -1983742289 -940251782 2221625 -1705687495 -1534913111 -68241417 1618005528 -1398361936 -291396096 -1229352890 2044862806 -151287336 -2091405378 425232166 646516978 507926927 1117831254 1151773469 -1757983449 -1067385997 1372465544 -1320812815 1319956990 -1828959939 1820969242 199603033
REM
CELL 1.54180   50.00000   50.00000   50.00000   90.00000   90.00000   90.00000
LATT -1
SFAC C  
C      1  0.5143280000000  0.5989350000000  0.5206430000000 1.0
C      1  0.5151330000000  0.4033750000000  0.4743320000000 1.0
C      1  0.4856740000000  0.5979380000000  0.5254590000000 1.0
C      1  0.4862930000000  0.4006370000000  0.4787250000000 1.0
C      1  0.5143530000000  0.5985780000000  0.4785890000000 1.0
C      1  0.5149070000000  0.4007490000000  0.5234300000000 1.0
C      1  0.4856750000000  0.5979950000000  0.4741610000000 1.0
C      1  0.4891600000000  0.3943380000000  0.5121070000000 1.0
C      1  0.4711480000000  0.5290090000000  0.5339100000000 1.0
C      1  0.4692940000000  0.4696260000000  0.4666200000000 1.0
C      1  0.5328510000000  0.5281630000000  0.5346610000000 1.0
C      1  0.5327270000000  0.4716020000000  0.4614730000000 1.0
C      1  0.4711970000000  0.5303640000000  0.4643650000000 1.0
C      1  0.4614320000000  0.4763440000000  0.5455180000000 1.0
C      1  0.5324970000000  0.5296640000000  0.4645000000000 1.0
C      1  0.5316800000000  0.4712430000000  0.5372190000000 1.0
C      1  0.4630040000000  0.5463830000000  0.4240460000000 1.0
C      1  0.4664120000000  0.4511310000000  0.5761090000000 1.0
C      1  0.5334120000000  0.5461790000000  0.4239690000000 1.0
C      1  0.5331370000000  0.4504530000000  0.5748590000000 1.0
C      1  0.4621230000000  0.5434060000000  0.5767090000000 1.0
C      1  0.4635200000000  0.4549480000000  0.4241950000000 1.0
C      1  0.5337650000000  0.5489890000000  0.5748170000000 1.0
C      1  0.5333070000000  0.4518260000000  0.4252310000000 1.0
C      1  0.5567080000000  0.4406030000000  0.5590650000000 1.0
C      1  0.5560830000000  0.5558610000000  0.4438610000000 1.0
C      1  0.4429050000000  0.4404970000000  0.5597840000000 1.0
C      1  0.4411570000000  0.5586160000000  0.4418180000000 1.0
C      1  0.5568910000000  0.4413720000000  0.4416340000000 1.0
C      1  0.5572370000000  0.5593180000000  0.5585910000000 1.0
C      1  0.4416750000000  0.4412760000000  0.4418980000000 1.0
C      1  0.4405470000000  0.5587300000000  0.5575240000000 1.0
C      1  0.5723780000000  0.4512440000000  0.4645430000000 1.0
C      1  0.5731970000000  0.5495830000000  0.5358160000000 1.0
C      1  0.4272270000000  0.4507600000000  0.4649570000000 1.0
C      1  0.4263780000000  0.5498720000000  0.5337970000000 1.0
C      1  0.5721310000000  0.4507590000000  0.5360620000000 1.0
C      1  0.5734870000000  0.5479920000000  0.4665680000000 1.0
C      1  0.4273820000000  0.4517730000000  0.5366450000000 1.0
C      1  0.4274560000000  0.5484290000000  0.4654060000000 1.0
C      1  0.4742500000000  0.5872950000000  0.4496160000000 1.0
C      1  0.4739870000000  0.4142680000000  0.5443950000000 1.0
C      1  0.5246030000000  0.5880080000000  0.4518600000000 1.0
C      1  0.5250660000000  0.4089990000000  0.5495720000000 1.0
C      1  0.4743320000000  0.5871090000000  0.5502020000000 1.0
C      1  0.4746110000000  0.4133140000000  0.4531690000000 1.0
C      1  0.5242720000000  0.5894720000000  0.5474890000000 1.0
C      1  0.5253920000000  0.4105550000000  0.4489650000000 1.0
C      1  0.5127150000000  0.4342350000000  0.4368320000000 1.0
C      1  0.5124970000000  0.5667010000000  0.5626170000000 1.0
C      1  0.4841630000000  0.4384790000000  0.4422510000000 1.0
C      1  0.4844030000000  0.5612950000000  0.5599920000000 1.0
C      1  0.5136130000000  0.4314420000000  0.5640140000000 1.0
C      1  0.5135640000000  0.5654350000000  0.4364230000000 1.0
C      1  0.4856260000000  0.4340890000000  0.5622730000000 1.0
C      1  0.4846030000000  0.5609170000000  0.4404040000000 1.0
C      1  0.4851970000000  0.4733050000000  0.5817290000000 1.0
C      1  0.4831710000000  0.5252830000000  0.4177360000000 1.0
C      1  0.5157010000000  0.4732070000000  0.5807790000000 1.0
C      1  0.5125670000000  0.5267130000000  0.4172000000000 1.0
C      1  0.4851800000000  0.4741270000000  0.4184570000000 1.0
C      1  0.4859330000000  0.5261860000000  0.5830750000000 1.0
C      1  0.5156720000000  0.4743440000000  0.4191020000000 1.0
C      1  0.5157890000000  0.5266540000000  0.5818760000000 1.0
C      1  0.5357680000000  0.4870040000000  0.5141640000000 1.0
C      1  0.5437090000000  0.5129100000000  0.4853490000000 1.0
C      1  0.4657720000000  0.4821650000000  0.5198000000000 1.0
C      1  0.4653590000000  0.5104120000000  0.4863860000000 1.0
C      1  0.5420800000000  0.4841590000000  0.4846890000000 1.0
C      1  0.5446810000000  0.5139690000000  0.5137550000000 1.0
C      1  0.4514910000000  0.4861260000000  0.4816650000000 1.0
C      1  0.4590140000000  0.5112850000000  0.5150130000000 1.0
C      1  0.4374320000000  0.4110700000000  0.4856270000000 1.0
C      1  0.4380990000000  0.5894390000000  0.5143860000000 1.0
C      1  0.5614690000000  0.4110210000000  0.4849700000000 1.0
C      1  0.5617750000000  0.5900980000000  0.5152220000000 1.0
C      1  0.4359830000000  0.4113690000000  0.5149570000000 1.0
C      1  0.4378440000000  0.5894800000000  0.4848620000000 1.0
C      1  0.5612240000000  0.4118630000000  0.5150130000000 1.0
C      1  0.5616140000000  0.5897390000000  0.4850760000000 1.0
C      1  0.4457320000000  0.5134440000000  0.4288940000000 1.0
C      1  0.4481300000000  0.4875880000000  0.5692270000000 1.0
C      1  0.5555080000000  0.5160080000000  0.4303210000000 1.0
C      1  0.5519340000000  0.4862120000000  0.5665280000000 1.0
C      1  0.4451530000000  0.5178400000000  0.5701260000000 1.0
C      1  0.4459790000000  0.4854060000000  0.4290790000000 1.0
C      1  0.5530590000000  0.5148360000000  0.5676150000000 1.0
C      1  0.5524980000000  0.4877710000000  0.4312040000000 1.0
C      1  0.4840430000000  0.5144650000000  0.4443210000000 1.0
C      1  0.4861330000000  0.4849070000000  0.5543440000000 1.0
C      1  0.5163320000000  0.5148100000000  0.4442450000000 1.0
C      1  0.5156020000000  0.4852210000000  0.5548580000000 1.0
C      1  0.4862050000000  0.5144390000000  0.5549530000000 1.0
C      1  0.4841370000000  0.4858160000000  0.4462450000000 1.0
C      1  0.5154610000000  0.5135750000000  0.5546680000000 1.0
C      1  0.5152200000000  0.4862680000000  0.4449300000000 1.0
C      1  0.4396450000000  0.5604490000000  0.5125700000000 1.0
C      1  0.4431410000000  0.4399540000000  0.4877390000000 1.0
C      1  0.5635870000000  0.5615940000000  0.5135790000000 1.0
C      1  0.5641030000000  0.4393100000000  0.4872600000000 1.0
C      1  0.4393340000000  0.5604680000000  0.4867920000000 1.0
C      1  0.4350030000000  0.4393400000000  0.5135370000000 1.0
C      1  0.5654920000000  0.5616290000000  0.4880860000000 1.0
C      1  0.5621480000000  0.4403260000000  0.5134090000000 1.0
C      1  0.5519070000000  0.4166100000000  0.5438610000000 1.0
C      1  0.5516420000000  0.5818680000000  0.4571740000000 1.0
C      1  0.4457570000000  0.4166250000000  0.5442520000000 1.0
C      1  0.4466930000000  0.5833290000000  0.4558190000000 1.0
C      1  0.5522020000000  0.4172180000000  0.4564970000000 1.0
C      1  0.5517920000000  0.5836290000000  0.5438260000000 1.0
C      1  0.4465590000000  0.4158460000000  0.4565960000000 1.0
C      1  0.4464670000000  0.5831180000000  0.5437560000000 1.0
C      1  0.5232120000000  0.4282170000000  0.4866940000000 1.0
C      1  0.5236990000000  0.5720780000000  0.5122880000000 1.0
C      1  0.4756950000000  0.4280920000000  0.4902850000000 1.0
C      1  0.4763930000000  0.5725790000000  0.5132430000000 1.0
C      1  0.5202190000000  0.4283600000000  0.5137260000000 1.0
C      1  0.5232260000000  0.5722880000000  0.4879810000000 1.0
C      1  0.4799500000000  0.4207310000000  0.5163430000000 1.0
C      1  0.4761680000000  0.5726400000000  0.4863890000000 1.0
C      1  0.5107950000000  0.4540010000000  0.5247130000000 1.0
C      1  0.5146700000000  0.5478200000000  0.4772040000000 1.0
C      1  0.4869960000000  0.4643610000000  0.5123190000000 1.0
C      1  0.4875790000000  0.5484610000000  0.4786910000000 1.0
C      1  0.5167170000000  0.4536210000000  0.4761070000000 1.0
C      1  0.5152360000000  0.5473000000000  0.5224480000000 1.0
C      1  0.4880520000000  0.4541050000000  0.4842350000000 1.0
C      1  0.4879470000000  0.5476900000000  0.5206940000000 1.0
C      1  0.5789410000000  0.4857630000000  0.4450580000000 1.0
C      1  0.5793710000000  0.5143690000000  0.5547590000000 1.0
C      1  0.4197900000000  0.4853140000000  0.4439850000000 1.0
C      1  0.4197480000000  0.5158920000000  0.5547950000000 1.0
C      1  0.5790000000000  0.4859180000000  0.5544440000000 1.0
C      1  0.5802820000000  0.5140350000000  0.4459190000000 1.0
C      1  0.4202470000000  0.4876570000000  0.5539060000000 1.0
C      1  0.4209800000000  0.5135810000000  0.4455470000000 1.0
C      1  0.5835560000000  0.4754450000000  0.4722700000000 1.0
C      1  0.5844640000000  0.5254570000000  0.5277060000000 1.0
C      1  0.4141110000000  0.4748380000000  0.4704800000000 1.0
C      1  0.4157220000000  0.5247910000000  0.5270990000000 1.0
C      1  0.5831640000000  0.4749070000000  0.5273810000000 1.0
C      1  0.5852570000000  0.5244070000000  0.4734160000000 1.0
C      1  0.4172250000000  0.4763570000000  0.5279330000000 1.0
C      1  0.4170010000000  0.5241460000000  0.4727420000000 1.0
C      1  0.4206180000000  0.5143170000000  0.5001310000000 1.0
C      1  0.4242830000000  0.4855910000000  0.4966380000000 1.0
C      1  0.5857690000000  0.5139330000000  0.5007430000000 1.0
C      1  0.5837420000000  0.4856840000000  0.5001010000000 1.0
C      1  0.5052100000000  0.5018660000000  0.5134250000000 1.0
C      1  0.4976830000000  0.5013640000000  0.4872720000000 1.0
END
