TITL C-2441156-4686-470 0.108525372545455 125000 -19891.8563684793 0 0 151 (C1) n - 1
REM
REM in /home/bkarasulu/work/CARBON/AIRSS/Generating-Clusters/ReaxFF-fromJPCA2015/Units_Real/with-SteepDescent/Higher-Symm
REM
REM
REM
REM
REM
REM ./C.cell (1df0a924f5614ab8850e4351716899ee)
REM
REM compiler GCC version 9.2.1 20190827 (Red Hat 9.2.1-1)
REM options -cpp -mtune=generic -march=x86-64 -g -O0 -fpre-include=/usr/include/finclude/math-vector-fortran.h
REM seed -1914450480 1716745732 2131689166 48957998 726390981 1099810929 -522183235 1500997294 1687228953 -560581391 379321241 1109435964 -412859566 493309197 399067931 -432029021 -798300649 710601087 -1227996329 -436244905 -1441109462 -1238807987 402864326 1201083446 918625826 255452869 -780982012 -342618066 594079293 1211700595 1232816480 1466420554 912098410
REM
CELL 1.54180   50.00000   50.00000   50.00000   90.00000   90.00000   90.00000
LATT -1
SFAC C  
C      1  0.5895770000000  0.4849500000000  0.5444800000000 1.0
C      1  0.4116920000000  0.4851490000000  0.4525340000000 1.0
C      1  0.4466250000000  0.5917200000000  0.5160490000000 1.0
C      1  0.5525200000000  0.5897190000000  0.4814560000000 1.0
C      1  0.5284090000000  0.4637450000000  0.5386230000000 1.0
C      1  0.4790840000000  0.4659910000000  0.4589730000000 1.0
C      1  0.5487230000000  0.5783010000000  0.5304310000000 1.0
C      1  0.4576830000000  0.5772970000000  0.4651700000000 1.0
C      1  0.5439090000000  0.5781900000000  0.4556040000000 1.0
C      1  0.4540920000000  0.5808450000000  0.5443630000000 1.0
C      1  0.5139730000000  0.4417250000000  0.4731010000000 1.0
C      1  0.4814200000000  0.4512140000000  0.5375100000000 1.0
C      1  0.4735720000000  0.5784770000000  0.5671040000000 1.0
C      1  0.5206480000000  0.5757960000000  0.4301330000000 1.0
C      1  0.4155730000000  0.5501590000000  0.5108130000000 1.0
C      1  0.5861600000000  0.5511500000000  0.4886080000000 1.0
C      1  0.5947910000000  0.5039530000000  0.4962040000000 1.0
C      1  0.4056910000000  0.5012130000000  0.5025220000000 1.0
C      1  0.5456020000000  0.5434460000000  0.5660040000000 1.0
C      1  0.4511200000000  0.5431670000000  0.4346030000000 1.0
C      1  0.5691360000000  0.5722050000000  0.4952860000000 1.0
C      1  0.4314240000000  0.5722460000000  0.5052970000000 1.0
C      1  0.5213400000000  0.4629600000000  0.4898280000000 1.0
C      1  0.4755450000000  0.4674240000000  0.5136320000000 1.0
C      1  0.4947150000000  0.4047280000000  0.5199150000000 1.0
C      1  0.5071200000000  0.4126130000000  0.4804360000000 1.0
C      1  0.4275840000000  0.4744230000000  0.5727840000000 1.0
C      1  0.5746970000000  0.4738020000000  0.4262000000000 1.0
C      1  0.4709690000000  0.4758040000000  0.4039660000000 1.0
C      1  0.5298890000000  0.4750440000000  0.5960140000000 1.0
C      1  0.5152570000000  0.4735460000000  0.5157900000000 1.0
C      1  0.4785030000000  0.4637010000000  0.4866960000000 1.0
C      1  0.4201100000000  0.5033700000000  0.5272900000000 1.0
C      1  0.5660850000000  0.5069450000000  0.4843540000000 1.0
C      1  0.4428970000000  0.4908280000000  0.5396250000000 1.0
C      1  0.5488540000000  0.4859250000000  0.4542770000000 1.0
C      1  0.5400810000000  0.4382110000000  0.4176130000000 1.0
C      1  0.4596250000000  0.4397480000000  0.5776550000000 1.0
C      1  0.5282550000000  0.5552450000000  0.5277070000000 1.0
C      1  0.4728480000000  0.5513390000000  0.4732660000000 1.0
C      1  0.4228240000000  0.5358820000000  0.4667820000000 1.0
C      1  0.5773700000000  0.5356320000000  0.5325530000000 1.0
C      1  0.5580520000000  0.4991350000000  0.5655480000000 1.0
C      1  0.4445310000000  0.4985900000000  0.4334500000000 1.0
C      1  0.4618400000000  0.4321430000000  0.5377770000000 1.0
C      1  0.5386190000000  0.4356790000000  0.4590220000000 1.0
C      1  0.4657570000000  0.4164380000000  0.5629650000000 1.0
C      1  0.5351230000000  0.4151280000000  0.4375080000000 1.0
C      1  0.5270160000000  0.5447040000000  0.5009280000000 1.0
C      1  0.4717710000000  0.5460870000000  0.5013490000000 1.0
C      1  0.5802220000000  0.5024980000000  0.4319410000000 1.0
C      1  0.4193960000000  0.5031400000000  0.5729590000000 1.0
C      1  0.4803170000000  0.5392050000000  0.5411070000000 1.0
C      1  0.5210350000000  0.5342700000000  0.4629910000000 1.0
C      1  0.5709830000000  0.4629530000000  0.5152540000000 1.0
C      1  0.4294720000000  0.4631830000000  0.4832300000000 1.0
C      1  0.5864430000000  0.5142450000000  0.4577740000000 1.0
C      1  0.4087790000000  0.5177490000000  0.5492450000000 1.0
C      1  0.4604340000000  0.5522260000000  0.5747040000000 1.0
C      1  0.5407650000000  0.5525290000000  0.4229670000000 1.0
C      1  0.4599370000000  0.5957010000000  0.4882110000000 1.0
C      1  0.5405280000000  0.5974660000000  0.5088580000000 1.0
C      1  0.5371150000000  0.4887120000000  0.5470490000000 1.0
C      1  0.4667390000000  0.4903160000000  0.4500460000000 1.0
C      1  0.4613330000000  0.4253560000000  0.4517750000000 1.0
C      1  0.5358300000000  0.4340050000000  0.5452860000000 1.0
C      1  0.4197720000000  0.4586570000000  0.4537840000000 1.0
C      1  0.5808370000000  0.4586920000000  0.5453870000000 1.0
C      1  0.5322010000000  0.5052670000000  0.6019050000000 1.0
C      1  0.4687200000000  0.5065430000000  0.3983840000000 1.0
C      1  0.4456220000000  0.4887680000000  0.4870300000000 1.0
C      1  0.5564670000000  0.4878700000000  0.5036970000000 1.0
C      1  0.5440620000000  0.5306610000000  0.4795040000000 1.0
C      1  0.4659810000000  0.5265110000000  0.5197670000000 1.0
C      1  0.4640460000000  0.5072710000000  0.4727410000000 1.0
C      1  0.5323060000000  0.4971810000000  0.5167070000000 1.0
C      1  0.4367400000000  0.4301310000000  0.4916050000000 1.0
C      1  0.5626030000000  0.4343600000000  0.5080920000000 1.0
C      1  0.4113750000000  0.4559910000000  0.5250970000000 1.0
C      1  0.5891900000000  0.4578400000000  0.4770250000000 1.0
C      1  0.5931990000000  0.5302880000000  0.5090500000000 1.0
C      1  0.4101950000000  0.5284710000000  0.4908380000000 1.0
C      1  0.4942400000000  0.5199060000000  0.3940910000000 1.0
C      1  0.5070020000000  0.5185580000000  0.6078860000000 1.0
C      1  0.4225000000000  0.5102990000000  0.4511760000000 1.0
C      1  0.5805800000000  0.5104090000000  0.5487380000000 1.0
C      1  0.4528990000000  0.4653740000000  0.5847000000000 1.0
C      1  0.5472830000000  0.4655400000000  0.4164340000000 1.0
C      1  0.5050250000000  0.5280200000000  0.5795710000000 1.0
C      1  0.4950090000000  0.5290480000000  0.4222690000000 1.0
C      1  0.5098210000000  0.4067210000000  0.4493780000000 1.0
C      1  0.4908580000000  0.4061620000000  0.5492890000000 1.0
C      1  0.4078010000000  0.4724210000000  0.5013070000000 1.0
C      1  0.5954230000000  0.4744900000000  0.5000410000000 1.0
C      1  0.5383930000000  0.5248780000000  0.4141690000000 1.0
C      1  0.4623910000000  0.5249820000000  0.5866090000000 1.0
C      1  0.5199930000000  0.4843480000000  0.4123650000000 1.0
C      1  0.4802920000000  0.4833460000000  0.5896800000000 1.0
C      1  0.5205220000000  0.4069250000000  0.5074230000000 1.0
C      1  0.4814290000000  0.4082450000000  0.4942780000000 1.0
C      1  0.5634730000000  0.5578800000000  0.5453500000000 1.0
C      1  0.4363880000000  0.5599020000000  0.4543590000000 1.0
C      1  0.5067270000000  0.5042200000000  0.4333600000000 1.0
C      1  0.4921770000000  0.5026800000000  0.5678350000000 1.0
C      1  0.5798340000000  0.4298490000000  0.4848420000000 1.0
C      1  0.4193960000000  0.4299240000000  0.5150700000000 1.0
C      1  0.5079640000000  0.5563030000000  0.5757850000000 1.0
C      1  0.4969660000000  0.5586420000000  0.4233750000000 1.0
C      1  0.4927780000000  0.4935500000000  0.5414480000000 1.0
C      1  0.5060680000000  0.4958980000000  0.4599030000000 1.0
C      1  0.4460940000000  0.5112670000000  0.5669650000000 1.0
C      1  0.5518500000000  0.5075220000000  0.4343580000000 1.0
C      1  0.4453910000000  0.4214220000000  0.5179960000000 1.0
C      1  0.5584610000000  0.4195180000000  0.4701750000000 1.0
C      1  0.4792980000000  0.5092850000000  0.6061070000000 1.0
C      1  0.5216760000000  0.5094840000000  0.3950880000000 1.0
C      1  0.4613940000000  0.4220940000000  0.4798310000000 1.0
C      1  0.5400660000000  0.4230790000000  0.5191600000000 1.0
C      1  0.5041900000000  0.4646670000000  0.5860600000000 1.0
C      1  0.4965740000000  0.4646170000000  0.4130830000000 1.0
C      1  0.5004700000000  0.5174540000000  0.4775160000000 1.0
C      1  0.5042230000000  0.5206870000000  0.5350530000000 1.0
C      1  0.5816280000000  0.5423350000000  0.4602180000000 1.0
C      1  0.4188030000000  0.5433020000000  0.5397110000000 1.0
C      1  0.4962290000000  0.4499950000000  0.4385920000000 1.0
C      1  0.4980660000000  0.4485560000000  0.5622330000000 1.0
C      1  0.5017470000000  0.5593740000000  0.4664650000000 1.0
C      1  0.4979390000000  0.5626180000000  0.5355470000000 1.0
C      1  0.4874900000000  0.4211550000000  0.4388460000000 1.0
C      1  0.5111890000000  0.4226500000000  0.5604800000000 1.0
C      1  0.4395800000000  0.5577300000000  0.5533480000000 1.0
C      1  0.5591120000000  0.5575920000000  0.4452420000000 1.0
C      1  0.4936400000000  0.5765270000000  0.4451530000000 1.0
C      1  0.5021490000000  0.5793130000000  0.5611080000000 1.0
C      1  0.4553080000000  0.4602020000000  0.4205290000000 1.0
C      1  0.5463130000000  0.4597690000000  0.5798860000000 1.0
C      1  0.4416920000000  0.4441810000000  0.4384960000000 1.0
C      1  0.5607770000000  0.4451610000000  0.5624690000000 1.0
C      1  0.4296120000000  0.4655320000000  0.5455990000000 1.0
C      1  0.5724570000000  0.4679510000000  0.4550990000000 1.0
C      1  0.5138940000000  0.5974960000000  0.4966990000000 1.0
C      1  0.4856120000000  0.5991470000000  0.5021230000000 1.0
C      1  0.4494850000000  0.5209890000000  0.4149630000000 1.0
C      1  0.5499480000000  0.5198800000000  0.5845200000000 1.0
C      1  0.4645760000000  0.5318590000000  0.4573450000000 1.0
C      1  0.5297490000000  0.5328630000000  0.5449450000000 1.0
C      1  0.4873810000000  0.5690050000000  0.5098590000000 1.0
C      1  0.5108180000000  0.5682720000000  0.4912300000000 1.0
C      1  0.4678260000000  0.4950680000000  0.5242290000000 1.0
C      1  0.5281910000000  0.4836810000000  0.4715270000000 1.0
C      1  0.5108480000000  0.5195440000000  0.5047890000000 1.0
END
