TITL C-2441155-8282-75 0.0399022572136609 125000 -16354.7953754036 0 0 115 (C1) n - 1
REM
REM in /home/bkarasulu/work/CARBON/AIRSS/Generating-Clusters/ReaxFF-fromJPCA2015/Units_Real/with-SteepDescent/Higher-Symm
REM
REM
REM
REM
REM
REM ./C.cell (1df0a924f5614ab8850e4351716899ee)
REM
REM compiler GCC version 9.2.1 20190827 (Red Hat 9.2.1-1)
REM options -cpp -mtune=generic -march=x86-64 -g -O0 -fpre-include=/usr/include/finclude/math-vector-fortran.h
REM seed 495775633 -2043682896 -1584298941 456743447 -967631958 1216807212 1725702979 847312187 -180405778 751528529 -523728100 1137636076 -430116107 483656785 -490248282 -1687553320 909275219 1131462767 -1999834118 -980318576 1950845663 154301823 -286926448 -1985623976 2003472485 -1062183780 1623738493 1616363146 2012943310 41315145 -421810911 -803812472 -1754280526
REM
CELL 1.54180   50.00000   50.00000   50.00000   90.00000   90.00000   90.00000
LATT -1
SFAC C  
C      1  0.4788670000000  0.4412500000000  0.4627790000000 1.0
C      1  0.4736680000000  0.4533840000000  0.5429700000000 1.0
C      1  0.4810580000000  0.5252110000000  0.5629710000000 1.0
C      1  0.4788960000000  0.5643800000000  0.4950490000000 1.0
C      1  0.4743360000000  0.5161800000000  0.4384720000000 1.0
C      1  0.4806520000000  0.5598170000000  0.4638720000000 1.0
C      1  0.4732350000000  0.5458890000000  0.5432850000000 1.0
C      1  0.4791390000000  0.4767800000000  0.5614020000000 1.0
C      1  0.4789200000000  0.4326820000000  0.4961890000000 1.0
C      1  0.4737440000000  0.4839240000000  0.4380860000000 1.0
C      1  0.4866150000000  0.5203190000000  0.4636130000000 1.0
C      1  0.5005850000000  0.4588500000000  0.4602510000000 1.0
C      1  0.4874330000000  0.4685470000000  0.5212000000000 1.0
C      1  0.5000430000000  0.5142290000000  0.5437670000000 1.0
C      1  0.4985390000000  0.5478140000000  0.5070060000000 1.0
C      1  0.4871190000000  0.4800900000000  0.4625310000000 1.0
C      1  0.5010700000000  0.5412010000000  0.4609210000000 1.0
C      1  0.4858790000000  0.5297190000000  0.5221850000000 1.0
C      1  0.4998930000000  0.4858660000000  0.5425640000000 1.0
C      1  0.4990650000000  0.4493410000000  0.5074920000000 1.0
C      1  0.5368370000000  0.4765480000000  0.4269200000000 1.0
C      1  0.5356970000000  0.4221380000000  0.5028940000000 1.0
C      1  0.5364820000000  0.4741390000000  0.5735760000000 1.0
C      1  0.5377020000000  0.5646850000000  0.5358320000000 1.0
C      1  0.5362930000000  0.5670960000000  0.4561680000000 1.0
C      1  0.5366690000000  0.5228680000000  0.4263700000000 1.0
C      1  0.5379530000000  0.5806150000000  0.5085050000000 1.0
C      1  0.5361410000000  0.5276900000000  0.5734200000000 1.0
C      1  0.5385390000000  0.4367110000000  0.5421960000000 1.0
C      1  0.5363110000000  0.4349200000000  0.4544190000000 1.0
C      1  0.4384170000000  0.5146020000000  0.5672640000000 1.0
C      1  0.4482610000000  0.5641150000000  0.5061350000000 1.0
C      1  0.4439510000000  0.5265390000000  0.4424710000000 1.0
C      1  0.4484020000000  0.4489740000000  0.4554270000000 1.0
C      1  0.4450060000000  0.4444890000000  0.5317000000000 1.0
C      1  0.4418790000000  0.4903730000000  0.5552100000000 1.0
C      1  0.4485780000000  0.4334870000000  0.5062010000000 1.0
C      1  0.4440930000000  0.4729840000000  0.4416800000000 1.0
C      1  0.4424710000000  0.5511770000000  0.4541460000000 1.0
C      1  0.4444330000000  0.5550210000000  0.5323610000000 1.0
C      1  0.5325480000000  0.5136760000000  0.4536280000000 1.0
C      1  0.5277210000000  0.4600060000000  0.4692270000000 1.0
C      1  0.5360130000000  0.4612270000000  0.5270470000000 1.0
C      1  0.5300420000000  0.5181600000000  0.5456830000000 1.0
C      1  0.5226080000000  0.5371160000000  0.4990750000000 1.0
C      1  0.5327200000000  0.4859060000000  0.4543600000000 1.0
C      1  0.5280070000000  0.5391680000000  0.4699220000000 1.0
C      1  0.5363590000000  0.5368740000000  0.5239240000000 1.0
C      1  0.5293260000000  0.4822140000000  0.5454500000000 1.0
C      1  0.5255310000000  0.4503420000000  0.5032030000000 1.0
C      1  0.4399100000000  0.4626260000000  0.5721340000000 1.0
C      1  0.4380420000000  0.5643240000000  0.5591650000000 1.0
C      1  0.4394230000000  0.5789930000000  0.4598710000000 1.0
C      1  0.4372950000000  0.4851410000000  0.4158040000000 1.0
C      1  0.4391120000000  0.4129240000000  0.4877880000000 1.0
C      1  0.4373070000000  0.5409690000000  0.5780800000000 1.0
C      1  0.4377250000000  0.4367520000000  0.5589840000000 1.0
C      1  0.4389740000000  0.4216780000000  0.4594770000000 1.0
C      1  0.4375040000000  0.5144950000000  0.4160600000000 1.0
C      1  0.4396810000000  0.5857590000000  0.4889280000000 1.0
C      1  0.4614340000000  0.4526320000000  0.5895640000000 1.0
C      1  0.4629770000000  0.5740350000000  0.5723940000000 1.0
C      1  0.4631160000000  0.5973550000000  0.4559320000000 1.0
C      1  0.4618700000000  0.4851370000000  0.3985440000000 1.0
C      1  0.4629300000000  0.3954620000000  0.4823700000000 1.0
C      1  0.4622740000000  0.5515500000000  0.5911290000000 1.0
C      1  0.4633070000000  0.4280110000000  0.5730020000000 1.0
C      1  0.4624870000000  0.4037010000000  0.4540850000000 1.0
C      1  0.4616670000000  0.5147990000000  0.3987470000000 1.0
C      1  0.4636650000000  0.6034000000000  0.4846450000000 1.0
C      1  0.5139660000000  0.5142530000000  0.4090060000000 1.0
C      1  0.5160750000000  0.4139610000000  0.4579290000000 1.0
C      1  0.5155890000000  0.4345870000000  0.5622800000000 1.0
C      1  0.5152650000000  0.5469240000000  0.5808870000000 1.0
C      1  0.5164380000000  0.5920270000000  0.4918280000000 1.0
C      1  0.5141220000000  0.4846260000000  0.4093700000000 1.0
C      1  0.5166920000000  0.5872380000000  0.4618430000000 1.0
C      1  0.5145950000000  0.5663540000000  0.5593710000000 1.0
C      1  0.5153040000000  0.4560580000000  0.5824070000000 1.0
C      1  0.5162590000000  0.4066650000000  0.4867960000000 1.0
C      1  0.4879810000000  0.5933690000000  0.4978610000000 1.0
C      1  0.4866140000000  0.5238500000000  0.4118250000000 1.0
C      1  0.4882860000000  0.4169080000000  0.4485160000000 1.0
C      1  0.4874940000000  0.4295110000000  0.5564040000000 1.0
C      1  0.4876110000000  0.5364570000000  0.5880130000000 1.0
C      1  0.4883280000000  0.4041080000000  0.4948200000000 1.0
C      1  0.4865020000000  0.4756110000000  0.4116530000000 1.0
C      1  0.4890520000000  0.5842410000000  0.4504740000000 1.0
C      1  0.4870350000000  0.5715660000000  0.5547450000000 1.0
C      1  0.4877730000000  0.4667720000000  0.5868800000000 1.0
C      1  0.5788220000000  0.4854690000000  0.4543970000000 1.0
C      1  0.5775600000000  0.4529900000000  0.5006630000000 1.0
C      1  0.5782320000000  0.4852200000000  0.5465960000000 1.0
C      1  0.5810300000000  0.5382960000000  0.5284320000000 1.0
C      1  0.5771620000000  0.5390490000000  0.4718480000000 1.0
C      1  0.5784510000000  0.5152600000000  0.4540640000000 1.0
C      1  0.5774890000000  0.5465070000000  0.5001210000000 1.0
C      1  0.5780600000000  0.5146890000000  0.5465210000000 1.0
C      1  0.5805040000000  0.4611070000000  0.5292550000000 1.0
C      1  0.5775020000000  0.4618070000000  0.4723790000000 1.0
C      1  0.5634010000000  0.5654670000000  0.4653250000000 1.0
C      1  0.5652020000000  0.4851760000000  0.4277000000000 1.0
C      1  0.5627160000000  0.4280660000000  0.4931790000000 1.0
C      1  0.5645710000000  0.4685840000000  0.5676970000000 1.0
C      1  0.5655460000000  0.5549850000000  0.5473360000000 1.0
C      1  0.5634840000000  0.4360930000000  0.4646440000000 1.0
C      1  0.5652120000000  0.5146170000000  0.4272300000000 1.0
C      1  0.5618450000000  0.5718900000000  0.4946250000000 1.0
C      1  0.5640070000000  0.5326260000000  0.5664840000000 1.0
C      1  0.5662400000000  0.4450920000000  0.5498610000000 1.0
C      1  0.4490870000000  0.4959770000000  0.5250260000000 1.0
C      1  0.4610520000000  0.5180870000000  0.5112560000000 1.0
C      1  0.4634060000000  0.4778390000000  0.5083300000000 1.0
C      1  0.4691850000000  0.4865550000000  0.4826820000000 1.0
C      1  0.4671010000000  0.5143840000000  0.4837230000000 1.0
END
