TITL C-2441163-1170-830 0.0329553327616433 125000 -7431.2318192874 0 0 59 (C1) n - 1
REM
REM in /home/bkarasulu/work/CARBON/AIRSS/Generating-Clusters/ReaxFF-fromJPCA2015/Units_Real/with-SteepDescent/Higher-Symm
REM
REM
REM
REM
REM
REM ./C.cell (1df0a924f5614ab8850e4351716899ee)
REM
REM compiler GCC version 9.2.1 20190827 (Red Hat 9.2.1-1)
REM options -cpp -mtune=generic -march=x86-64 -g -O0 -fpre-include=/usr/include/finclude/math-vector-fortran.h
REM seed 596936019 -481464401 -1280433087 1565061216 -455086065 2068201729 -1617159682 -588290877 -898795095 1613460957 -1614032330 705274193 67566164 1833529695 -1180236723 704831126 100317623 2045104468 2077701114 -864748957 -2041043976 -1754877988 107498370 580444281 -2051248305 -1217170687 1900800505 1134938605 -288133537 1721368673 -2060331332 -1639320323 -584470693
REM
CELL 1.54180   50.00000   50.00000   50.00000   90.00000   90.00000   90.00000
LATT -1
SFAC C  
C      1  0.4894880000000  0.5303740000000  0.5319020000000 1.0
C      1  0.5163810000000  0.5307110000000  0.4681640000000 1.0
C      1  0.4912590000000  0.5319320000000  0.4651130000000 1.0
C      1  0.5165290000000  0.5344320000000  0.5337080000000 1.0
C      1  0.4562680000000  0.4936250000000  0.5202900000000 1.0
C      1  0.5454200000000  0.4926540000000  0.4763510000000 1.0
C      1  0.4563540000000  0.4908330000000  0.4757220000000 1.0
C      1  0.5451770000000  0.4921450000000  0.5226840000000 1.0
C      1  0.4614150000000  0.4835370000000  0.4318040000000 1.0
C      1  0.5395040000000  0.4840410000000  0.5669640000000 1.0
C      1  0.4617320000000  0.4838810000000  0.5666080000000 1.0
C      1  0.5387680000000  0.4835350000000  0.4327450000000 1.0
C      1  0.5099700000000  0.5623740000000  0.5227060000000 1.0
C      1  0.4814830000000  0.5564400000000  0.4775450000000 1.0
C      1  0.5217380000000  0.5572410000000  0.4785720000000 1.0
C      1  0.4811330000000  0.5587010000000  0.5268100000000 1.0
C      1  0.5367730000000  0.4476390000000  0.4700690000000 1.0
C      1  0.4641240000000  0.4482510000000  0.5287990000000 1.0
C      1  0.5365960000000  0.4476380000000  0.5294820000000 1.0
C      1  0.4643160000000  0.4474730000000  0.4695710000000 1.0
C      1  0.4561480000000  0.5401660000000  0.4785860000000 1.0
C      1  0.5540570000000  0.5392900000000  0.5163790000000 1.0
C      1  0.4540340000000  0.5437820000000  0.5213970000000 1.0
C      1  0.5467100000000  0.5448240000000  0.4874210000000 1.0
C      1  0.4865850000000  0.4817360000000  0.4421920000000 1.0
C      1  0.5137320000000  0.4814340000000  0.5582390000000 1.0
C      1  0.4868490000000  0.4826160000000  0.5555670000000 1.0
C      1  0.5134370000000  0.4822270000000  0.4415990000000 1.0
C      1  0.5507500000000  0.5030100000000  0.4493590000000 1.0
C      1  0.4486910000000  0.5029590000000  0.5489470000000 1.0
C      1  0.5522470000000  0.5029350000000  0.5491770000000 1.0
C      1  0.4483650000000  0.5026860000000  0.4496360000000 1.0
C      1  0.4555940000000  0.5304530000000  0.4510280000000 1.0
C      1  0.5462140000000  0.5309680000000  0.5434760000000 1.0
C      1  0.4537300000000  0.5309040000000  0.5477810000000 1.0
C      1  0.5381930000000  0.5294450000000  0.4499390000000 1.0
C      1  0.5543350000000  0.4649380000000  0.5140520000000 1.0
C      1  0.4459260000000  0.4646820000000  0.4846820000000 1.0
C      1  0.5542640000000  0.4653080000000  0.4851910000000 1.0
C      1  0.4466570000000  0.4655790000000  0.5134780000000 1.0
C      1  0.5156910000000  0.4336230000000  0.4849930000000 1.0
C      1  0.4851910000000  0.4336810000000  0.5140620000000 1.0
C      1  0.5155190000000  0.4337810000000  0.5142780000000 1.0
C      1  0.4852490000000  0.4336850000000  0.4848000000000 1.0
C      1  0.5134900000000  0.4840820000000  0.5134730000000 1.0
C      1  0.4836040000000  0.4847010000000  0.4852430000000 1.0
C      1  0.5135170000000  0.4844630000000  0.4856430000000 1.0
C      1  0.4839210000000  0.4836590000000  0.5136180000000 1.0
C      1  0.5117220000000  0.5322290000000  0.5640150000000 1.0
C      1  0.4852840000000  0.5318700000000  0.4369340000000 1.0
C      1  0.5132140000000  0.5320290000000  0.4336200000000 1.0
C      1  0.4849450000000  0.5311490000000  0.5612650000000 1.0
C      1  0.4711930000000  0.4595080000000  0.5548020000000 1.0
C      1  0.5299680000000  0.4590740000000  0.4439790000000 1.0
C      1  0.4704470000000  0.4589000000000  0.4434970000000 1.0
C      1  0.5304690000000  0.4592570000000  0.5554840000000 1.0
C      1  0.4534770000000  0.5225860000000  0.5019400000000 1.0
C      1  0.5433520000000  0.5171130000000  0.4994280000000 1.0
C      1  0.5020160000000  0.5513670000000  0.4973780000000 1.0
END
