TITL C-2441168-9922-676 0.112180889915186 125000 -20805.5178504025 0 0 163 (C1) n - 1
REM
REM in /home/bkarasulu/work/CARBON/AIRSS/Generating-Clusters/ReaxFF-fromJPCA2015/Units_Real/with-SteepDescent/Higher-Symm
REM
REM
REM
REM
REM
REM ./C.cell (1df0a924f5614ab8850e4351716899ee)
REM
REM compiler GCC version 9.2.1 20190827 (Red Hat 9.2.1-1)
REM options -cpp -mtune=generic -march=x86-64 -g -O0 -fpre-include=/usr/include/finclude/math-vector-fortran.h
REM seed -2073486516 -1159255190 -1468239094 -1967608560 11039061 -995318097 815091310 529160859 -890385890 -411467024 502205839 1417062576 355698673 -1699608386 2022179519 -642614058 2124623344 -2052253203 -1558909065 -1557434531 378996379 -1418748568 1918779347 2066698672 1864953763 1743324756 387341698 -649633439 -39414304 1910896454 546034133 1044771586 1268121142
REM
CELL 1.54180   50.00000   50.00000   50.00000   90.00000   90.00000   90.00000
LATT -1
SFAC C  
C      1  0.4186270000000  0.4858750000000  0.5152680000000 1.0
C      1  0.4612280000000  0.5759330000000  0.5153880000000 1.0
C      1  0.5594200000000  0.5643550000000  0.5147190000000 1.0
C      1  0.5774720000000  0.4611890000000  0.5136590000000 1.0
C      1  0.4872140000000  0.4111960000000  0.5128370000000 1.0
C      1  0.4141560000000  0.4851730000000  0.4860310000000 1.0
C      1  0.4581480000000  0.5788770000000  0.4864740000000 1.0
C      1  0.5627010000000  0.5631200000000  0.4853320000000 1.0
C      1  0.5790090000000  0.4633090000000  0.4851970000000 1.0
C      1  0.4839480000000  0.4129450000000  0.4856570000000 1.0
C      1  0.4404830000000  0.4946510000000  0.4751140000000 1.0
C      1  0.4722650000000  0.5561630000000  0.4722380000000 1.0
C      1  0.5461980000000  0.5430520000000  0.4734720000000 1.0
C      1  0.5548740000000  0.4716140000000  0.4723080000000 1.0
C      1  0.4941840000000  0.4333290000000  0.4705740000000 1.0
C      1  0.4459710000000  0.4961050000000  0.5252230000000 1.0
C      1  0.4781060000000  0.5533410000000  0.5240500000000 1.0
C      1  0.5415180000000  0.5418910000000  0.5234850000000 1.0
C      1  0.5483420000000  0.4703820000000  0.5225890000000 1.0
C      1  0.4902610000000  0.4395420000000  0.5254700000000 1.0
C      1  0.5290490000000  0.5544160000000  0.4171850000000 1.0
C      1  0.5628680000000  0.4907340000000  0.4159330000000 1.0
C      1  0.5064360000000  0.4388990000000  0.4169970000000 1.0
C      1  0.4372960000000  0.4623840000000  0.4185830000000 1.0
C      1  0.4526880000000  0.5484870000000  0.4180780000000 1.0
C      1  0.5257770000000  0.5572660000000  0.5806040000000 1.0
C      1  0.5694060000000  0.4873110000000  0.5828620000000 1.0
C      1  0.5113730000000  0.4423680000000  0.5795920000000 1.0
C      1  0.4447840000000  0.4699710000000  0.5838300000000 1.0
C      1  0.4553910000000  0.5404390000000  0.5806870000000 1.0
C      1  0.4777800000000  0.6028060000000  0.4856960000000 1.0
C      1  0.5929290000000  0.5522690000000  0.4857020000000 1.0
C      1  0.5781810000000  0.4328870000000  0.4856330000000 1.0
C      1  0.4563280000000  0.4060670000000  0.4833910000000 1.0
C      1  0.3958460000000  0.5102030000000  0.4862250000000 1.0
C      1  0.4786930000000  0.6017490000000  0.5142650000000 1.0
C      1  0.5891920000000  0.5533440000000  0.5137380000000 1.0
C      1  0.5777760000000  0.4305510000000  0.5144820000000 1.0
C      1  0.4565000000000  0.4034330000000  0.5125620000000 1.0
C      1  0.3983550000000  0.5091040000000  0.5146180000000 1.0
C      1  0.5710740000000  0.5447040000000  0.4397310000000 1.0
C      1  0.5626840000000  0.4479960000000  0.4403690000000 1.0
C      1  0.4677920000000  0.4312260000000  0.4381280000000 1.0
C      1  0.4185370000000  0.5013440000000  0.4406520000000 1.0
C      1  0.4815730000000  0.5782400000000  0.4380760000000 1.0
C      1  0.5690600000000  0.5476450000000  0.5569360000000 1.0
C      1  0.5607310000000  0.4481840000000  0.5617950000000 1.0
C      1  0.4711620000000  0.4199510000000  0.5588780000000 1.0
C      1  0.4150880000000  0.5030180000000  0.5630740000000 1.0
C      1  0.4775500000000  0.5802390000000  0.5615050000000 1.0
C      1  0.4236040000000  0.4740170000000  0.5640860000000 1.0
C      1  0.4516020000000  0.5634710000000  0.5635470000000 1.0
C      1  0.5446430000000  0.5639450000000  0.5573820000000 1.0
C      1  0.5812580000000  0.4726430000000  0.5632320000000 1.0
C      1  0.5008470000000  0.4231750000000  0.5557400000000 1.0
C      1  0.4187180000000  0.4722510000000  0.4380520000000 1.0
C      1  0.4544490000000  0.5638610000000  0.4430410000000 1.0
C      1  0.5467370000000  0.5633480000000  0.4394230000000 1.0
C      1  0.5751010000000  0.4747130000000  0.4387310000000 1.0
C      1  0.4983660000000  0.4237070000000  0.4422360000000 1.0
C      1  0.4218240000000  0.4237810000000  0.5464010000000 1.0
C      1  0.4033540000000  0.5502960000000  0.5472710000000 1.0
C      1  0.5190080000000  0.6088480000000  0.5475350000000 1.0
C      1  0.6075450000000  0.5159030000000  0.5467470000000 1.0
C      1  0.5483630000000  0.4012950000000  0.5471700000000 1.0
C      1  0.4198150000000  0.4227750000000  0.4513350000000 1.0
C      1  0.4055020000000  0.5502490000000  0.4528730000000 1.0
C      1  0.5200620000000  0.6083820000000  0.4524090000000 1.0
C      1  0.6092100000000  0.5132170000000  0.4541620000000 1.0
C      1  0.5486870000000  0.4012640000000  0.4547360000000 1.0
C      1  0.4483320000000  0.4163650000000  0.4564100000000 1.0
C      1  0.4069150000000  0.5207040000000  0.4612160000000 1.0
C      1  0.4936190000000  0.5975370000000  0.4617090000000 1.0
C      1  0.5937420000000  0.5385100000000  0.4606050000000 1.0
C      1  0.5674290000000  0.4256580000000  0.4600120000000 1.0
C      1  0.4486230000000  0.4127780000000  0.5386780000000 1.0
C      1  0.4023480000000  0.5215180000000  0.5405740000000 1.0
C      1  0.4920360000000  0.5997370000000  0.5394070000000 1.0
C      1  0.5930420000000  0.5413290000000  0.5396190000000 1.0
C      1  0.5652320000000  0.4246600000000  0.5398540000000 1.0
C      1  0.5344400000000  0.4566500000000  0.4411920000000 1.0
C      1  0.4711120000000  0.4626050000000  0.4534930000000 1.0
C      1  0.4453260000000  0.5061020000000  0.4377510000000 1.0
C      1  0.4953620000000  0.5510830000000  0.4394660000000 1.0
C      1  0.5538540000000  0.5201760000000  0.4414280000000 1.0
C      1  0.5396320000000  0.4660520000000  0.5505670000000 1.0
C      1  0.4667590000000  0.4470820000000  0.5573340000000 1.0
C      1  0.4520510000000  0.5060440000000  0.5515440000000 1.0
C      1  0.4925900000000  0.5520340000000  0.5515120000000 1.0
C      1  0.5542020000000  0.5233390000000  0.5607530000000 1.0
C      1  0.4724130000000  0.4842920000000  0.5139100000000 1.0
C      1  0.4731140000000  0.5274440000000  0.5111320000000 1.0
C      1  0.5156930000000  0.5349460000000  0.5098340000000 1.0
C      1  0.5338840000000  0.4953110000000  0.5099850000000 1.0
C      1  0.5085310000000  0.4576140000000  0.5130330000000 1.0
C      1  0.4636790000000  0.4840410000000  0.4864710000000 1.0
C      1  0.4699740000000  0.5286200000000  0.4818360000000 1.0
C      1  0.5183160000000  0.5399670000000  0.4798260000000 1.0
C      1  0.5426040000000  0.4955910000000  0.4817070000000 1.0
C      1  0.5072220000000  0.4574580000000  0.4808700000000 1.0
C      1  0.4542590000000  0.4436860000000  0.5816420000000 1.0
C      1  0.4372230000000  0.5185200000000  0.5753490000000 1.0
C      1  0.4997710000000  0.5689030000000  0.5781300000000 1.0
C      1  0.5581450000000  0.5115340000000  0.5882800000000 1.0
C      1  0.5395790000000  0.4421710000000  0.5846330000000 1.0
C      1  0.4609960000000  0.4481330000000  0.4133990000000 1.0
C      1  0.4429280000000  0.5209310000000  0.4146650000000 1.0
C      1  0.5033620000000  0.5680320000000  0.4178940000000 1.0
C      1  0.5698040000000  0.5181820000000  0.4179210000000 1.0
C      1  0.5318750000000  0.4501910000000  0.4130870000000 1.0
C      1  0.4332700000000  0.5709190000000  0.5161250000000 1.0
C      1  0.5463670000000  0.5921800000000  0.5121860000000 1.0
C      1  0.5991060000000  0.4801480000000  0.5142480000000 1.0
C      1  0.5136820000000  0.3982890000000  0.5124170000000 1.0
C      1  0.4146440000000  0.4579100000000  0.5148410000000 1.0
C      1  0.4277820000000  0.5763180000000  0.4884700000000 1.0
C      1  0.5506790000000  0.5885230000000  0.4841610000000 1.0
C      1  0.6001010000000  0.4871570000000  0.4864350000000 1.0
C      1  0.5223770000000  0.3987770000000  0.4860920000000 1.0
C      1  0.4063840000000  0.4553600000000  0.4874560000000 1.0
C      1  0.4865480000000  0.5255600000000  0.5585680000000 1.0
C      1  0.5258520000000  0.5255470000000  0.5578980000000 1.0
C      1  0.5260120000000  0.4866390000000  0.5629810000000 1.0
C      1  0.4849730000000  0.4685820000000  0.5574370000000 1.0
C      1  0.4702500000000  0.4907040000000  0.5625500000000 1.0
C      1  0.4867940000000  0.5238010000000  0.4375870000000 1.0
C      1  0.5257670000000  0.5223760000000  0.4418320000000 1.0
C      1  0.5250860000000  0.4832070000000  0.4368990000000 1.0
C      1  0.4953180000000  0.4751530000000  0.4618610000000 1.0
C      1  0.4663480000000  0.4856580000000  0.4351260000000 1.0
C      1  0.4414010000000  0.5221740000000  0.4832860000000 1.0
C      1  0.5002010000000  0.5626750000000  0.4815680000000 1.0
C      1  0.5575720000000  0.5193320000000  0.4852550000000 1.0
C      1  0.5366140000000  0.4512240000000  0.4805740000000 1.0
C      1  0.4636000000000  0.4549930000000  0.4834940000000 1.0
C      1  0.4443220000000  0.5228270000000  0.5126980000000 1.0
C      1  0.5011540000000  0.5595150000000  0.5101670000000 1.0
C      1  0.5543010000000  0.5178740000000  0.5142640000000 1.0
C      1  0.5345300000000  0.4489980000000  0.5085920000000 1.0
C      1  0.4679040000000  0.4546360000000  0.5129590000000 1.0
C      1  0.5323570000000  0.4958630000000  0.4121910000000 1.0
C      1  0.5061370000000  0.4659970000000  0.4054830000000 1.0
C      1  0.4774640000000  0.4728110000000  0.4107810000000 1.0
C      1  0.4716730000000  0.5269320000000  0.4133300000000 1.0
C      1  0.5232100000000  0.5249750000000  0.4131070000000 1.0
C      1  0.5309060000000  0.4999030000000  0.5885860000000 1.0
C      1  0.4955480000000  0.4676050000000  0.5844060000000 1.0
C      1  0.4734120000000  0.4871450000000  0.5909860000000 1.0
C      1  0.4807650000000  0.5214380000000  0.5860170000000 1.0
C      1  0.5154030000000  0.5273620000000  0.5853030000000 1.0
C      1  0.4121640000000  0.4507930000000  0.4595930000000 1.0
C      1  0.4274140000000  0.5678360000000  0.4604830000000 1.0
C      1  0.5421090000000  0.5885560000000  0.4562200000000 1.0
C      1  0.5975840000000  0.4859230000000  0.4576290000000 1.0
C      1  0.5195190000000  0.4020410000000  0.4589990000000 1.0
C      1  0.4152130000000  0.4525540000000  0.5434310000000 1.0
C      1  0.4287070000000  0.5662760000000  0.5444800000000 1.0
C      1  0.5406010000000  0.5888520000000  0.5401660000000 1.0
C      1  0.5980890000000  0.4884550000000  0.5420510000000 1.0
C      1  0.5191670000000  0.4045480000000  0.5407660000000 1.0
C      1  0.5060080000000  0.5012870000000  0.4528960000000 1.0
C      1  0.5065830000000  0.5058750000000  0.5461360000000 1.0
C      1  0.5028210000000  0.5031670000000  0.5161760000000 1.0
END
