TITL C-2441163-1170-745 -0.00163221504743236 125000 -4980.50228658609 0 0 35 (C5) n - 1
REM
REM in /home/bkarasulu/work/CARBON/AIRSS/Generating-Clusters/ReaxFF-fromJPCA2015/Units_Real/with-SteepDescent/Higher-Symm
REM
REM
REM
REM
REM
REM ./C.cell (1df0a924f5614ab8850e4351716899ee)
REM
REM compiler GCC version 9.2.1 20190827 (Red Hat 9.2.1-1)
REM options -cpp -mtune=generic -march=x86-64 -g -O0 -fpre-include=/usr/include/finclude/math-vector-fortran.h
REM seed -1131075105 -1613143579 -1097809850 -1238158805 -1752435833 -1621843386 -89370934 164805219 755890857 -762260164 -55075005 -966394456 385038681 944272872 586979044 -242259458 -808072136 1550389235 1396570347 1449841406 1736216021 -1512790207 790902694 -1698681232 1177493927 1455729869 404697920 1282799020 -1690390808 -307140854 1496299662 1475586707 1912670558
REM
CELL 1.54180   50.00000   50.00000   50.00000   90.00000   90.00000   90.00000
LATT -1
SFAC C  
C      1  0.5224210000000  0.5474850000000  0.5107020000000 1.0
C      1  0.5171090000000  0.5474640000000  0.4819940000000 1.0
C      1  0.4881840000000  0.5474820000000  0.4781630000000 1.0
C      1  0.4755670000000  0.5475270000000  0.5045230000000 1.0
C      1  0.4967940000000  0.5474930000000  0.5246350000000 1.0
C      1  0.5224180000000  0.4521690000000  0.5107060000000 1.0
C      1  0.5171080000000  0.4521890000000  0.4819950000000 1.0
C      1  0.4881860000000  0.4521720000000  0.4781640000000 1.0
C      1  0.4755690000000  0.4521280000000  0.5045240000000 1.0
C      1  0.4967910000000  0.4521690000000  0.5246350000000 1.0
C      1  0.5543670000000  0.4871510000000  0.4629830000000 1.0
C      1  0.4816080000000  0.4871530000000  0.4368120000000 1.0
C      1  0.4342060000000  0.4871460000000  0.4979590000000 1.0
C      1  0.4777140000000  0.4871230000000  0.5619540000000 1.0
C      1  0.5520130000000  0.4871490000000  0.5403030000000 1.0
C      1  0.5543310000000  0.5124720000000  0.4629860000000 1.0
C      1  0.4816010000000  0.5124730000000  0.4368420000000 1.0
C      1  0.4342340000000  0.5124760000000  0.4979760000000 1.0
C      1  0.4777710000000  0.5124680000000  0.5619050000000 1.0
C      1  0.5520020000000  0.5124780000000  0.5402760000000 1.0
C      1  0.5404530000000  0.4748930000000  0.5179450000000 1.0
C      1  0.5295820000000  0.4748730000000  0.4670900000000 1.0
C      1  0.4778350000000  0.4748770000000  0.4617220000000 1.0
C      1  0.4566880000000  0.4749050000000  0.5092670000000 1.0
C      1  0.4954000000000  0.4748830000000  0.5440000000000 1.0
C      1  0.5404490000000  0.5247730000000  0.5179340000000 1.0
C      1  0.5295700000000  0.5247920000000  0.4670930000000 1.0
C      1  0.4778330000000  0.5247870000000  0.4617320000000 1.0
C      1  0.4566980000000  0.5247630000000  0.5092730000000 1.0
C      1  0.4954190000000  0.5247960000000  0.5439850000000 1.0
C      1  0.4746370000000  0.4998330000000  0.5079030000000 1.0
C      1  0.5158990000000  0.4998350000000  0.4786340000000 1.0
C      1  0.4846150000000  0.4998330000000  0.4782610000000 1.0
C      1  0.4996980000000  0.4998410000000  0.5266070000000 1.0
C      1  0.5252310000000  0.4998320000000  0.5085200000000 1.0
END
