TITL C-2441159-1093-1185 0.000260334869936548 125000 -6990.48894718264 0 0 47 (C1) n - 1
REM
REM in /home/bkarasulu/work/CARBON/AIRSS/Generating-Clusters/ReaxFF-fromJPCA2015/Units_Real/with-SteepDescent/Higher-Symm
REM
REM
REM
REM
REM
REM ./C.cell (1df0a924f5614ab8850e4351716899ee)
REM
REM compiler GCC version 9.2.1 20190827 (Red Hat 9.2.1-1)
REM options -cpp -mtune=generic -march=x86-64 -g -O0 -fpre-include=/usr/include/finclude/math-vector-fortran.h
REM seed -1576389415 -1572475777 -1456760570 2027811430 -945070442 2089714793 -3084220 1561312231 785769710 1507362943 -1101176383 993927550 700941810 1019557337 1392562499 -1731393820 728109945 787339729 1398173632 -1155450433 -246446589 -756460045 -34165303 667491232 -1686782123 -1870712728 -1946598999 -1002836583 1111379512 888719316 88545225 -146092193 -1110747014
REM
CELL 1.54180   50.00000   50.00000   50.00000   90.00000   90.00000   90.00000
LATT -1
SFAC C  
C      1  0.4370610000000  0.4846980000000  0.4880390000000 1.0
C      1  0.4361720000000  0.5013960000000  0.5354460000000 1.0
C      1  0.4751990000000  0.4826800000000  0.5608180000000 1.0
C      1  0.5216230000000  0.4854390000000  0.5610800000000 1.0
C      1  0.5594400000000  0.4833110000000  0.5343110000000 1.0
C      1  0.5675380000000  0.4843810000000  0.4895530000000 1.0
C      1  0.5444060000000  0.4838750000000  0.4505580000000 1.0
C      1  0.5021780000000  0.4837430000000  0.4340360000000 1.0
C      1  0.4595280000000  0.4840470000000  0.4484190000000 1.0
C      1  0.4311120000000  0.5045350000000  0.5078190000000 1.0
C      1  0.4528750000000  0.4989920000000  0.5574610000000 1.0
C      1  0.4974990000000  0.4997730000000  0.5697290000000 1.0
C      1  0.5471730000000  0.4987590000000  0.5569580000000 1.0
C      1  0.5724820000000  0.5003050000000  0.5141030000000 1.0
C      1  0.5644890000000  0.5004870000000  0.4650870000000 1.0
C      1  0.5270070000000  0.4996990000000  0.4327630000000 1.0
C      1  0.4777250000000  0.5000670000000  0.4307980000000 1.0
C      1  0.4405520000000  0.4997710000000  0.4636440000000 1.0
C      1  0.5151340000000  0.4672700000000  0.5374110000000 1.0
C      1  0.5416840000000  0.4640670000000  0.5219050000000 1.0
C      1  0.5454540000000  0.4655950000000  0.4927810000000 1.0
C      1  0.5295170000000  0.4659000000000  0.4676810000000 1.0
C      1  0.5016150000000  0.4659130000000  0.4572120000000 1.0
C      1  0.4734850000000  0.4652020000000  0.4655460000000 1.0
C      1  0.4577150000000  0.4631950000000  0.4910160000000 1.0
C      1  0.4688320000000  0.4605470000000  0.5169030000000 1.0
C      1  0.4818290000000  0.4619800000000  0.5413580000000 1.0
C      1  0.4508900000000  0.5237370000000  0.5444590000000 1.0
C      1  0.4961010000000  0.5275880000000  0.5617900000000 1.0
C      1  0.5362220000000  0.5245870000000  0.5516210000000 1.0
C      1  0.5613870000000  0.5267790000000  0.5126480000000 1.0
C      1  0.5567270000000  0.5276570000000  0.4707450000000 1.0
C      1  0.5243360000000  0.5269610000000  0.4418110000000 1.0
C      1  0.4823170000000  0.5266320000000  0.4399990000000 1.0
C      1  0.4425770000000  0.5290970000000  0.4688980000000 1.0
C      1  0.4340620000000  0.5316940000000  0.4967030000000 1.0
C      1  0.5435310000000  0.5476610000000  0.5127820000000 1.0
C      1  0.5424290000000  0.5489120000000  0.4820060000000 1.0
C      1  0.5212130000000  0.5482350000000  0.4593230000000 1.0
C      1  0.4900310000000  0.5484450000000  0.4556000000000 1.0
C      1  0.4664720000000  0.5463750000000  0.4742570000000 1.0
C      1  0.4581160000000  0.5483810000000  0.5029660000000 1.0
C      1  0.4689540000000  0.5414680000000  0.5293600000000 1.0
C      1  0.4944080000000  0.5483430000000  0.5432910000000 1.0
C      1  0.5252490000000  0.5462060000000  0.5377640000000 1.0
C      1  0.5042030000000  0.4823910000000  0.5127650000000 1.0
C      1  0.5008980000000  0.5008730000000  0.4979730000000 1.0
END
