TITL C-2441163-1170-994 0.0466773535149585 125000 -13270.7156892265 0 0 97 (C1) n - 1
REM
REM in /home/bkarasulu/work/CARBON/AIRSS/Generating-Clusters/ReaxFF-fromJPCA2015/Units_Real/with-SteepDescent/Higher-Symm
REM
REM
REM
REM
REM
REM ./C.cell (1df0a924f5614ab8850e4351716899ee)
REM
REM compiler GCC version 9.2.1 20190827 (Red Hat 9.2.1-1)
REM options -cpp -mtune=generic -march=x86-64 -g -O0 -fpre-include=/usr/include/finclude/math-vector-fortran.h
REM seed -797940462 -1160700403 -1046487966 -939496933 491361782 -1636319455 -708139988 1852671165 -2054409586 -495520467 -1430165121 -1794845349 -1246437443 854791070 1237134248 -1649764150 -2129099162 1423620397 1696851877 806783366 -426529953 -1057579899 1246982554 952682227 -410244993 1266503412 -1696250849 2138914673 796854413 1667912783 -553133775 -248613800 -1685993931
REM
CELL 1.54180   50.00000   50.00000   50.00000   90.00000   90.00000   90.00000
LATT -1
SFAC C  
C      1  0.5690240000000  0.5533070000000  0.4806090000000 1.0
C      1  0.4333790000000  0.4523010000000  0.5233160000000 1.0
C      1  0.5453230000000  0.5354120000000  0.4312670000000 1.0
C      1  0.4570250000000  0.4617070000000  0.5690390000000 1.0
C      1  0.4279600000000  0.5017240000000  0.4619600000000 1.0
C      1  0.5717000000000  0.4977600000000  0.5358300000000 1.0
C      1  0.4558680000000  0.5783080000000  0.4930660000000 1.0
C      1  0.5479200000000  0.4257990000000  0.5077810000000 1.0
C      1  0.4871890000000  0.5308920000000  0.4272080000000 1.0
C      1  0.5129480000000  0.4685410000000  0.5727710000000 1.0
C      1  0.5718230000000  0.4378450000000  0.4932700000000 1.0
C      1  0.4418550000000  0.5585920000000  0.5097960000000 1.0
C      1  0.5642240000000  0.5180290000000  0.4447840000000 1.0
C      1  0.4373340000000  0.4788500000000  0.5549940000000 1.0
C      1  0.5034820000000  0.5078000000000  0.4187620000000 1.0
C      1  0.4974040000000  0.4922280000000  0.5802410000000 1.0
C      1  0.5748390000000  0.4782190000000  0.4816420000000 1.0
C      1  0.4196490000000  0.5209990000000  0.5167040000000 1.0
C      1  0.4208290000000  0.5494750000000  0.4879230000000 1.0
C      1  0.5806840000000  0.4502720000000  0.5175170000000 1.0
C      1  0.4674520000000  0.5478260000000  0.5648240000000 1.0
C      1  0.5268420000000  0.4570080000000  0.4372650000000 1.0
C      1  0.4375760000000  0.4294820000000  0.5070880000000 1.0
C      1  0.5602310000000  0.5749390000000  0.4959190000000 1.0
C      1  0.4782360000000  0.5883720000000  0.5088090000000 1.0
C      1  0.5256980000000  0.4156600000000  0.4924370000000 1.0
C      1  0.4328950000000  0.4800080000000  0.4803660000000 1.0
C      1  0.5711780000000  0.5256890000000  0.5204130000000 1.0
C      1  0.4786830000000  0.4267870000000  0.4646190000000 1.0
C      1  0.5242850000000  0.5647590000000  0.5376120000000 1.0
C      1  0.5108380000000  0.5626500000000  0.5102070000000 1.0
C      1  0.4873540000000  0.4320720000000  0.4926940000000 1.0
C      1  0.4446220000000  0.4906070000000  0.5284560000000 1.0
C      1  0.5624210000000  0.5085860000000  0.4737760000000 1.0
C      1  0.5565850000000  0.4529820000000  0.5522460000000 1.0
C      1  0.4483020000000  0.5437710000000  0.4542680000000 1.0
C      1  0.5440030000000  0.5334080000000  0.5164400000000 1.0
C      1  0.4595630000000  0.4652280000000  0.4771390000000 1.0
C      1  0.5466810000000  0.4984960000000  0.5529700000000 1.0
C      1  0.4503750000000  0.5016700000000  0.4427470000000 1.0
C      1  0.4784790000000  0.5803170000000  0.5378670000000 1.0
C      1  0.5259760000000  0.4222120000000  0.4631660000000 1.0
C      1  0.4984810000000  0.5808920000000  0.4906610000000 1.0
C      1  0.5046950000000  0.4187720000000  0.5117980000000 1.0
C      1  0.4599460000000  0.5356520000000  0.5171630000000 1.0
C      1  0.5306570000000  0.4692900000000  0.4791480000000 1.0
C      1  0.5324080000000  0.5131890000000  0.4186370000000 1.0
C      1  0.4688750000000  0.4855060000000  0.5817560000000 1.0
C      1  0.5340470000000  0.5534080000000  0.4981940000000 1.0
C      1  0.4656930000000  0.4461790000000  0.5010720000000 1.0
C      1  0.4886540000000  0.5714380000000  0.4645440000000 1.0
C      1  0.5133320000000  0.4295630000000  0.5377600000000 1.0
C      1  0.4960620000000  0.5457650000000  0.5703530000000 1.0
C      1  0.4976990000000  0.4528580000000  0.4322150000000 1.0
C      1  0.4538890000000  0.5243760000000  0.5534080000000 1.0
C      1  0.5332710000000  0.4803690000000  0.4526550000000 1.0
C      1  0.4893230000000  0.5357180000000  0.5120400000000 1.0
C      1  0.5042740000000  0.4626230000000  0.4878980000000 1.0
C      1  0.4998520000000  0.5495790000000  0.4471210000000 1.0
C      1  0.5006580000000  0.4461860000000  0.5581950000000 1.0
C      1  0.5288380000000  0.5513840000000  0.4465250000000 1.0
C      1  0.4735570000000  0.4480960000000  0.5522790000000 1.0
C      1  0.4214480000000  0.5310530000000  0.4653870000000 1.0
C      1  0.5793740000000  0.4665460000000  0.5398710000000 1.0
C      1  0.4968260000000  0.5077290000000  0.5211280000000 1.0
C      1  0.4877340000000  0.4857230000000  0.4771000000000 1.0
C      1  0.5456380000000  0.4406300000000  0.4519190000000 1.0
C      1  0.4561290000000  0.5646290000000  0.5446970000000 1.0
C      1  0.4691760000000  0.4586710000000  0.5268570000000 1.0
C      1  0.5372690000000  0.5419890000000  0.4721400000000 1.0
C      1  0.4590650000000  0.5267770000000  0.4311600000000 1.0
C      1  0.5409490000000  0.4738080000000  0.5666330000000 1.0
C      1  0.4941880000000  0.4826440000000  0.4294760000000 1.0
C      1  0.5066530000000  0.5184310000000  0.5709160000000 1.0
C      1  0.5128130000000  0.4677780000000  0.5176130000000 1.0
C      1  0.4897460000000  0.5308420000000  0.4821040000000 1.0
C      1  0.4770220000000  0.4915620000000  0.4505060000000 1.0
C      1  0.5216280000000  0.5132870000000  0.5454460000000 1.0
C      1  0.4269620000000  0.4770730000000  0.5085410000000 1.0
C      1  0.5776010000000  0.5282090000000  0.4922430000000 1.0
C      1  0.5391040000000  0.4755300000000  0.5049630000000 1.0
C      1  0.4621500000000  0.5271800000000  0.4770910000000 1.0
C      1  0.4266610000000  0.5350660000000  0.5417880000000 1.0
C      1  0.5688170000000  0.4531810000000  0.4677270000000 1.0
C      1  0.5020410000000  0.5697230000000  0.5540200000000 1.0
C      1  0.5015870000000  0.4259070000000  0.4475840000000 1.0
C      1  0.5642150000000  0.4861460000000  0.5076300000000 1.0
C      1  0.4467710000000  0.5179570000000  0.4991510000000 1.0
C      1  0.5388420000000  0.5399550000000  0.5437500000000 1.0
C      1  0.4695590000000  0.4508510000000  0.4533690000000 1.0
C      1  0.5414140000000  0.4338050000000  0.5353130000000 1.0
C      1  0.4605700000000  0.5703130000000  0.4657460000000 1.0
C      1  0.5326360000000  0.5139020000000  0.4759280000000 1.0
C      1  0.4744250000000  0.4887790000000  0.5251340000000 1.0
C      1  0.5505480000000  0.4953480000000  0.4335910000000 1.0
C      1  0.4473150000000  0.5015310000000  0.5706290000000 1.0
C      1  0.5063080000000  0.5068800000000  0.4885350000000 1.0
END
