TITL C-2441162-9305-548 0.080697977029186 125000 -14677.3222307815 0 0 114 (C1) n - 1
REM
REM in /home/bkarasulu/work/CARBON/AIRSS/Generating-Clusters/ReaxFF-fromJPCA2015/Units_Real/with-SteepDescent/Higher-Symm
REM
REM
REM
REM
REM
REM ./C.cell (1df0a924f5614ab8850e4351716899ee)
REM
REM compiler GCC version 9.2.1 20190827 (Red Hat 9.2.1-1)
REM options -cpp -mtune=generic -march=x86-64 -g -O0 -fpre-include=/usr/include/finclude/math-vector-fortran.h
REM seed -1908083748 -599693324 -2102809358 72530388 -1014226300 1398961989 -354460142 -1453277914 -2032082476 903153332 -1068179235 374006802 -521813271 358496275 -1676429877 -1291254039 1337796895 801784414 -1611558510 -475065053 -765315523 702740809 724096625 1562321016 -1555046755 -479156483 516027599 919055612 -15266692 373605748 -1593235278 -1188596550 -252053490
REM
CELL 1.54180   50.00000   50.00000   50.00000   90.00000   90.00000   90.00000
LATT -1
SFAC C  
C      1  0.4967520000000  0.4061950000000  0.5292230000000 1.0
C      1  0.4938120000000  0.5905360000000  0.4691880000000 1.0
C      1  0.5056200000000  0.5926770000000  0.5295790000000 1.0
C      1  0.5055440000000  0.4083170000000  0.4688470000000 1.0
C      1  0.5387520000000  0.5497610000000  0.4318220000000 1.0
C      1  0.5395830000000  0.4470690000000  0.5670320000000 1.0
C      1  0.4621030000000  0.4495650000000  0.4362980000000 1.0
C      1  0.4623220000000  0.5493740000000  0.5657080000000 1.0
C      1  0.4737380000000  0.4698590000000  0.4190490000000 1.0
C      1  0.4731970000000  0.5276260000000  0.5810770000000 1.0
C      1  0.5277740000000  0.5267350000000  0.4171610000000 1.0
C      1  0.5296700000000  0.4697190000000  0.5829870000000 1.0
C      1  0.4177730000000  0.4772760000000  0.4933620000000 1.0
C      1  0.4223230000000  0.5226700000000  0.5066620000000 1.0
C      1  0.5834530000000  0.5212620000000  0.4958790000000 1.0
C      1  0.5757950000000  0.4793980000000  0.5023190000000 1.0
C      1  0.4422700000000  0.4326680000000  0.4984270000000 1.0
C      1  0.4418000000000  0.5697660000000  0.5032490000000 1.0
C      1  0.5601210000000  0.5667750000000  0.4967680000000 1.0
C      1  0.5618760000000  0.4346290000000  0.5034000000000 1.0
C      1  0.4283550000000  0.4421620000000  0.4751850000000 1.0
C      1  0.4288480000000  0.5577790000000  0.5259190000000 1.0
C      1  0.5728060000000  0.5566020000000  0.4715320000000 1.0
C      1  0.5741080000000  0.4483600000000  0.5276590000000 1.0
C      1  0.4370940000000  0.5308420000000  0.5293800000000 1.0
C      1  0.4356020000000  0.4693160000000  0.4720190000000 1.0
C      1  0.5644310000000  0.4776550000000  0.5265530000000 1.0
C      1  0.5652140000000  0.5304620000000  0.4770690000000 1.0
C      1  0.5003760000000  0.4684820000000  0.5804810000000 1.0
C      1  0.4991350000000  0.5252160000000  0.4195380000000 1.0
C      1  0.5024260000000  0.5272880000000  0.5821390000000 1.0
C      1  0.5034560000000  0.4684370000000  0.4206330000000 1.0
C      1  0.5038110000000  0.5072720000000  0.5098720000000 1.0
C      1  0.5125600000000  0.4863840000000  0.4761710000000 1.0
C      1  0.4864330000000  0.4874490000000  0.5249680000000 1.0
C      1  0.4934720000000  0.5078570000000  0.4822080000000 1.0
C      1  0.4283590000000  0.4959250000000  0.5610130000000 1.0
C      1  0.4393300000000  0.5081050000000  0.4340520000000 1.0
C      1  0.5614120000000  0.5085390000000  0.5650640000000 1.0
C      1  0.5700180000000  0.4947590000000  0.4334360000000 1.0
C      1  0.4630380000000  0.5860440000000  0.5109220000000 1.0
C      1  0.4630950000000  0.4159900000000  0.4909520000000 1.0
C      1  0.5398600000000  0.4162100000000  0.5095630000000 1.0
C      1  0.5377980000000  0.5837150000000  0.4898790000000 1.0
C      1  0.4746770000000  0.4027830000000  0.5120090000000 1.0
C      1  0.4749080000000  0.5984360000000  0.4889700000000 1.0
C      1  0.5273780000000  0.5947220000000  0.5134120000000 1.0
C      1  0.5291740000000  0.4053130000000  0.4846770000000 1.0
C      1  0.4156080000000  0.5275320000000  0.4790150000000 1.0
C      1  0.4202870000000  0.4663180000000  0.5202150000000 1.0
C      1  0.5865610000000  0.4706340000000  0.4779610000000 1.0
C      1  0.5773070000000  0.5284170000000  0.5230040000000 1.0
C      1  0.4862840000000  0.4622860000000  0.5070540000000 1.0
C      1  0.4873570000000  0.5463470000000  0.4960550000000 1.0
C      1  0.5160940000000  0.5450190000000  0.4983140000000 1.0
C      1  0.5135650000000  0.4645830000000  0.4992520000000 1.0
C      1  0.5236360000000  0.5451520000000  0.5737780000000 1.0
C      1  0.5198700000000  0.4472040000000  0.4284770000000 1.0
C      1  0.4874970000000  0.4433180000000  0.5774500000000 1.0
C      1  0.4789700000000  0.5453180000000  0.4265900000000 1.0
C      1  0.5302450000000  0.4701040000000  0.5224190000000 1.0
C      1  0.5359030000000  0.5286950000000  0.4795260000000 1.0
C      1  0.4701790000000  0.5326020000000  0.5196050000000 1.0
C      1  0.4698090000000  0.4681030000000  0.4826240000000 1.0
C      1  0.5450440000000  0.4662640000000  0.4638860000000 1.0
C      1  0.5379000000000  0.5344320000000  0.5342690000000 1.0
C      1  0.4601140000000  0.5413300000000  0.4632540000000 1.0
C      1  0.4565900000000  0.4585550000000  0.5448040000000 1.0
C      1  0.4807370000000  0.5790400000000  0.5313120000000 1.0
C      1  0.4804500000000  0.4223930000000  0.4697810000000 1.0
C      1  0.5204810000000  0.4228920000000  0.5301440000000 1.0
C      1  0.5188360000000  0.5767290000000  0.4694720000000 1.0
C      1  0.5310840000000  0.4214520000000  0.4590720000000 1.0
C      1  0.5297270000000  0.5783760000000  0.5367010000000 1.0
C      1  0.4653120000000  0.5854910000000  0.4657950000000 1.0
C      1  0.4714520000000  0.4182310000000  0.5364700000000 1.0
C      1  0.4503770000000  0.4797760000000  0.5658930000000 1.0
C      1  0.4520390000000  0.5350070000000  0.4353450000000 1.0
C      1  0.5484400000000  0.5346960000000  0.5631140000000 1.0
C      1  0.5490870000000  0.4753040000000  0.4353050000000 1.0
C      1  0.5573800000000  0.4435710000000  0.4764040000000 1.0
C      1  0.5588310000000  0.5521390000000  0.5221320000000 1.0
C      1  0.4469950000000  0.5648380000000  0.4750720000000 1.0
C      1  0.4402800000000  0.4448910000000  0.5249670000000 1.0
C      1  0.4905650000000  0.4902270000000  0.5584500000000 1.0
C      1  0.4903960000000  0.5075710000000  0.4419500000000 1.0
C      1  0.5110920000000  0.5072180000000  0.5632980000000 1.0
C      1  0.5110800000000  0.4893520000000  0.4429890000000 1.0
C      1  0.5161070000000  0.5528020000000  0.5459010000000 1.0
C      1  0.5177220000000  0.4489430000000  0.4570070000000 1.0
C      1  0.4822960000000  0.4448400000000  0.5456310000000 1.0
C      1  0.4876630000000  0.5489140000000  0.4546650000000 1.0
C      1  0.4184000000000  0.4848630000000  0.5411870000000 1.0
C      1  0.4245110000000  0.5124310000000  0.4575940000000 1.0
C      1  0.5735640000000  0.5045550000000  0.5393650000000 1.0
C      1  0.5836950000000  0.4873800000000  0.4548350000000 1.0
C      1  0.4640600000000  0.5041630000000  0.5143090000000 1.0
C      1  0.4666090000000  0.4975900000000  0.4859390000000 1.0
C      1  0.5321110000000  0.5054020000000  0.5146590000000 1.0
C      1  0.5370690000000  0.4996450000000  0.4854470000000 1.0
C      1  0.5207720000000  0.4498470000000  0.5422740000000 1.0
C      1  0.5180990000000  0.5498720000000  0.4567340000000 1.0
C      1  0.4819150000000  0.5512130000000  0.5425080000000 1.0
C      1  0.4816770000000  0.4498830000000  0.4591510000000 1.0
C      1  0.4363230000000  0.4502480000000  0.4485560000000 1.0
C      1  0.4369660000000  0.5510810000000  0.5527040000000 1.0
C      1  0.5624850000000  0.5544440000000  0.4454300000000 1.0
C      1  0.5628000000000  0.4449080000000  0.5523520000000 1.0
C      1  0.4659320000000  0.4941700000000  0.4326050000000 1.0
C      1  0.4674250000000  0.5019910000000  0.5685010000000 1.0
C      1  0.5345630000000  0.5026290000000  0.4329740000000 1.0
C      1  0.5360500000000  0.4938570000000  0.5687960000000 1.0
C      1  0.5952870000000  0.4953520000000  0.4929380000000 1.0
C      1  0.4079790000000  0.5035870000000  0.4934020000000 1.0
END
