TITL C-2441163-1170-59 0.120209793257733 125000 -19226.1568581329 0 0 149 (C1) n - 1
REM
REM in /home/bkarasulu/work/CARBON/AIRSS/Generating-Clusters/ReaxFF-fromJPCA2015/Units_Real/with-SteepDescent/Higher-Symm
REM
REM
REM
REM
REM
REM ./C.cell (1df0a924f5614ab8850e4351716899ee)
REM
REM compiler GCC version 9.2.1 20190827 (Red Hat 9.2.1-1)
REM options -cpp -mtune=generic -march=x86-64 -g -O0 -fpre-include=/usr/include/finclude/math-vector-fortran.h
REM seed -1774047168 -846071858 -1723002473 1107990595 661600577 -943092827 658559087 -339838820 -817604658 936407539 1142217613 -139946963 -1891820716 -1941980515 -45266282 1160435983 -90049772 1711820664 -1050124071 -231595880 -1073940964 -1964527342 -1327608072 1940858348 -538711382 386929358 1291627716 2130203338 -144502894 1435955838 1239391512 1713595036 1408657045
REM
CELL 1.54180   50.00000   50.00000   50.00000   90.00000   90.00000   90.00000
LATT -1
SFAC C  
C      1  0.5851920000000  0.5044920000000  0.4429860000000 1.0
C      1  0.4166430000000  0.5010230000000  0.5537390000000 1.0
C      1  0.5875330000000  0.5089760000000  0.5550280000000 1.0
C      1  0.4124860000000  0.4906390000000  0.4469800000000 1.0
C      1  0.5102210000000  0.5570500000000  0.4335610000000 1.0
C      1  0.4832060000000  0.4397360000000  0.5779740000000 1.0
C      1  0.5468380000000  0.4068610000000  0.5233530000000 1.0
C      1  0.4526670000000  0.5897550000000  0.4790000000000 1.0
C      1  0.4920970000000  0.4627200000000  0.5938230000000 1.0
C      1  0.5058090000000  0.5373030000000  0.4115770000000 1.0
C      1  0.4063900000000  0.4650050000000  0.4593860000000 1.0
C      1  0.5931600000000  0.5346670000000  0.5418460000000 1.0
C      1  0.4116420000000  0.5368150000000  0.5191050000000 1.0
C      1  0.5901310000000  0.4723130000000  0.4839710000000 1.0
C      1  0.4472090000000  0.5678900000000  0.5121190000000 1.0
C      1  0.5506260000000  0.4306710000000  0.4896370000000 1.0
C      1  0.5540330000000  0.5437910000000  0.5716640000000 1.0
C      1  0.4458880000000  0.4563410000000  0.4298050000000 1.0
C      1  0.5447130000000  0.5159590000000  0.4197980000000 1.0
C      1  0.4539810000000  0.4803190000000  0.5834670000000 1.0
C      1  0.5264350000000  0.5567710000000  0.5745230000000 1.0
C      1  0.4721270000000  0.4423710000000  0.4257080000000 1.0
C      1  0.4858990000000  0.5052440000000  0.4503140000000 1.0
C      1  0.4996360000000  0.4781230000000  0.5458900000000 1.0
C      1  0.5674170000000  0.4714020000000  0.5593620000000 1.0
C      1  0.4368480000000  0.5270480000000  0.4417050000000 1.0
C      1  0.5060940000000  0.5266960000000  0.4601240000000 1.0
C      1  0.4942510000000  0.4606670000000  0.5227980000000 1.0
C      1  0.5598680000000  0.4302540000000  0.5345510000000 1.0
C      1  0.4342460000000  0.5719730000000  0.4629520000000 1.0
C      1  0.5389850000000  0.5759950000000  0.4670600000000 1.0
C      1  0.4583450000000  0.4268720000000  0.5317410000000 1.0
C      1  0.5920080000000  0.4477690000000  0.4968180000000 1.0
C      1  0.4221010000000  0.5549380000000  0.4835670000000 1.0
C      1  0.4259040000000  0.4670930000000  0.5473930000000 1.0
C      1  0.5728080000000  0.5273700000000  0.4534710000000 1.0
C      1  0.5388880000000  0.5310830000000  0.4912700000000 1.0
C      1  0.4591610000000  0.4663770000000  0.5076150000000 1.0
C      1  0.5634670000000  0.5729580000000  0.5143840000000 1.0
C      1  0.4386990000000  0.4253030000000  0.4804110000000 1.0
C      1  0.4955810000000  0.5960090000000  0.4493790000000 1.0
C      1  0.5024460000000  0.4051790000000  0.5496120000000 1.0
C      1  0.5240040000000  0.5792280000000  0.5541630000000 1.0
C      1  0.4754790000000  0.4192970000000  0.4452340000000 1.0
C      1  0.5518120000000  0.5126890000000  0.5284620000000 1.0
C      1  0.4520380000000  0.4948920000000  0.4793900000000 1.0
C      1  0.5150540000000  0.4291310000000  0.4691510000000 1.0
C      1  0.4836390000000  0.5713680000000  0.5284410000000 1.0
C      1  0.5362830000000  0.4371810000000  0.4472560000000 1.0
C      1  0.4647410000000  0.5615110000000  0.5529760000000 1.0
C      1  0.4906970000000  0.5758750000000  0.4286910000000 1.0
C      1  0.5073670000000  0.4245060000000  0.5721570000000 1.0
C      1  0.4256740000000  0.4991980000000  0.4884530000000 1.0
C      1  0.5732970000000  0.5030460000000  0.5135640000000 1.0
C      1  0.4359130000000  0.4291350000000  0.5087740000000 1.0
C      1  0.5608930000000  0.5719420000000  0.4856750000000 1.0
C      1  0.5407560000000  0.5851560000000  0.5301190000000 1.0
C      1  0.4632260000000  0.4129840000000  0.4714090000000 1.0
C      1  0.5559450000000  0.4447710000000  0.5596930000000 1.0
C      1  0.4432500000000  0.5561460000000  0.4396910000000 1.0
C      1  0.4820090000000  0.4060830000000  0.5241890000000 1.0
C      1  0.5149540000000  0.5919960000000  0.4718330000000 1.0
C      1  0.5385170000000  0.4663980000000  0.5258030000000 1.0
C      1  0.4692960000000  0.5401910000000  0.4761170000000 1.0
C      1  0.4690850000000  0.4956510000000  0.5042170000000 1.0
C      1  0.5267250000000  0.5007600000000  0.4979410000000 1.0
C      1  0.5149330000000  0.4771900000000  0.4341030000000 1.0
C      1  0.4844510000000  0.5219590000000  0.5694410000000 1.0
C      1  0.4484460000000  0.5477550000000  0.4936900000000 1.0
C      1  0.5560530000000  0.4485970000000  0.5122370000000 1.0
C      1  0.4871450000000  0.4892690000000  0.4254520000000 1.0
C      1  0.5115230000000  0.5133970000000  0.5700030000000 1.0
C      1  0.4968050000000  0.5888260000000  0.5495840000000 1.0
C      1  0.5028770000000  0.4109000000000  0.4489550000000 1.0
C      1  0.5649420000000  0.5474100000000  0.4979590000000 1.0
C      1  0.4316110000000  0.4570460000000  0.5050960000000 1.0
C      1  0.4945530000000  0.4515870000000  0.4101520000000 1.0
C      1  0.5050990000000  0.5474890000000  0.5915530000000 1.0
C      1  0.4651770000000  0.5075340000000  0.5564990000000 1.0
C      1  0.5374610000000  0.4945880000000  0.4389790000000 1.0
C      1  0.4947080000000  0.5506510000000  0.4697870000000 1.0
C      1  0.5168390000000  0.4562800000000  0.5388850000000 1.0
C      1  0.4960230000000  0.4892420000000  0.4691880000000 1.0
C      1  0.5087070000000  0.5066420000000  0.5417270000000 1.0
C      1  0.4790740000000  0.4024920000000  0.4939100000000 1.0
C      1  0.5204140000000  0.5934340000000  0.5133600000000 1.0
C      1  0.4668010000000  0.5594520000000  0.4236770000000 1.0
C      1  0.5312850000000  0.4415160000000  0.5762110000000 1.0
C      1  0.5154650000000  0.4713140000000  0.4660040000000 1.0
C      1  0.4897250000000  0.5260760000000  0.5262670000000 1.0
C      1  0.4148040000000  0.5141520000000  0.4655510000000 1.0
C      1  0.5836100000000  0.4844660000000  0.5350670000000 1.0
C      1  0.5389650000000  0.4843640000000  0.4777010000000 1.0
C      1  0.4633000000000  0.5130770000000  0.5279540000000 1.0
C      1  0.4245850000000  0.5616400000000  0.5288690000000 1.0
C      1  0.5752790000000  0.4348790000000  0.4752630000000 1.0
C      1  0.4781570000000  0.5380310000000  0.5939390000000 1.0
C      1  0.5208320000000  0.4614080000000  0.4077620000000 1.0
C      1  0.4077650000000  0.4815410000000  0.5339360000000 1.0
C      1  0.5939980000000  0.5182780000000  0.4669600000000 1.0
C      1  0.4046350000000  0.5329310000000  0.4901830000000 1.0
C      1  0.5982590000000  0.4709530000000  0.5119310000000 1.0
C      1  0.4678370000000  0.5890430000000  0.5079920000000 1.0
C      1  0.5317550000000  0.4085840000000  0.4950840000000 1.0
C      1  0.5206570000000  0.4651940000000  0.5895990000000 1.0
C      1  0.4775140000000  0.5361960000000  0.4088600000000 1.0
C      1  0.5623570000000  0.4504500000000  0.4538550000000 1.0
C      1  0.4380790000000  0.5479360000000  0.5502060000000 1.0
C      1  0.5279180000000  0.4140630000000  0.4309010000000 1.0
C      1  0.4726660000000  0.5851200000000  0.5687690000000 1.0
C      1  0.6092710000000  0.5331360000000  0.5177830000000 1.0
C      1  0.3896510000000  0.4656410000000  0.4820650000000 1.0
C      1  0.5332550000000  0.4944700000000  0.5247070000000 1.0
C      1  0.4600560000000  0.5168360000000  0.4603400000000 1.0
C      1  0.4330360000000  0.4833570000000  0.4271710000000 1.0
C      1  0.5670110000000  0.5166570000000  0.5738890000000 1.0
C      1  0.4431090000000  0.5086890000000  0.4182020000000 1.0
C      1  0.5556310000000  0.4901590000000  0.5783810000000 1.0
C      1  0.4318270000000  0.5221980000000  0.5356660000000 1.0
C      1  0.5645860000000  0.4751110000000  0.4691950000000 1.0
C      1  0.5658340000000  0.5508530000000  0.5459570000000 1.0
C      1  0.4356330000000  0.4496380000000  0.4575390000000 1.0
C      1  0.5336260000000  0.5314510000000  0.4627060000000 1.0
C      1  0.4692560000000  0.4530590000000  0.5282110000000 1.0
C      1  0.4435860000000  0.4589120000000  0.5668320000000 1.0
C      1  0.5527750000000  0.5399210000000  0.4380590000000 1.0
C      1  0.5881230000000  0.5231300000000  0.4963880000000 1.0
C      1  0.4116670000000  0.4781810000000  0.5039430000000 1.0
C      1  0.5245200000000  0.5474810000000  0.5111160000000 1.0
C      1  0.4748640000000  0.4536690000000  0.4850510000000 1.0
C      1  0.5635690000000  0.4942310000000  0.4273120000000 1.0
C      1  0.4405800000000  0.5029270000000  0.5715130000000 1.0
C      1  0.5197510000000  0.5135310000000  0.4011490000000 1.0
C      1  0.4776540000000  0.4872110000000  0.6019550000000 1.0
C      1  0.4590330000000  0.4355760000000  0.5619690000000 1.0
C      1  0.5374190000000  0.5648460000000  0.4399750000000 1.0
C      1  0.4704230000000  0.5076850000000  0.4092880000000 1.0
C      1  0.5272910000000  0.4932540000000  0.5845950000000 1.0
C      1  0.5035480000000  0.4103170000000  0.5037650000000 1.0
C      1  0.4992800000000  0.5927880000000  0.4967020000000 1.0
C      1  0.5258400000000  0.4056680000000  0.5397140000000 1.0
C      1  0.4703630000000  0.5928730000000  0.4599640000000 1.0
C      1  0.4957800000000  0.5480690000000  0.5082950000000 1.0
C      1  0.5030810000000  0.4507690000000  0.4859240000000 1.0
C      1  0.4580750000000  0.4670720000000  0.4670470000000 1.0
C      1  0.5413210000000  0.5390580000000  0.5330110000000 1.0
C      1  0.4856900000000  0.5141570000000  0.6081100000000 1.0
C      1  0.5134420000000  0.4860910000000  0.3954400000000 1.0
C      1  0.4969590000000  0.4988480000000  0.4948650000000 1.0
END
