TITL C-2441154-10-312 0.0750204942762406 125000 -12002.7587882073 0 0 94 (C1) n - 1
REM
REM in /home/bkarasulu/work/CARBON/AIRSS/Generating-Clusters/ReaxFF-fromJPCA2015/Units_Real/with-SteepDescent/Higher-Symm
REM
REM
REM
REM
REM
REM ./C.cell (1df0a924f5614ab8850e4351716899ee)
REM
REM compiler GCC version 9.2.1 20190827 (Red Hat 9.2.1-1)
REM options -cpp -mtune=generic -march=x86-64 -g -O0 -fpre-include=/usr/include/finclude/math-vector-fortran.h
REM seed 691267058 -2134266426 -1286571777 -363400848 -1128434791 552553337 365303835 -1063558803 747212498 474298716 989129486 903276799 -937482648 -1942319468 -740903523 -1026701767 410698652 1683066851 -2057269181 573197559 1022459050 1547274963 1896480953 317426489 1525730965 -1086042958 1975563043 1935069968 -1771133955 160896876 1314035161 -911120650 914622763
REM
CELL 1.54180   50.00000   50.00000   50.00000   90.00000   90.00000   90.00000
LATT -1
SFAC C  
C      1  0.5289450000000  0.4681700000000  0.4433100000000 1.0
C      1  0.5290170000000  0.4658220000000  0.5608190000000 1.0
C      1  0.5274840000000  0.5630260000000  0.4989520000000 1.0
C      1  0.4518970000000  0.4574740000000  0.5226790000000 1.0
C      1  0.4561270000000  0.5379200000000  0.5306180000000 1.0
C      1  0.4483930000000  0.5030720000000  0.4562300000000 1.0
C      1  0.4688440000000  0.4271640000000  0.5407980000000 1.0
C      1  0.4670090000000  0.5731000000000  0.5423180000000 1.0
C      1  0.4677790000000  0.5005220000000  0.4145430000000 1.0
C      1  0.5736100000000  0.5055430000000  0.4702860000000 1.0
C      1  0.5767570000000  0.4815630000000  0.5099280000000 1.0
C      1  0.5757050000000  0.5100470000000  0.5163290000000 1.0
C      1  0.4935160000000  0.5110980000000  0.4489970000000 1.0
C      1  0.5019610000000  0.4472590000000  0.5078520000000 1.0
C      1  0.4989840000000  0.5362370000000  0.5438150000000 1.0
C      1  0.4397820000000  0.5665070000000  0.4609130000000 1.0
C      1  0.4426960000000  0.4303050000000  0.4565860000000 1.0
C      1  0.4405490000000  0.5018590000000  0.5790010000000 1.0
C      1  0.4791740000000  0.5257560000000  0.4271880000000 1.0
C      1  0.4717850000000  0.4360170000000  0.5129870000000 1.0
C      1  0.4710270000000  0.5447200000000  0.5518380000000 1.0
C      1  0.5031970000000  0.5003930000000  0.5783040000000 1.0
C      1  0.4997450000000  0.5628830000000  0.4630880000000 1.0
C      1  0.4986850000000  0.4412240000000  0.4602080000000 1.0
C      1  0.5265830000000  0.5151260000000  0.5060020000000 1.0
C      1  0.5208230000000  0.4963900000000  0.4850480000000 1.0
C      1  0.5120950000000  0.4717260000000  0.5222250000000 1.0
C      1  0.5301800000000  0.4914430000000  0.5796620000000 1.0
C      1  0.5261900000000  0.5740380000000  0.4695680000000 1.0
C      1  0.5268060000000  0.4378490000000  0.4520120000000 1.0
C      1  0.4586470000000  0.5370200000000  0.4898750000000 1.0
C      1  0.4569590000000  0.4639290000000  0.4716070000000 1.0
C      1  0.4619710000000  0.4919360000000  0.5411630000000 1.0
C      1  0.4403440000000  0.4832150000000  0.5237060000000 1.0
C      1  0.4342330000000  0.5249720000000  0.4999730000000 1.0
C      1  0.4452060000000  0.4865270000000  0.4780700000000 1.0
C      1  0.4487810000000  0.4877420000000  0.4316560000000 1.0
C      1  0.4512920000000  0.4478580000000  0.5503000000000 1.0
C      1  0.4460240000000  0.5636200000000  0.5237350000000 1.0
C      1  0.4934230000000  0.4865550000000  0.4134830000000 1.0
C      1  0.4950260000000  0.4300990000000  0.5537670000000 1.0
C      1  0.4916850000000  0.5777610000000  0.5280290000000 1.0
C      1  0.5358020000000  0.4784720000000  0.5351270000000 1.0
C      1  0.5404130000000  0.5372140000000  0.4968100000000 1.0
C      1  0.5375010000000  0.4813380000000  0.4677810000000 1.0
C      1  0.5643880000000  0.4706170000000  0.5337660000000 1.0
C      1  0.5656480000000  0.5372340000000  0.5089460000000 1.0
C      1  0.5664760000000  0.4790000000000  0.4661110000000 1.0
C      1  0.4565030000000  0.4594780000000  0.4430680000000 1.0
C      1  0.4577670000000  0.4732770000000  0.5649460000000 1.0
C      1  0.4563150000000  0.5669690000000  0.4905390000000 1.0
C      1  0.4977700000000  0.5588470000000  0.5052660000000 1.0
C      1  0.5001740000000  0.4787040000000  0.4406720000000 1.0
C      1  0.5008990000000  0.4576690000000  0.5615920000000 1.0
C      1  0.4572200000000  0.5487300000000  0.4463210000000 1.0
C      1  0.4495620000000  0.4393020000000  0.4850010000000 1.0
C      1  0.4570750000000  0.5140330000000  0.5618580000000 1.0
C      1  0.4274690000000  0.4504570000000  0.5036630000000 1.0
C      1  0.4296640000000  0.5377170000000  0.5253060000000 1.0
C      1  0.4398260000000  0.5285260000000  0.4483850000000 1.0
C      1  0.5550030000000  0.5272060000000  0.5542100000000 1.0
C      1  0.5520280000000  0.5379380000000  0.4481490000000 1.0
C      1  0.5552880000000  0.4400230000000  0.4965350000000 1.0
C      1  0.5149960000000  0.5752340000000  0.5462430000000 1.0
C      1  0.5149230000000  0.5066060000000  0.4106830000000 1.0
C      1  0.5164260000000  0.4160160000000  0.5387000000000 1.0
C      1  0.4929550000000  0.4887400000000  0.4890310000000 1.0
C      1  0.4902460000000  0.4918310000000  0.5205090000000 1.0
C      1  0.4859410000000  0.5288720000000  0.4942540000000 1.0
C      1  0.5116070000000  0.5581340000000  0.4331800000000 1.0
C      1  0.5160660000000  0.4128460000000  0.4821600000000 1.0
C      1  0.5135280000000  0.5292150000000  0.5829310000000 1.0
C      1  0.5494920000000  0.5127200000000  0.4383880000000 1.0
C      1  0.5544420000000  0.4424030000000  0.5255710000000 1.0
C      1  0.5555770000000  0.5495940000000  0.5343850000000 1.0
C      1  0.5369800000000  0.5702270000000  0.5287090000000 1.0
C      1  0.5373190000000  0.4933250000000  0.4235260000000 1.0
C      1  0.5361490000000  0.4351610000000  0.5459230000000 1.0
C      1  0.4991060000000  0.5301000000000  0.4689940000000 1.0
C      1  0.4972250000000  0.4609750000000  0.4824310000000 1.0
C      1  0.5082020000000  0.5149340000000  0.5275630000000 1.0
C      1  0.5686500000000  0.5056670000000  0.5423430000000 1.0
C      1  0.5696560000000  0.5326080000000  0.4710630000000 1.0
C      1  0.5714030000000  0.4623390000000  0.4893970000000 1.0
C      1  0.5401330000000  0.4253190000000  0.4746470000000 1.0
C      1  0.5407290000000  0.5190040000000  0.5795660000000 1.0
C      1  0.5369440000000  0.5643870000000  0.4447840000000 1.0
C      1  0.4848570000000  0.4550560000000  0.4381280000000 1.0
C      1  0.4856320000000  0.4774080000000  0.5732720000000 1.0
C      1  0.4842100000000  0.5750070000000  0.4871730000000 1.0
C      1  0.5121500000000  0.4166570000000  0.5093670000000 1.0
C      1  0.5108150000000  0.5522110000000  0.5648820000000 1.0
C      1  0.5062280000000  0.5348010000000  0.4163130000000 1.0
C      1  0.4356980000000  0.4971880000000  0.5001350000000 1.0
END
