TITL C-2441156-4686-202 0.0683263116494331 125000 -15879.1808459296 0 0 121 (C1) n - 1
REM
REM in /home/bkarasulu/work/CARBON/AIRSS/Generating-Clusters/ReaxFF-fromJPCA2015/Units_Real/with-SteepDescent/Higher-Symm
REM
REM
REM
REM
REM
REM ./C.cell (1df0a924f5614ab8850e4351716899ee)
REM
REM compiler GCC version 9.2.1 20190827 (Red Hat 9.2.1-1)
REM options -cpp -mtune=generic -march=x86-64 -g -O0 -fpre-include=/usr/include/finclude/math-vector-fortran.h
REM seed -1194159060 58039599 -1559174743 -1700471687 -90681453 -1462824773 -360208905 1301057546 2046395996 -810973914 -1582705553 1830659056 -484915536 -266867570 -1678677557 -686127606 -1858494552 -1524238908 -1011126530 603674406 -396340538 939184620 -989360398 475176597 -508524699 -149268969 -1132400316 -237932927 178685081 1016584069 1730650493 -285044209 1657939285
REM
CELL 1.54180   50.00000   50.00000   50.00000   90.00000   90.00000   90.00000
LATT -1
SFAC C  
C      1  0.5814920000000  0.5285260000000  0.4717990000000 1.0
C      1  0.4323940000000  0.5306410000000  0.4429710000000 1.0
C      1  0.4827850000000  0.5292660000000  0.5861020000000 1.0
C      1  0.4244770000000  0.4632370000000  0.5050670000000 1.0
C      1  0.5420860000000  0.4615340000000  0.5677760000000 1.0
C      1  0.5346120000000  0.4629090000000  0.4335430000000 1.0
C      1  0.4609280000000  0.5253330000000  0.5668770000000 1.0
C      1  0.5776060000000  0.5238570000000  0.4995860000000 1.0
C      1  0.4592180000000  0.5235710000000  0.4359370000000 1.0
C      1  0.5936480000000  0.4890250000000  0.5276000000000 1.0
C      1  0.4754360000000  0.4899410000000  0.4072410000000 1.0
C      1  0.4324550000000  0.4902600000000  0.5705350000000 1.0
C      1  0.5314970000000  0.4544610000000  0.4779330000000 1.0
C      1  0.4614120000000  0.4502620000000  0.4867740000000 1.0
C      1  0.5022860000000  0.4518030000000  0.5399940000000 1.0
C      1  0.4791290000000  0.5849250000000  0.4945280000000 1.0
C      1  0.5155240000000  0.5813800000000  0.5194010000000 1.0
C      1  0.5044790000000  0.5912590000000  0.4802700000000 1.0
C      1  0.5526390000000  0.4410750000000  0.4390760000000 1.0
C      1  0.4237000000000  0.4398620000000  0.4807600000000 1.0
C      1  0.5211640000000  0.4360610000000  0.5739740000000 1.0
C      1  0.5282680000000  0.5196850000000  0.5894160000000 1.0
C      1  0.5604140000000  0.5196090000000  0.4305210000000 1.0
C      1  0.4066110000000  0.5216680000000  0.4812890000000 1.0
C      1  0.5194880000000  0.5129080000000  0.5260260000000 1.0
C      1  0.5126500000000  0.5156710000000  0.4718150000000 1.0
C      1  0.4710070000000  0.5122620000000  0.5072810000000 1.0
C      1  0.4957860000000  0.5544630000000  0.5793280000000 1.0
C      1  0.5586950000000  0.5462800000000  0.4669960000000 1.0
C      1  0.4307640000000  0.5575370000000  0.4543570000000 1.0
C      1  0.4870990000000  0.4874860000000  0.5089330000000 1.0
C      1  0.5178530000000  0.4869370000000  0.5115780000000 1.0
C      1  0.5045630000000  0.4908340000000  0.4844760000000 1.0
C      1  0.4998370000000  0.4824140000000  0.4156160000000 1.0
C      1  0.4306750000000  0.4832850000000  0.5437550000000 1.0
C      1  0.5657600000000  0.4869510000000  0.5340920000000 1.0
C      1  0.5152750000000  0.4420060000000  0.5127640000000 1.0
C      1  0.5014990000000  0.4518110000000  0.4721400000000 1.0
C      1  0.4743490000000  0.4429030000000  0.5100830000000 1.0
C      1  0.4758390000000  0.4608750000000  0.5328340000000 1.0
C      1  0.5396540000000  0.4583330000000  0.5097620000000 1.0
C      1  0.4840110000000  0.4451720000000  0.4494970000000 1.0
C      1  0.5119690000000  0.5076950000000  0.4105210000000 1.0
C      1  0.4182210000000  0.5069570000000  0.5510290000000 1.0
C      1  0.5808220000000  0.5065900000000  0.5471690000000 1.0
C      1  0.5065600000000  0.5310870000000  0.4242230000000 1.0
C      1  0.4246630000000  0.5271720000000  0.5317540000000 1.0
C      1  0.5654850000000  0.5307720000000  0.5480260000000 1.0
C      1  0.4571490000000  0.4793870000000  0.4257230000000 1.0
C      1  0.4599910000000  0.4818150000000  0.5747150000000 1.0
C      1  0.5866000000000  0.4796750000000  0.5001990000000 1.0
C      1  0.5731390000000  0.4545610000000  0.4581880000000 1.0
C      1  0.4326580000000  0.4539960000000  0.4571210000000 1.0
C      1  0.4964630000000  0.4506300000000  0.5822170000000 1.0
C      1  0.4576460000000  0.5719530000000  0.5445050000000 1.0
C      1  0.5651980000000  0.5744100000000  0.5131580000000 1.0
C      1  0.4797240000000  0.5731870000000  0.4363230000000 1.0
C      1  0.4469560000000  0.4749100000000  0.4910100000000 1.0
C      1  0.5175650000000  0.4729040000000  0.5546840000000 1.0
C      1  0.5353500000000  0.4800160000000  0.4628370000000 1.0
C      1  0.5421750000000  0.5891340000000  0.5305410000000 1.0
C      1  0.5045010000000  0.5885280000000  0.4503370000000 1.0
C      1  0.4585270000000  0.5847380000000  0.5173400000000 1.0
C      1  0.4121040000000  0.5128560000000  0.5089280000000 1.0
C      1  0.5513430000000  0.5103380000000  0.5747650000000 1.0
C      1  0.5415090000000  0.5041500000000  0.4142480000000 1.0
C      1  0.5158180000000  0.4146700000000  0.4931350000000 1.0
C      1  0.4878410000000  0.4073020000000  0.4918680000000 1.0
C      1  0.4841560000000  0.4122750000000  0.5198400000000 1.0
C      1  0.4508660000000  0.5414650000000  0.5433110000000 1.0
C      1  0.5619660000000  0.5406350000000  0.5193690000000 1.0
C      1  0.4832310000000  0.5396740000000  0.4376260000000 1.0
C      1  0.5339890000000  0.5324590000000  0.5100770000000 1.0
C      1  0.4867590000000  0.5349960000000  0.4701710000000 1.0
C      1  0.4787790000000  0.5354200000000  0.5264880000000 1.0
C      1  0.5120350000000  0.4563880000000  0.4179400000000 1.0
C      1  0.4310600000000  0.4575900000000  0.5336710000000 1.0
C      1  0.5613770000000  0.4590650000000  0.5465400000000 1.0
C      1  0.5245020000000  0.5732510000000  0.4914610000000 1.0
C      1  0.4737000000000  0.5624300000000  0.4774970000000 1.0
C      1  0.4966180000000  0.5628820000000  0.5326430000000 1.0
C      1  0.5298290000000  0.4235090000000  0.5490290000000 1.0
C      1  0.5296570000000  0.4230940000000  0.4440230000000 1.0
C      1  0.4340800000000  0.4130330000000  0.4894950000000 1.0
C      1  0.5383340000000  0.5743380000000  0.5532460000000 1.0
C      1  0.5233780000000  0.5721050000000  0.4409400000000 1.0
C      1  0.4393230000000  0.5665090000000  0.5081490000000 1.0
C      1  0.5467300000000  0.4770870000000  0.4183390000000 1.0
C      1  0.4107680000000  0.4863910000000  0.5015460000000 1.0
C      1  0.5468280000000  0.4840960000000  0.5807900000000 1.0
C      1  0.5042980000000  0.4330740000000  0.4326910000000 1.0
C      1  0.4545030000000  0.4479920000000  0.5481640000000 1.0
C      1  0.5489640000000  0.4395020000000  0.5311020000000 1.0
C      1  0.5768670000000  0.5083550000000  0.4515820000000 1.0
C      1  0.4192910000000  0.5099130000000  0.4584090000000 1.0
C      1  0.5018600000000  0.5066710000000  0.5909750000000 1.0
C      1  0.4844490000000  0.5713350000000  0.5575480000000 1.0
C      1  0.5521740000000  0.5706800000000  0.4847700000000 1.0
C      1  0.4556160000000  0.5723510000000  0.4569470000000 1.0
C      1  0.4622070000000  0.5221130000000  0.4819270000000 1.0
C      1  0.4950620000000  0.5160690000000  0.5421210000000 1.0
C      1  0.5379350000000  0.5241630000000  0.4828050000000 1.0
C      1  0.5239550000000  0.5471570000000  0.5802470000000 1.0
C      1  0.5543730000000  0.5461520000000  0.4379260000000 1.0
C      1  0.4177500000000  0.5490980000000  0.4793830000000 1.0
C      1  0.4729520000000  0.5011420000000  0.5560350000000 1.0
C      1  0.5642510000000  0.4981930000000  0.5004680000000 1.0
C      1  0.4603910000000  0.4978970000000  0.4487830000000 1.0
C      1  0.4372390000000  0.4859100000000  0.4636410000000 1.0
C      1  0.5032570000000  0.4799470000000  0.5792630000000 1.0
C      1  0.5639850000000  0.4830650000000  0.4596640000000 1.0
C      1  0.5340650000000  0.4228820000000  0.4724380000000 1.0
C      1  0.4617210000000  0.4213640000000  0.4803700000000 1.0
C      1  0.5016720000000  0.4192770000000  0.5418100000000 1.0
C      1  0.5437000000000  0.5480740000000  0.5593600000000 1.0
C      1  0.5287790000000  0.5497060000000  0.4267990000000 1.0
C      1  0.4405660000000  0.5405470000000  0.4963370000000 1.0
C      1  0.4673130000000  0.4535550000000  0.5740080000000 1.0
C      1  0.5843250000000  0.4530090000000  0.4851220000000 1.0
C      1  0.4563300000000  0.4533060000000  0.4411200000000 1.0
C      1  0.4972320000000  0.4509200000000  0.4982480000000 1.0
END
