TITL C-2441158-471-425 0.0148656140335527 125000 -10674.9312576671 0 0 75 (C1) n - 1
REM
REM in /home/bkarasulu/work/CARBON/AIRSS/Generating-Clusters/ReaxFF-fromJPCA2015/Units_Real/with-SteepDescent/Higher-Symm
REM
REM
REM
REM
REM
REM ./C.cell (1df0a924f5614ab8850e4351716899ee)
REM
REM compiler GCC version 9.2.1 20190827 (Red Hat 9.2.1-1)
REM options -cpp -mtune=generic -march=x86-64 -g -O0 -fpre-include=/usr/include/finclude/math-vector-fortran.h
REM seed 522805853 545678352 1194795437 1382819701 -698650553 -1619351272 439366894 498338855 -1668458257 1811105383 1661329323 227167338 -1388997874 -673776752 -1712173801 1323934792 579373937 -1518801520 -1222988782 -985217180 -287166584 149647123 89641793 1388158284 1345740412 -2098334288 -1327666779 1511476730 -514974833 785790449 -1259578294 -1509261098 337026670
REM
CELL 1.54180   50.00000   50.00000   50.00000   90.00000   90.00000   90.00000
LATT -1
SFAC C  
C      1  0.5287210000000  0.4738000000000  0.5155880000000 1.0
C      1  0.5283860000000  0.4995840000000  0.4695660000000 1.0
C      1  0.5286420000000  0.5265980000000  0.5148270000000 1.0
C      1  0.5286050000000  0.4738220000000  0.4844760000000 1.0
C      1  0.5283610000000  0.4995780000000  0.5304620000000 1.0
C      1  0.5286670000000  0.5266690000000  0.4851760000000 1.0
C      1  0.4762520000000  0.5466640000000  0.4474340000000 1.0
C      1  0.4763740000000  0.5228460000000  0.5668590000000 1.0
C      1  0.4758120000000  0.4315860000000  0.4859180000000 1.0
C      1  0.4762370000000  0.5466220000000  0.5524830000000 1.0
C      1  0.4763810000000  0.5228680000000  0.4332410000000 1.0
C      1  0.4757510000000  0.4315750000000  0.5142900000000 1.0
C      1  0.5707210000000  0.4741640000000  0.4852930000000 1.0
C      1  0.5706350000000  0.5257410000000  0.4848450000000 1.0
C      1  0.5706660000000  0.5003550000000  0.5298490000000 1.0
C      1  0.5707290000000  0.4741600000000  0.5146940000000 1.0
C      1  0.5706330000000  0.5257400000000  0.5151700000000 1.0
C      1  0.5706670000000  0.5003630000000  0.4701470000000 1.0
C      1  0.4589080000000  0.5707740000000  0.5136210000000 1.0
C      1  0.4603360000000  0.4528870000000  0.5561450000000 1.0
C      1  0.4560420000000  0.4785170000000  0.4342710000000 1.0
C      1  0.4581510000000  0.5703830000000  0.4859620000000 1.0
C      1  0.4603980000000  0.4529080000000  0.4437990000000 1.0
C      1  0.4559880000000  0.4785160000000  0.5656670000000 1.0
C      1  0.5045810000000  0.4577830000000  0.5270220000000 1.0
C      1  0.5039250000000  0.4969580000000  0.4494540000000 1.0
C      1  0.5040670000000  0.5447910000000  0.5227380000000 1.0
C      1  0.5041630000000  0.4580250000000  0.4731300000000 1.0
C      1  0.5039430000000  0.4970050000000  0.5505400000000 1.0
C      1  0.5042920000000  0.5449600000000  0.4772400000000 1.0
C      1  0.4432300000000  0.4732540000000  0.4855890000000 1.0
C      1  0.4420360000000  0.5258520000000  0.4848340000000 1.0
C      1  0.4415950000000  0.5004680000000  0.5296850000000 1.0
C      1  0.4426700000000  0.4730350000000  0.5146370000000 1.0
C      1  0.4424440000000  0.5258230000000  0.5150710000000 1.0
C      1  0.4414390000000  0.5005430000000  0.4703760000000 1.0
C      1  0.5501120000000  0.5428170000000  0.4725960000000 1.0
C      1  0.5499980000000  0.5023240000000  0.5506470000000 1.0
C      1  0.5502140000000  0.4550390000000  0.4766150000000 1.0
C      1  0.5500650000000  0.5428010000000  0.5273540000000 1.0
C      1  0.5499900000000  0.5023070000000  0.4493520000000 1.0
C      1  0.5502850000000  0.4549440000000  0.5233770000000 1.0
C      1  0.4556940000000  0.4495970000000  0.4729740000000 1.0
C      1  0.4542540000000  0.5483300000000  0.4687890000000 1.0
C      1  0.4529480000000  0.5047590000000  0.5581730000000 1.0
C      1  0.4552080000000  0.4492520000000  0.5270980000000 1.0
C      1  0.4549140000000  0.5482370000000  0.5306730000000 1.0
C      1  0.4529760000000  0.5046940000000  0.4419610000000 1.0
C      1  0.5048350000000  0.5546310000000  0.5494030000000 1.0
C      1  0.5046820000000  0.4299130000000  0.5219500000000 1.0
C      1  0.5046240000000  0.5151420000000  0.4279720000000 1.0
C      1  0.5048200000000  0.5546900000000  0.4506230000000 1.0
C      1  0.5046820000000  0.4299960000000  0.4781020000000 1.0
C      1  0.5046350000000  0.5151800000000  0.5720520000000 1.0
C      1  0.4839720000000  0.4757260000000  0.4859700000000 1.0
C      1  0.4835800000000  0.5240200000000  0.4866780000000 1.0
C      1  0.4820330000000  0.5001780000000  0.5282670000000 1.0
C      1  0.4840290000000  0.4762770000000  0.5132810000000 1.0
C      1  0.4838440000000  0.5244790000000  0.5136570000000 1.0
C      1  0.4820980000000  0.4997710000000  0.4717070000000 1.0
C      1  0.5085060000000  0.4521490000000  0.5550300000000 1.0
C      1  0.5062890000000  0.4747630000000  0.4307410000000 1.0
C      1  0.5072100000000  0.5718210000000  0.5132460000000 1.0
C      1  0.5084030000000  0.4522900000000  0.4450860000000 1.0
C      1  0.5062150000000  0.4747870000000  0.5692160000000 1.0
C      1  0.5072440000000  0.5720680000000  0.4868060000000 1.0
C      1  0.5334570000000  0.5216060000000  0.5661250000000 1.0
C      1  0.5337270000000  0.4318800000000  0.4856910000000 1.0
C      1  0.5335270000000  0.5462570000000  0.4481220000000 1.0
C      1  0.5334420000000  0.5215970000000  0.4338590000000 1.0
C      1  0.5337480000000  0.4318050000000  0.5143000000000 1.0
C      1  0.5335200000000  0.5462640000000  0.5518570000000 1.0
C      1  0.4863850000000  0.4533830000000  0.5717500000000 1.0
C      1  0.4864290000000  0.4533770000000  0.4281880000000 1.0
C      1  0.4858220000000  0.5856280000000  0.5006160000000 1.0
END
