TITL C-2441157-2117-173 0.0894613097850549 125000 -21720.4150796857 0 0 164 (C1) n - 1
REM
REM in /home/bkarasulu/work/CARBON/AIRSS/Generating-Clusters/ReaxFF-fromJPCA2015/Units_Real/with-SteepDescent/Higher-Symm
REM
REM
REM
REM
REM
REM ./C.cell (1df0a924f5614ab8850e4351716899ee)
REM
REM compiler GCC version 9.2.1 20190827 (Red Hat 9.2.1-1)
REM options -cpp -mtune=generic -march=x86-64 -g -O0 -fpre-include=/usr/include/finclude/math-vector-fortran.h
REM seed 1346262517 969692513 1823064006 907293246 558332917 -510331634 -929665325 1617913633 1033316753 1353726316 50205998 -1733397718 -649627422 -1064779880 451526009 -356757778 -328906176 1680613612 -424163092 -433170952 -347875432 -868050464 1443959091 872278947 -1529680658 111923440 -173351695 666192925 -834247398 -736058328 689530607 500830104 1304615965
REM
CELL 1.54180   50.00000   50.00000   50.00000   90.00000   90.00000   90.00000
LATT -1
SFAC C  
C      1  0.4281530000000  0.5081790000000  0.5836630000000 1.0
C      1  0.4705610000000  0.5650790000000  0.5808190000000 1.0
C      1  0.5405180000000  0.5564660000000  0.5896530000000 1.0
C      1  0.5712360000000  0.4936540000000  0.5905350000000 1.0
C      1  0.5297270000000  0.4372140000000  0.5909430000000 1.0
C      1  0.4596280000000  0.4441490000000  0.5906060000000 1.0
C      1  0.4294300000000  0.4932300000000  0.4102520000000 1.0
C      1  0.4707380000000  0.4364610000000  0.4097420000000 1.0
C      1  0.5405980000000  0.4437880000000  0.4105980000000 1.0
C      1  0.5717100000000  0.5073390000000  0.4091260000000 1.0
C      1  0.5294980000000  0.5646680000000  0.4079920000000 1.0
C      1  0.4590110000000  0.5574900000000  0.4104970000000 1.0
C      1  0.4897630000000  0.4387190000000  0.5118770000000 1.0
C      1  0.4474050000000  0.4767530000000  0.5136990000000 1.0
C      1  0.4491590000000  0.5375120000000  0.5200920000000 1.0
C      1  0.5124990000000  0.5708140000000  0.5087420000000 1.0
C      1  0.5629760000000  0.5224140000000  0.5087790000000 1.0
C      1  0.5478270000000  0.4613840000000  0.5107510000000 1.0
C      1  0.4923270000000  0.5611590000000  0.4899210000000 1.0
C      1  0.4492290000000  0.5312640000000  0.4854310000000 1.0
C      1  0.4467370000000  0.4552550000000  0.4935930000000 1.0
C      1  0.5095020000000  0.4331310000000  0.4912270000000 1.0
C      1  0.5635730000000  0.4762440000000  0.4921900000000 1.0
C      1  0.5508570000000  0.5427230000000  0.4916690000000 1.0
C      1  0.5578770000000  0.5330310000000  0.5873430000000 1.0
C      1  0.5577370000000  0.4679530000000  0.5878680000000 1.0
C      1  0.5005210000000  0.4365030000000  0.5853660000000 1.0
C      1  0.4432690000000  0.4691740000000  0.5898750000000 1.0
C      1  0.4415430000000  0.5346920000000  0.5893130000000 1.0
C      1  0.4991500000000  0.5659930000000  0.5889480000000 1.0
C      1  0.5582400000000  0.4675130000000  0.4125210000000 1.0
C      1  0.5582660000000  0.5338160000000  0.4102170000000 1.0
C      1  0.5002700000000  0.5651710000000  0.4130960000000 1.0
C      1  0.4428190000000  0.5327950000000  0.4114120000000 1.0
C      1  0.4427310000000  0.4673310000000  0.4122830000000 1.0
C      1  0.4999130000000  0.4357590000000  0.4139220000000 1.0
C      1  0.4437380000000  0.5154980000000  0.5383550000000 1.0
C      1  0.4784850000000  0.5448290000000  0.5352590000000 1.0
C      1  0.5336140000000  0.5364520000000  0.5429380000000 1.0
C      1  0.5523270000000  0.4876670000000  0.5420240000000 1.0
C      1  0.5112250000000  0.4519970000000  0.5444110000000 1.0
C      1  0.4599660000000  0.4554950000000  0.5472020000000 1.0
C      1  0.4493480000000  0.4869360000000  0.4589250000000 1.0
C      1  0.4857830000000  0.4486530000000  0.4595090000000 1.0
C      1  0.5348210000000  0.4661650000000  0.4613810000000 1.0
C      1  0.5474270000000  0.5128900000000  0.4603790000000 1.0
C      1  0.5137220000000  0.5468330000000  0.4540570000000 1.0
C      1  0.4599850000000  0.5423750000000  0.4603180000000 1.0
C      1  0.5826500000000  0.4821010000000  0.4220590000000 1.0
C      1  0.5248630000000  0.4209200000000  0.4221740000000 1.0
C      1  0.4437710000000  0.4388050000000  0.4223060000000 1.0
C      1  0.4189350000000  0.5186900000000  0.4231440000000 1.0
C      1  0.4760630000000  0.5811770000000  0.4205880000000 1.0
C      1  0.5564680000000  0.5615390000000  0.4212900000000 1.0
C      1  0.5821330000000  0.5184370000000  0.5777970000000 1.0
C      1  0.5244890000000  0.5788490000000  0.5772550000000 1.0
C      1  0.4405430000000  0.5622210000000  0.5780280000000 1.0
C      1  0.4174310000000  0.4804320000000  0.5807120000000 1.0
C      1  0.4756200000000  0.4214970000000  0.5785840000000 1.0
C      1  0.5566970000000  0.4394860000000  0.5780370000000 1.0
C      1  0.5197780000000  0.5920970000000  0.5278100000000 1.0
C      1  0.5835730000000  0.5309320000000  0.5285880000000 1.0
C      1  0.5669520000000  0.4455680000000  0.5280360000000 1.0
C      1  0.4867870000000  0.4135960000000  0.5275630000000 1.0
C      1  0.4215310000000  0.4720070000000  0.5272440000000 1.0
C      1  0.4300930000000  0.5599120000000  0.5256060000000 1.0
C      1  0.5129260000000  0.4110760000000  0.4712370000000 1.0
C      1  0.5846020000000  0.4690930000000  0.4720280000000 1.0
C      1  0.5682850000000  0.5571190000000  0.4718910000000 1.0
C      1  0.4873540000000  0.5850730000000  0.4724380000000 1.0
C      1  0.4205230000000  0.5281620000000  0.4747940000000 1.0
C      1  0.4300760000000  0.4434310000000  0.4720410000000 1.0
C      1  0.4128190000000  0.4853400000000  0.5520620000000 1.0
C      1  0.4425040000000  0.5704350000000  0.5497600000000 1.0
C      1  0.5342100000000  0.5805490000000  0.5497670000000 1.0
C      1  0.5875250000000  0.5111990000000  0.5497660000000 1.0
C      1  0.5529220000000  0.4318290000000  0.5500360000000 1.0
C      1  0.4686000000000  0.4136350000000  0.5510390000000 1.0
C      1  0.4148210000000  0.5113370000000  0.4511360000000 1.0
C      1  0.4462660000000  0.4315260000000  0.4506220000000 1.0
C      1  0.5314190000000  0.4207260000000  0.4507210000000 1.0
C      1  0.5858940000000  0.4884820000000  0.4504400000000 1.0
C      1  0.5534910000000  0.5684290000000  0.4497480000000 1.0
C      1  0.4699980000000  0.5860360000000  0.4484670000000 1.0
C      1  0.4666060000000  0.5032020000000  0.4358650000000 1.0
C      1  0.4783740000000  0.5287750000000  0.4417130000000 1.0
C      1  0.5172850000000  0.5280480000000  0.4320860000000 1.0
C      1  0.5333080000000  0.5037500000000  0.4334390000000 1.0
C      1  0.5186300000000  0.4787180000000  0.4366590000000 1.0
C      1  0.4809750000000  0.4661230000000  0.4373690000000 1.0
C      1  0.4644090000000  0.5023520000000  0.5580060000000 1.0
C      1  0.4748150000000  0.4735360000000  0.5598360000000 1.0
C      1  0.5154030000000  0.4712840000000  0.5650680000000 1.0
C      1  0.5403740000000  0.5015390000000  0.5627240000000 1.0
C      1  0.5102860000000  0.5268670000000  0.5650800000000 1.0
C      1  0.4812310000000  0.5279180000000  0.5612470000000 1.0
C      1  0.5255710000000  0.4190240000000  0.5112310000000 1.0
C      1  0.4379280000000  0.4350460000000  0.5118750000000 1.0
C      1  0.3983100000000  0.5175240000000  0.5199090000000 1.0
C      1  0.4714650000000  0.5857970000000  0.5146840000000 1.0
C      1  0.5580290000000  0.5629940000000  0.5107110000000 1.0
C      1  0.5862850000000  0.4780420000000  0.5116150000000 1.0
C      1  0.5258550000000  0.5838160000000  0.4869730000000 1.0
C      1  0.4338820000000  0.5725370000000  0.4824420000000 1.0
C      1  0.4012380000000  0.4796950000000  0.4818100000000 1.0
C      1  0.4697010000000  0.4002110000000  0.4803110000000 1.0
C      1  0.5684810000000  0.4263560000000  0.4799820000000 1.0
C      1  0.5837300000000  0.5185150000000  0.4892060000000 1.0
C      1  0.4719990000000  0.4653680000000  0.4096030000000 1.0
C      1  0.4552800000000  0.5064550000000  0.4084950000000 1.0
C      1  0.4826950000000  0.5414910000000  0.4153490000000 1.0
C      1  0.5286740000000  0.5355220000000  0.4068050000000 1.0
C      1  0.5460860000000  0.4938720000000  0.4090810000000 1.0
C      1  0.5165460000000  0.4597610000000  0.4120790000000 1.0
C      1  0.4708750000000  0.5366250000000  0.5870360000000 1.0
C      1  0.4546080000000  0.4961430000000  0.5865670000000 1.0
C      1  0.4829550000000  0.4608790000000  0.5858340000000 1.0
C      1  0.5284380000000  0.4664320000000  0.5909860000000 1.0
C      1  0.5454020000000  0.5067160000000  0.5905180000000 1.0
C      1  0.5152690000000  0.5416970000000  0.5918080000000 1.0
C      1  0.4702130000000  0.4865650000000  0.4785830000000 1.0
C      1  0.4749070000000  0.5140020000000  0.4848820000000 1.0
C      1  0.5027090000000  0.5345750000000  0.4785380000000 1.0
C      1  0.5267370000000  0.5122800000000  0.4804610000000 1.0
C      1  0.5200100000000  0.4823780000000  0.4806250000000 1.0
C      1  0.4926750000000  0.4686750000000  0.4801410000000 1.0
C      1  0.4838650000000  0.5077770000000  0.5108320000000 1.0
C      1  0.4751950000000  0.4836250000000  0.5207810000000 1.0
C      1  0.4976910000000  0.4649150000000  0.5218200000000 1.0
C      1  0.5333410000000  0.4849150000000  0.5197890000000 1.0
C      1  0.5256960000000  0.5180570000000  0.5226690000000 1.0
C      1  0.4992360000000  0.5287050000000  0.5208670000000 1.0
C      1  0.4731580000000  0.4220740000000  0.4605180000000 1.0
C      1  0.4207840000000  0.4827100000000  0.4604520000000 1.0
C      1  0.4469060000000  0.5684560000000  0.4577970000000 1.0
C      1  0.5255210000000  0.5735380000000  0.4596450000000 1.0
C      1  0.5761760000000  0.5146300000000  0.4610870000000 1.0
C      1  0.5501590000000  0.4415040000000  0.4614270000000 1.0
C      1  0.4704290000000  0.5734060000000  0.5406740000000 1.0
C      1  0.4169910000000  0.5110780000000  0.5400300000000 1.0
C      1  0.4474300000000  0.4320130000000  0.5399280000000 1.0
C      1  0.5254600000000  0.4264300000000  0.5395130000000 1.0
C      1  0.5810960000000  0.4833100000000  0.5400040000000 1.0
C      1  0.5525300000000  0.5578920000000  0.5391520000000 1.0
C      1  0.5337380000000  0.6063150000000  0.5048520000000 1.0
C      1  0.6059060000000  0.5242140000000  0.5080240000000 1.0
C      1  0.5745640000000  0.4242930000000  0.5085100000000 1.0
C      1  0.4704960000000  0.3962100000000  0.5094210000000 1.0
C      1  0.4004570000000  0.4726350000000  0.5080860000000 1.0
C      1  0.4261680000000  0.5828740000000  0.5066090000000 1.0
C      1  0.5305100000000  0.3978880000000  0.4922100000000 1.0
C      1  0.6076650000000  0.4753710000000  0.4910890000000 1.0
C      1  0.5754980000000  0.5792380000000  0.4923020000000 1.0
C      1  0.4746070000000  0.6028240000000  0.4926430000000 1.0
C      1  0.3997030000000  0.5269690000000  0.4939870000000 1.0
C      1  0.4253250000000  0.4200400000000  0.4908940000000 1.0
C      1  0.5607850000000  0.6018640000000  0.4977340000000 1.0
C      1  0.5595760000000  0.4028590000000  0.4946880000000 1.0
C      1  0.4494080000000  0.6022430000000  0.5063960000000 1.0
C      1  0.4446470000000  0.3979700000000  0.4950470000000 1.0
C      1  0.3856860000000  0.4972740000000  0.4995890000000 1.0
C      1  0.6181340000000  0.5001330000000  0.4997380000000 1.0
C      1  0.4923470000000  0.4911550000000  0.4413930000000 1.0
C      1  0.5130110000000  0.4983640000000  0.5586340000000 1.0
END
