TITL C-2441162-9305-1038 0.0673525495219521 125000 -21179.8771084788 0 0 151 (C1) n - 1
REM
REM in /home/bkarasulu/work/CARBON/AIRSS/Generating-Clusters/ReaxFF-fromJPCA2015/Units_Real/with-SteepDescent/Higher-Symm
REM
REM
REM
REM
REM
REM ./C.cell (1df0a924f5614ab8850e4351716899ee)
REM
REM compiler GCC version 9.2.1 20190827 (Red Hat 9.2.1-1)
REM options -cpp -mtune=generic -march=x86-64 -g -O0 -fpre-include=/usr/include/finclude/math-vector-fortran.h
REM seed 660462438 1079734390 1153138557 623433445 1612366889 -1908388019 -2125131390 -1254728653 552894443 -1632474527 514616034 2111723371 -750856483 1402747589 -1636542742 832775300 -1205486519 1334114203 1702906025 2116389025 700236987 -614904167 -1422567823 -1239824041 762939791 -1076612859 -654213566 1693476602 1634483293 -1116913119 1009237247 -1443376853 -883684438
REM
CELL 1.54180   50.00000   50.00000   50.00000   90.00000   90.00000   90.00000
LATT -1
SFAC C  
C      1  0.4961830000000  0.5509210000000  0.5261820000000 1.0
C      1  0.4934560000000  0.4465840000000  0.4755680000000 1.0
C      1  0.5821010000000  0.5054460000000  0.4359170000000 1.0
C      1  0.5829220000000  0.4941160000000  0.5604420000000 1.0
C      1  0.4329570000000  0.4897810000000  0.4200060000000 1.0
C      1  0.4326770000000  0.5117640000000  0.5787230000000 1.0
C      1  0.5209200000000  0.5149570000000  0.4506880000000 1.0
C      1  0.5117140000000  0.4634000000000  0.5468570000000 1.0
C      1  0.4562440000000  0.4744410000000  0.4293130000000 1.0
C      1  0.4564870000000  0.5283970000000  0.5783240000000 1.0
C      1  0.5727790000000  0.4479370000000  0.4631070000000 1.0
C      1  0.5739040000000  0.5526630000000  0.5371030000000 1.0
C      1  0.5406250000000  0.5354460000000  0.5087640000000 1.0
C      1  0.5578670000000  0.4743190000000  0.5007080000000 1.0
C      1  0.4090910000000  0.4621500000000  0.5124020000000 1.0
C      1  0.4109050000000  0.5353800000000  0.4878260000000 1.0
C      1  0.4571580000000  0.5744470000000  0.4516110000000 1.0
C      1  0.4599170000000  0.4262900000000  0.5468960000000 1.0
C      1  0.5131080000000  0.5868900000000  0.4669700000000 1.0
C      1  0.5143960000000  0.4086140000000  0.5343370000000 1.0
C      1  0.4685140000000  0.5848880000000  0.4990710000000 1.0
C      1  0.4683440000000  0.4142650000000  0.5016250000000 1.0
C      1  0.5795090000000  0.5069850000000  0.5343080000000 1.0
C      1  0.5812230000000  0.4919800000000  0.4619060000000 1.0
C      1  0.4831300000000  0.5778430000000  0.4732460000000 1.0
C      1  0.4833460000000  0.4206590000000  0.5270210000000 1.0
C      1  0.5359610000000  0.4212370000000  0.5485310000000 1.0
C      1  0.5342430000000  0.5742680000000  0.4523130000000 1.0
C      1  0.5156830000000  0.5364990000000  0.3994430000000 1.0
C      1  0.5117360000000  0.4604420000000  0.5971020000000 1.0
C      1  0.4917790000000  0.5698400000000  0.5732380000000 1.0
C      1  0.4916900000000  0.4312040000000  0.4276670000000 1.0
C      1  0.5808340000000  0.4604460000000  0.5099920000000 1.0
C      1  0.5912510000000  0.5371300000000  0.4872710000000 1.0
C      1  0.4945750000000  0.5200430000000  0.3912990000000 1.0
C      1  0.4929950000000  0.4794170000000  0.6078990000000 1.0
C      1  0.4171340000000  0.4606120000000  0.4539930000000 1.0
C      1  0.4228660000000  0.5285070000000  0.5329430000000 1.0
C      1  0.4399630000000  0.4601360000000  0.5772810000000 1.0
C      1  0.4375750000000  0.5413080000000  0.4204560000000 1.0
C      1  0.4746480000000  0.5355880000000  0.4689490000000 1.0
C      1  0.4625570000000  0.4691440000000  0.5095550000000 1.0
C      1  0.4510270000000  0.5235150000000  0.4793860000000 1.0
C      1  0.4443680000000  0.4819900000000  0.5283050000000 1.0
C      1  0.4861710000000  0.5541050000000  0.4307630000000 1.0
C      1  0.4832510000000  0.4621350000000  0.5572560000000 1.0
C      1  0.5762180000000  0.5470870000000  0.4643000000000 1.0
C      1  0.5766460000000  0.4494740000000  0.5364310000000 1.0
C      1  0.4244610000000  0.5602700000000  0.4874920000000 1.0
C      1  0.4234620000000  0.4379980000000  0.5122080000000 1.0
C      1  0.5471860000000  0.4975510000000  0.5879100000000 1.0
C      1  0.5473350000000  0.5018970000000  0.4119170000000 1.0
C      1  0.5104710000000  0.4404770000000  0.4518330000000 1.0
C      1  0.5118660000000  0.5602850000000  0.5499590000000 1.0
C      1  0.5206060000000  0.5112000000000  0.4777380000000 1.0
C      1  0.5161220000000  0.4847770000000  0.5253220000000 1.0
C      1  0.5919450000000  0.4588500000000  0.4830790000000 1.0
C      1  0.5933720000000  0.5439040000000  0.5170210000000 1.0
C      1  0.5280850000000  0.5145920000000  0.6058440000000 1.0
C      1  0.5264280000000  0.4853270000000  0.3964450000000 1.0
C      1  0.4800410000000  0.5286530000000  0.4409220000000 1.0
C      1  0.4720400000000  0.4762330000000  0.5345860000000 1.0
C      1  0.4123590000000  0.4859190000000  0.4405270000000 1.0
C      1  0.4144590000000  0.5125060000000  0.5557430000000 1.0
C      1  0.5017230000000  0.5566780000000  0.5932060000000 1.0
C      1  0.5012980000000  0.4431870000000  0.4069620000000 1.0
C      1  0.5719720000000  0.4661390000000  0.5611020000000 1.0
C      1  0.5722960000000  0.5331270000000  0.4378960000000 1.0
C      1  0.4844340000000  0.4000340000000  0.4815030000000 1.0
C      1  0.4842880000000  0.5998290000000  0.5186810000000 1.0
C      1  0.5507540000000  0.5359470000000  0.4193420000000 1.0
C      1  0.5501900000000  0.4638570000000  0.5789560000000 1.0
C      1  0.5090880000000  0.4558590000000  0.4972320000000 1.0
C      1  0.5115890000000  0.5442220000000  0.5039060000000 1.0
C      1  0.4421830000000  0.4860610000000  0.5891860000000 1.0
C      1  0.4414180000000  0.5152140000000  0.4090560000000 1.0
C      1  0.4411400000000  0.4281470000000  0.4444830000000 1.0
C      1  0.4438070000000  0.5713260000000  0.5529780000000 1.0
C      1  0.5575990000000  0.4287360000000  0.5303710000000 1.0
C      1  0.5579550000000  0.5690630000000  0.4693190000000 1.0
C      1  0.4744420000000  0.4850190000000  0.4089820000000 1.0
C      1  0.4752940000000  0.5151170000000  0.5968540000000 1.0
C      1  0.5023840000000  0.4458870000000  0.5227870000000 1.0
C      1  0.4947040000000  0.5517470000000  0.4819190000000 1.0
C      1  0.5149120000000  0.4024220000000  0.4824730000000 1.0
C      1  0.5147240000000  0.5970230000000  0.5173260000000 1.0
C      1  0.6042620000000  0.4851890000000  0.4783830000000 1.0
C      1  0.6042010000000  0.5169480000000  0.5217210000000 1.0
C      1  0.5389210000000  0.4370380000000  0.5760040000000 1.0
C      1  0.5364040000000  0.5605690000000  0.4251720000000 1.0
C      1  0.4791750000000  0.5160690000000  0.5110960000000 1.0
C      1  0.4811730000000  0.5007870000000  0.4903200000000 1.0
C      1  0.5701530000000  0.5146700000000  0.5761680000000 1.0
C      1  0.5700380000000  0.4841060000000  0.4217020000000 1.0
C      1  0.4685100000000  0.5412000000000  0.5249610000000 1.0
C      1  0.4655100000000  0.4577300000000  0.4823660000000 1.0
C      1  0.4735300000000  0.4043790000000  0.4557210000000 1.0
C      1  0.4745500000000  0.5971430000000  0.5452680000000 1.0
C      1  0.5000980000000  0.5065740000000  0.5260840000000 1.0
C      1  0.5039950000000  0.4860880000000  0.4812620000000 1.0
C      1  0.4061830000000  0.5082920000000  0.4806250000000 1.0
C      1  0.4016950000000  0.4887080000000  0.5169400000000 1.0
C      1  0.5289290000000  0.4196900000000  0.4643570000000 1.0
C      1  0.5287470000000  0.5803910000000  0.5355130000000 1.0
C      1  0.4461510000000  0.4317960000000  0.4921250000000 1.0
C      1  0.4474400000000  0.5660460000000  0.5074080000000 1.0
C      1  0.5335820000000  0.4941360000000  0.4368980000000 1.0
C      1  0.5310640000000  0.5078240000000  0.5646640000000 1.0
C      1  0.5341700000000  0.5385170000000  0.5646930000000 1.0
C      1  0.5328970000000  0.4638620000000  0.4382730000000 1.0
C      1  0.5274510000000  0.5950480000000  0.4908930000000 1.0
C      1  0.5278630000000  0.4032770000000  0.5085830000000 1.0
C      1  0.4325590000000  0.5615560000000  0.4593350000000 1.0
C      1  0.4338130000000  0.4363560000000  0.5397980000000 1.0
C      1  0.5074580000000  0.4935600000000  0.5637380000000 1.0
C      1  0.4960430000000  0.5069480000000  0.4404790000000 1.0
C      1  0.5529990000000  0.5814170000000  0.4949510000000 1.0
C      1  0.5523580000000  0.4184150000000  0.5033070000000 1.0
C      1  0.4294120000000  0.5050330000000  0.5148920000000 1.0
C      1  0.4364740000000  0.4997950000000  0.4834020000000 1.0
C      1  0.4874810000000  0.4828970000000  0.4547530000000 1.0
C      1  0.4902580000000  0.5121340000000  0.5506460000000 1.0
C      1  0.4075290000000  0.5136090000000  0.4518340000000 1.0
C      1  0.4052040000000  0.4860970000000  0.5460810000000 1.0
C      1  0.5460300000000  0.5186850000000  0.4854600000000 1.0
C      1  0.5433330000000  0.4886290000000  0.5212980000000 1.0
C      1  0.5546100000000  0.4281210000000  0.4755630000000 1.0
C      1  0.5530450000000  0.5688790000000  0.5222020000000 1.0
C      1  0.4586470000000  0.5622530000000  0.4260470000000 1.0
C      1  0.4636420000000  0.4435900000000  0.5698000000000 1.0
C      1  0.5527310000000  0.5150740000000  0.5263050000000 1.0
C      1  0.5592510000000  0.4935870000000  0.4803170000000 1.0
C      1  0.4261290000000  0.4362950000000  0.4657870000000 1.0
C      1  0.4311280000000  0.5573230000000  0.5328050000000 1.0
C      1  0.4590910000000  0.4784820000000  0.4593510000000 1.0
C      1  0.4673240000000  0.5288570000000  0.5516120000000 1.0
C      1  0.5641440000000  0.5395230000000  0.5614560000000 1.0
C      1  0.5628210000000  0.4611410000000  0.4386070000000 1.0
C      1  0.4244260000000  0.4632720000000  0.5526320000000 1.0
C      1  0.4218800000000  0.5381370000000  0.4438960000000 1.0
C      1  0.5157750000000  0.4383200000000  0.5908940000000 1.0
C      1  0.5093080000000  0.5601590000000  0.4128920000000 1.0
C      1  0.5247210000000  0.5408990000000  0.5945360000000 1.0
C      1  0.5238760000000  0.4594320000000  0.4082340000000 1.0
C      1  0.4697760000000  0.5137640000000  0.4091610000000 1.0
C      1  0.4693760000000  0.4883780000000  0.5939150000000 1.0
C      1  0.4640010000000  0.4161430000000  0.4323530000000 1.0
C      1  0.4640010000000  0.5844370000000  0.5679300000000 1.0
C      1  0.5008080000000  0.5075470000000  0.6103750000000 1.0
C      1  0.4982950000000  0.4908310000000  0.3927380000000 1.0
C      1  0.6048280000000  0.5112430000000  0.4925750000000 1.0
END
