TITL C-2441155-8282-148 0.0279817436882653 125000 -9822.15645874313 0 0 72 (C1) n - 1
REM
REM in /home/bkarasulu/work/CARBON/AIRSS/Generating-Clusters/ReaxFF-fromJPCA2015/Units_Real/with-SteepDescent/Higher-Symm
REM
REM
REM
REM
REM
REM ./C.cell (1df0a924f5614ab8850e4351716899ee)
REM
REM compiler GCC version 9.2.1 20190827 (Red Hat 9.2.1-1)
REM options -cpp -mtune=generic -march=x86-64 -g -O0 -fpre-include=/usr/include/finclude/math-vector-fortran.h
REM seed -1735516551 -905960856 1263110276 -1938983931 24930843 260052300 -1201286273 -430322357 174899838 -50387806 -1227066791 1510636252 1794855644 1428378889 120873826 1163374846 -2114279782 -1040689217 -113869631 -662315100 -552920092 2116788524 -957132127 -128119091 -1204551420 -1337292014 1078997113 102277312 618428006 -2133261237 -784394462 1869310298 -1459807986
REM
CELL 1.54180   50.00000   50.00000   50.00000   90.00000   90.00000   90.00000
LATT -1
SFAC C  
C      1  0.5608350000000  0.4518650000000  0.5039100000000 1.0
C      1  0.5601210000000  0.5407560000000  0.5359280000000 1.0
C      1  0.5183480000000  0.4450470000000  0.5538310000000 1.0
C      1  0.4717330000000  0.5505200000000  0.5587120000000 1.0
C      1  0.4512690000000  0.4535420000000  0.5324580000000 1.0
C      1  0.4409000000000  0.5577880000000  0.4793710000000 1.0
C      1  0.4548000000000  0.4423520000000  0.4625510000000 1.0
C      1  0.4826460000000  0.5551550000000  0.4452590000000 1.0
C      1  0.5192000000000  0.4560820000000  0.4417070000000 1.0
C      1  0.5492950000000  0.5459130000000  0.4663540000000 1.0
C      1  0.4343060000000  0.5262820000000  0.4573610000000 1.0
C      1  0.4714120000000  0.4635660000000  0.4319710000000 1.0
C      1  0.5157160000000  0.5315270000000  0.4307380000000 1.0
C      1  0.5568090000000  0.4709750000000  0.4538180000000 1.0
C      1  0.5805660000000  0.5263620000000  0.4933000000000 1.0
C      1  0.5620380000000  0.4724680000000  0.5401510000000 1.0
C      1  0.5218520000000  0.5367770000000  0.5685200000000 1.0
C      1  0.4806670000000  0.4743500000000  0.5712130000000 1.0
C      1  0.4392090000000  0.5264370000000  0.5470060000000 1.0
C      1  0.4232150000000  0.4641760000000  0.5012850000000 1.0
C      1  0.5496420000000  0.4541700000000  0.4770940000000 1.0
C      1  0.5687510000000  0.5482990000000  0.5104930000000 1.0
C      1  0.5431440000000  0.4497970000000  0.5293130000000 1.0
C      1  0.5007510000000  0.5523180000000  0.5540610000000 1.0
C      1  0.4929460000000  0.4343900000000  0.5493570000000 1.0
C      1  0.4551320000000  0.5481480000000  0.5343520000000 1.0
C      1  0.4440150000000  0.4433960000000  0.4884270000000 1.0
C      1  0.4658690000000  0.5651320000000  0.4672610000000 1.0
C      1  0.4930170000000  0.4470410000000  0.4478240000000 1.0
C      1  0.5230320000000  0.5484040000000  0.4542760000000 1.0
C      1  0.5581970000000  0.4981230000000  0.4650410000000 1.0
C      1  0.5711260000000  0.5026160000000  0.5067740000000 1.0
C      1  0.5516470000000  0.4969100000000  0.5525590000000 1.0
C      1  0.5169780000000  0.5093170000000  0.5692970000000 1.0
C      1  0.4746170000000  0.5026770000000  0.5661850000000 1.0
C      1  0.4352270000000  0.5012080000000  0.5319300000000 1.0
C      1  0.4242620000000  0.4913870000000  0.4940290000000 1.0
C      1  0.4458460000000  0.5072030000000  0.4411930000000 1.0
C      1  0.4730980000000  0.4922600000000  0.4277500000000 1.0
C      1  0.5259250000000  0.5039410000000  0.4356400000000 1.0
C      1  0.4282760000000  0.4717740000000  0.5295860000000 1.0
C      1  0.4303780000000  0.5319580000000  0.4846770000000 1.0
C      1  0.4488100000000  0.4667350000000  0.4504100000000 1.0
C      1  0.4864650000000  0.5303890000000  0.4320620000000 1.0
C      1  0.5366980000000  0.4759370000000  0.4321530000000 1.0
C      1  0.5699050000000  0.5247470000000  0.4662390000000 1.0
C      1  0.5762010000000  0.4746960000000  0.5147210000000 1.0
C      1  0.5512740000000  0.5283860000000  0.5578640000000 1.0
C      1  0.5089100000000  0.4692450000000  0.5674140000000 1.0
C      1  0.4578050000000  0.5264260000000  0.5698880000000 1.0
C      1  0.4790990000000  0.5443330000000  0.4847260000000 1.0
C      1  0.4979250000000  0.4524250000000  0.4768660000000 1.0
C      1  0.5058720000000  0.5506010000000  0.4779320000000 1.0
C      1  0.5230550000000  0.4630490000000  0.4867810000000 1.0
C      1  0.5451110000000  0.5529590000000  0.4938750000000 1.0
C      1  0.5178820000000  0.4538500000000  0.5135600000000 1.0
C      1  0.5014930000000  0.5505170000000  0.5249740000000 1.0
C      1  0.4709400000000  0.4515540000000  0.5545710000000 1.0
C      1  0.4759860000000  0.5445920000000  0.5138640000000 1.0
C      1  0.4652990000000  0.4470540000000  0.5076960000000 1.0
C      1  0.4814120000000  0.5045650000000  0.5383080000000 1.0
C      1  0.4614370000000  0.4996540000000  0.5201630000000 1.0
C      1  0.4498860000000  0.5059900000000  0.4928320000000 1.0
C      1  0.4586830000000  0.4950010000000  0.4652130000000 1.0
C      1  0.4846670000000  0.5039970000000  0.4530590000000 1.0
C      1  0.5125680000000  0.4975290000000  0.4603700000000 1.0
C      1  0.5327040000000  0.5023270000000  0.4792310000000 1.0
C      1  0.5413300000000  0.5031470000000  0.5060970000000 1.0
C      1  0.5320110000000  0.4994940000000  0.5311200000000 1.0
C      1  0.5078610000000  0.4930220000000  0.5444410000000 1.0
C      1  0.5187400000000  0.5553720000000  0.5019650000000 1.0
C      1  0.4937460000000  0.4399970000000  0.5030500000000 1.0
END
