TITL C-2441156-4686-1308 0.0458146642860855 125000 -19456.3440097981 0 0 137 (C1) n - 1
REM
REM in /home/bkarasulu/work/CARBON/AIRSS/Generating-Clusters/ReaxFF-fromJPCA2015/Units_Real/with-SteepDescent/Higher-Symm
REM
REM
REM
REM
REM
REM ./C.cell (1df0a924f5614ab8850e4351716899ee)
REM
REM compiler GCC version 9.2.1 20190827 (Red Hat 9.2.1-1)
REM options -cpp -mtune=generic -march=x86-64 -g -O0 -fpre-include=/usr/include/finclude/math-vector-fortran.h
REM seed 1091456465 1215733105 1786298395 2016486855 -611033746 244923292 -1629866594 1872444035 471766965 -494852220 -1141007458 1254620975 -1504399027 -25917181 -2109597977 664189408 -835131118 -1549398707 308612219 1132097408 1460177909 68409201 956562630 1812359944 -2058358757 -729006965 -451755389 -298886150 335147225 -1451649786 1065866557 191662542 -1300223786
REM
CELL 1.54180   50.00000   50.00000   50.00000   90.00000   90.00000   90.00000
LATT -1
SFAC C  
C      1  0.5538790000000  0.5800490000000  0.4989800000000 1.0
C      1  0.5502560000000  0.4586440000000  0.4327420000000 1.0
C      1  0.5522200000000  0.4652940000000  0.5725520000000 1.0
C      1  0.5364670000000  0.5599380000000  0.4367490000000 1.0
C      1  0.5513790000000  0.4149770000000  0.4813420000000 1.0
C      1  0.5386980000000  0.5177360000000  0.5822300000000 1.0
C      1  0.4524130000000  0.4612650000000  0.4519360000000 1.0
C      1  0.4412180000000  0.4801210000000  0.5727760000000 1.0
C      1  0.4377540000000  0.5731160000000  0.4807450000000 1.0
C      1  0.5301250000000  0.4047420000000  0.5280700000000 1.0
C      1  0.5493190000000  0.5667560000000  0.5739480000000 1.0
C      1  0.5430470000000  0.5296770000000  0.4090990000000 1.0
C      1  0.5928790000000  0.4996950000000  0.5148840000000 1.0
C      1  0.5939240000000  0.5273450000000  0.5029540000000 1.0
C      1  0.5907360000000  0.4784950000000  0.4962650000000 1.0
C      1  0.5745450000000  0.4720750000000  0.5551360000000 1.0
C      1  0.5804770000000  0.5668320000000  0.4973510000000 1.0
C      1  0.5743430000000  0.4652910000000  0.4487980000000 1.0
C      1  0.5067370000000  0.4307120000000  0.4254620000000 1.0
C      1  0.5049750000000  0.4755970000000  0.6002130000000 1.0
C      1  0.5057860000000  0.5971790000000  0.4402420000000 1.0
C      1  0.4317820000000  0.5029120000000  0.5563290000000 1.0
C      1  0.4237520000000  0.5485120000000  0.4697150000000 1.0
C      1  0.4352690000000  0.4534580000000  0.4763210000000 1.0
C      1  0.4883680000000  0.5844190000000  0.4904990000000 1.0
C      1  0.4871670000000  0.4482690000000  0.4140880000000 1.0
C      1  0.4855640000000  0.4551580000000  0.5933960000000 1.0
C      1  0.5815720000000  0.4986540000000  0.5447490000000 1.0
C      1  0.5822950000000  0.5431700000000  0.4801310000000 1.0
C      1  0.5843330000000  0.4576110000000  0.4757230000000 1.0
C      1  0.5587160000000  0.5044510000000  0.4083360000000 1.0
C      1  0.5502540000000  0.4171760000000  0.5445460000000 1.0
C      1  0.5576460000000  0.5775560000000  0.5494110000000 1.0
C      1  0.5542650000000  0.5083600000000  0.5472950000000 1.0
C      1  0.5539670000000  0.5434420000000  0.4698600000000 1.0
C      1  0.5673480000000  0.4353120000000  0.4773210000000 1.0
C      1  0.4872200000000  0.5057320000000  0.5753000000000 1.0
C      1  0.4834480000000  0.5588180000000  0.4449620000000 1.0
C      1  0.4913600000000  0.4301590000000  0.4679000000000 1.0
C      1  0.4404550000000  0.4835410000000  0.4132760000000 1.0
C      1  0.4436080000000  0.4317560000000  0.5636370000000 1.0
C      1  0.4418870000000  0.5888530000000  0.5259090000000 1.0
C      1  0.5284290000000  0.4450510000000  0.5196190000000 1.0
C      1  0.5423600000000  0.5340050000000  0.5393580000000 1.0
C      1  0.5338410000000  0.5302240000000  0.4371900000000 1.0
C      1  0.5145000000000  0.4884790000000  0.4142600000000 1.0
C      1  0.5189160000000  0.4345620000000  0.5701260000000 1.0
C      1  0.5140720000000  0.5778460000000  0.5300310000000 1.0
C      1  0.5272020000000  0.5328350000000  0.5136570000000 1.0
C      1  0.5191070000000  0.4883670000000  0.4643920000000 1.0
C      1  0.5266550000000  0.4741180000000  0.5200230000000 1.0
C      1  0.5807750000000  0.5107450000000  0.4277130000000 1.0
C      1  0.5565880000000  0.4367750000000  0.5234310000000 1.0
C      1  0.5676860000000  0.5506690000000  0.5413700000000 1.0
C      1  0.5424180000000  0.5584540000000  0.4083590000000 1.0
C      1  0.5394460000000  0.3963630000000  0.5003020000000 1.0
C      1  0.5438180000000  0.5459220000000  0.5922640000000 1.0
C      1  0.5474140000000  0.5273200000000  0.4944420000000 1.0
C      1  0.5468220000000  0.4961520000000  0.4681970000000 1.0
C      1  0.5518760000000  0.4856500000000  0.5213730000000 1.0
C      1  0.4078350000000  0.5254030000000  0.5128150000000 1.0
C      1  0.4078770000000  0.4972210000000  0.4706900000000 1.0
C      1  0.4097640000000  0.4769300000000  0.5163510000000 1.0
C      1  0.4463560000000  0.5517190000000  0.5452800000000 1.0
C      1  0.4539110000000  0.5148830000000  0.4385220000000 1.0
C      1  0.4461500000000  0.4334290000000  0.5212750000000 1.0
C      1  0.5386490000000  0.5690810000000  0.4765160000000 1.0
C      1  0.5285450000000  0.4415770000000  0.4421110000000 1.0
C      1  0.5309960000000  0.4843870000000  0.5834490000000 1.0
C      1  0.4657300000000  0.4892320000000  0.4021100000000 1.0
C      1  0.4677440000000  0.4180740000000  0.5619600000000 1.0
C      1  0.4674100000000  0.5938700000000  0.5360450000000 1.0
C      1  0.4610190000000  0.5415320000000  0.5205840000000 1.0
C      1  0.4648610000000  0.4912130000000  0.4596510000000 1.0
C      1  0.4569060000000  0.4619640000000  0.5253190000000 1.0
C      1  0.4355850000000  0.5397210000000  0.4450420000000 1.0
C      1  0.4466160000000  0.4318270000000  0.4920840000000 1.0
C      1  0.4443470000000  0.5287430000000  0.5632310000000 1.0
C      1  0.4162940000000  0.4594220000000  0.5371960000000 1.0
C      1  0.4130830000000  0.5523800000000  0.5141720000000 1.0
C      1  0.4157270000000  0.4875640000000  0.4459730000000 1.0
C      1  0.4936330000000  0.5013120000000  0.4573100000000 1.0
C      1  0.4841670000000  0.4560140000000  0.5167090000000 1.0
C      1  0.4871190000000  0.5348680000000  0.5307360000000 1.0
C      1  0.4905050000000  0.5286220000000  0.4114480000000 1.0
C      1  0.4924480000000  0.4071500000000  0.5235190000000 1.0
C      1  0.4896140000000  0.5635810000000  0.5669500000000 1.0
C      1  0.5079060000000  0.4881830000000  0.5370590000000 1.0
C      1  0.5076260000000  0.5416400000000  0.4946480000000 1.0
C      1  0.5161700000000  0.4677240000000  0.4824530000000 1.0
C      1  0.4634760000000  0.5728350000000  0.5573100000000 1.0
C      1  0.4653800000000  0.5155260000000  0.4116210000000 1.0
C      1  0.4647840000000  0.4130650000000  0.5333970000000 1.0
C      1  0.5083000000000  0.5135990000000  0.4295380000000 1.0
C      1  0.5022740000000  0.4346600000000  0.5237980000000 1.0
C      1  0.5061140000000  0.5526790000000  0.5442890000000 1.0
C      1  0.4267250000000  0.4550070000000  0.5638720000000 1.0
C      1  0.4230810000000  0.5783960000000  0.5070760000000 1.0
C      1  0.4279620000000  0.4668510000000  0.4317180000000 1.0
C      1  0.4837300000000  0.4954050000000  0.6015000000000 1.0
C      1  0.4802700000000  0.5883890000000  0.4491780000000 1.0
C      1  0.4853600000000  0.4210230000000  0.4437530000000 1.0
C      1  0.4635870000000  0.4758520000000  0.5917460000000 1.0
C      1  0.4631930000000  0.5861500000000  0.4756720000000 1.0
C      1  0.4676190000000  0.4420330000000  0.4337300000000 1.0
C      1  0.4896160000000  0.3998320000000  0.4946120000000 1.0
C      1  0.4904960000000  0.5442710000000  0.5881120000000 1.0
C      1  0.4933790000000  0.5561480000000  0.4189040000000 1.0
C      1  0.4836980000000  0.5040340000000  0.5281050000000 1.0
C      1  0.4873970000000  0.5224530000000  0.4833750000000 1.0
C      1  0.4925730000000  0.4731900000000  0.4954670000000 1.0
C      1  0.4708110000000  0.4183470000000  0.4811570000000 1.0
C      1  0.4688570000000  0.5271700000000  0.5793800000000 1.0
C      1  0.4630130000000  0.5403210000000  0.4516890000000 1.0
C      1  0.4581080000000  0.5262560000000  0.4954630000000 1.0
C      1  0.4528500000000  0.4989630000000  0.4876990000000 1.0
C      1  0.4556230000000  0.4891810000000  0.5147120000000 1.0
C      1  0.5170860000000  0.5323300000000  0.5950640000000 1.0
C      1  0.5164720000000  0.5735950000000  0.4191400000000 1.0
C      1  0.5160560000000  0.3982640000000  0.4857920000000 1.0
C      1  0.5415720000000  0.5849080000000  0.5247990000000 1.0
C      1  0.5422310000000  0.4802950000000  0.4145200000000 1.0
C      1  0.5453960000000  0.4365750000000  0.5689120000000 1.0
C      1  0.4148580000000  0.5013670000000  0.5319320000000 1.0
C      1  0.4103620000000  0.5254850000000  0.4831780000000 1.0
C      1  0.4155990000000  0.4726780000000  0.4856720000000 1.0
C      1  0.5104420000000  0.4943150000000  0.5629680000000 1.0
C      1  0.5095010000000  0.5658540000000  0.4795510000000 1.0
C      1  0.5160200000000  0.4433950000000  0.4684420000000 1.0
C      1  0.5887960000000  0.5502880000000  0.5207170000000 1.0
C      1  0.5721220000000  0.4946540000000  0.4517060000000 1.0
C      1  0.5699940000000  0.4624580000000  0.5280750000000 1.0
C      1  0.4910750000000  0.5908230000000  0.5178870000000 1.0
C      1  0.4908750000000  0.4745540000000  0.4063920000000 1.0
C      1  0.4923500000000  0.4348130000000  0.5728070000000 1.0
C      1  0.4910420000000  0.4999160000000  0.5006100000000 1.0
C      1  0.5543160000000  0.5003620000000  0.4956900000000 1.0
END
