TITL C-2441169-1362-852 0.0613869107245213 125000 -17884.7325592542 0 0 128 (C1) n - 1
REM
REM in /home/bkarasulu/work/CARBON/AIRSS/Generating-Clusters/ReaxFF-fromJPCA2015/Units_Real/with-SteepDescent/Higher-Symm
REM
REM
REM
REM
REM
REM ./C.cell (1df0a924f5614ab8850e4351716899ee)
REM
REM compiler GCC version 9.2.1 20190827 (Red Hat 9.2.1-1)
REM options -cpp -mtune=generic -march=x86-64 -g -O0 -fpre-include=/usr/include/finclude/math-vector-fortran.h
REM seed -1226450820 -1981453331 193935061 -1084827221 36611837 1929159773 -1311083824 123028257 -310383700 -272473832 -270659485 1508779067 1099310272 -1182237211 -615621406 -1621610845 -1731357425 -1331905104 -423888406 -1822347589 667842686 1995238862 -143311319 1992461538 67191055 115680334 -1849959815 1417093980 1438627022 782287935 -2086506401 1166505671 -9324938
REM
CELL 1.54180   50.00000   50.00000   50.00000   90.00000   90.00000   90.00000
LATT -1
SFAC C  
C      1  0.5239510000000  0.5814960000000  0.5408900000000 1.0
C      1  0.5271370000000  0.5041620000000  0.5903660000000 1.0
C      1  0.5238220000000  0.4241530000000  0.5517910000000 1.0
C      1  0.5229320000000  0.4186940000000  0.4610730000000 1.0
C      1  0.5253630000000  0.4941380000000  0.4112630000000 1.0
C      1  0.5239270000000  0.5762530000000  0.4485420000000 1.0
C      1  0.4762640000000  0.5807690000000  0.5395850000000 1.0
C      1  0.4789980000000  0.5062850000000  0.5899440000000 1.0
C      1  0.4757020000000  0.4241300000000  0.5499310000000 1.0
C      1  0.4755380000000  0.4176120000000  0.4580160000000 1.0
C      1  0.4770530000000  0.4940150000000  0.4105870000000 1.0
C      1  0.4772190000000  0.5752440000000  0.4493760000000 1.0
C      1  0.5329140000000  0.5364120000000  0.4832400000000 1.0
C      1  0.5320630000000  0.5283810000000  0.5251180000000 1.0
C      1  0.5317940000000  0.5018560000000  0.5387650000000 1.0
C      1  0.5385970000000  0.4636580000000  0.5178460000000 1.0
C      1  0.5330400000000  0.4662660000000  0.4782700000000 1.0
C      1  0.5316910000000  0.5024330000000  0.4609070000000 1.0
C      1  0.4732800000000  0.5389320000000  0.4787060000000 1.0
C      1  0.4679990000000  0.5280630000000  0.5169680000000 1.0
C      1  0.4621480000000  0.4951530000000  0.5390940000000 1.0
C      1  0.4671040000000  0.4636590000000  0.5114760000000 1.0
C      1  0.4733280000000  0.4610700000000  0.4835470000000 1.0
C      1  0.4712300000000  0.5011420000000  0.4673550000000 1.0
C      1  0.4798330000000  0.5177860000000  0.5404140000000 1.0
C      1  0.4777330000000  0.4719150000000  0.5373090000000 1.0
C      1  0.4936050000000  0.4679780000000  0.5009560000000 1.0
C      1  0.4840170000000  0.4756270000000  0.4605000000000 1.0
C      1  0.4852950000000  0.5256600000000  0.4592100000000 1.0
C      1  0.4851200000000  0.5477260000000  0.5025240000000 1.0
C      1  0.5089600000000  0.5150380000000  0.5326140000000 1.0
C      1  0.5254340000000  0.4745120000000  0.5397500000000 1.0
C      1  0.5195310000000  0.4531450000000  0.4996500000000 1.0
C      1  0.5167100000000  0.4772470000000  0.4578780000000 1.0
C      1  0.5169940000000  0.5277250000000  0.4600780000000 1.0
C      1  0.5168820000000  0.5459730000000  0.5052390000000 1.0
C      1  0.5609250000000  0.5434710000000  0.4854880000000 1.0
C      1  0.5730470000000  0.5299510000000  0.5279010000000 1.0
C      1  0.5838580000000  0.4874020000000  0.5421280000000 1.0
C      1  0.5665390000000  0.4565360000000  0.5117950000000 1.0
C      1  0.5829040000000  0.4637800000000  0.4678550000000 1.0
C      1  0.5841430000000  0.5118170000000  0.4587860000000 1.0
C      1  0.4199010000000  0.5491640000000  0.4875420000000 1.0
C      1  0.4187960000000  0.5309780000000  0.5308940000000 1.0
C      1  0.4333550000000  0.4905220000000  0.5456850000000 1.0
C      1  0.4270560000000  0.4618010000000  0.5099200000000 1.0
C      1  0.4227160000000  0.4659840000000  0.4648800000000 1.0
C      1  0.4192420000000  0.5111820000000  0.4582030000000 1.0
C      1  0.5519050000000  0.5413680000000  0.4359140000000 1.0
C      1  0.5513730000000  0.5807850000000  0.5030070000000 1.0
C      1  0.5500340000000  0.5354580000000  0.5674790000000 1.0
C      1  0.5528170000000  0.4575740000000  0.5655230000000 1.0
C      1  0.5513580000000  0.4190190000000  0.4979630000000 1.0
C      1  0.5513100000000  0.4640560000000  0.4329570000000 1.0
C      1  0.4500560000000  0.5408530000000  0.4357820000000 1.0
C      1  0.4513400000000  0.5779080000000  0.5033280000000 1.0
C      1  0.4487030000000  0.5349690000000  0.5684960000000 1.0
C      1  0.4497470000000  0.4575020000000  0.5675070000000 1.0
C      1  0.4508150000000  0.4228620000000  0.4966780000000 1.0
C      1  0.4512110000000  0.4639300000000  0.4309820000000 1.0
C      1  0.4865540000000  0.4345630000000  0.4377280000000 1.0
C      1  0.4872210000000  0.5201560000000  0.4127590000000 1.0
C      1  0.4867650000000  0.5851710000000  0.4741320000000 1.0
C      1  0.4861310000000  0.5637920000000  0.5589490000000 1.0
C      1  0.4881800000000  0.4802330000000  0.5844830000000 1.0
C      1  0.4872170000000  0.4154440000000  0.5256810000000 1.0
C      1  0.5140370000000  0.4341970000000  0.4391970000000 1.0
C      1  0.5151240000000  0.5204210000000  0.4129960000000 1.0
C      1  0.5141260000000  0.5853750000000  0.4735760000000 1.0
C      1  0.5131330000000  0.5642710000000  0.5601150000000 1.0
C      1  0.5153140000000  0.4789180000000  0.5850810000000 1.0
C      1  0.5142340000000  0.4150070000000  0.5270110000000 1.0
C      1  0.5850710000000  0.5277100000000  0.4823140000000 1.0
C      1  0.5950030000000  0.5256110000000  0.5091330000000 1.0
C      1  0.5942680000000  0.5108790000000  0.5334480000000 1.0
C      1  0.5887590000000  0.4735060000000  0.5184860000000 1.0
C      1  0.5974890000000  0.4737920000000  0.4907840000000 1.0
C      1  0.5956280000000  0.4877730000000  0.4659320000000 1.0
C      1  0.4072620000000  0.5270340000000  0.4779560000000 1.0
C      1  0.4063140000000  0.5335610000000  0.5064980000000 1.0
C      1  0.4102960000000  0.5057740000000  0.5355970000000 1.0
C      1  0.4114760000000  0.4786740000000  0.5268250000000 1.0
C      1  0.4093170000000  0.4673500000000  0.4882050000000 1.0
C      1  0.4068350000000  0.4880230000000  0.4675430000000 1.0
C      1  0.5512470000000  0.5661040000000  0.4510820000000 1.0
C      1  0.5506580000000  0.5737980000000  0.5317010000000 1.0
C      1  0.5523480000000  0.5075970000000  0.5760320000000 1.0
C      1  0.5516160000000  0.4337890000000  0.5491710000000 1.0
C      1  0.5495960000000  0.4263100000000  0.4694090000000 1.0
C      1  0.5515270000000  0.4917860000000  0.4248110000000 1.0
C      1  0.4503730000000  0.5643690000000  0.4525630000000 1.0
C      1  0.4499810000000  0.5709930000000  0.5312530000000 1.0
C      1  0.4514100000000  0.5081950000000  0.5810720000000 1.0
C      1  0.4493540000000  0.4369070000000  0.5468630000000 1.0
C      1  0.4498960000000  0.4268980000000  0.4676700000000 1.0
C      1  0.4506460000000  0.4915910000000  0.4232600000000 1.0
C      1  0.5625010000000  0.4489520000000  0.4549730000000 1.0
C      1  0.5642520000000  0.5151630000000  0.4377720000000 1.0
C      1  0.5634350000000  0.5713560000000  0.4777630000000 1.0
C      1  0.5626940000000  0.5507820000000  0.5456920000000 1.0
C      1  0.5649650000000  0.4838720000000  0.5637210000000 1.0
C      1  0.5639860000000  0.4294790000000  0.5224660000000 1.0
C      1  0.4382950000000  0.4481030000000  0.4511140000000 1.0
C      1  0.4376750000000  0.5147010000000  0.4365720000000 1.0
C      1  0.4384520000000  0.5682550000000  0.4793860000000 1.0
C      1  0.4371100000000  0.5480340000000  0.5448140000000 1.0
C      1  0.4382820000000  0.4831990000000  0.5729930000000 1.0
C      1  0.4380690000000  0.4361940000000  0.5196280000000 1.0
C      1  0.5225120000000  0.4227260000000  0.5013150000000 1.0
C      1  0.5226310000000  0.4606800000000  0.4331560000000 1.0
C      1  0.5234030000000  0.5394470000000  0.4321870000000 1.0
C      1  0.5222890000000  0.5778110000000  0.5002910000000 1.0
C      1  0.5222160000000  0.5414040000000  0.5731510000000 1.0
C      1  0.5243930000000  0.4615820000000  0.5657140000000 1.0
C      1  0.4784810000000  0.4151240000000  0.4991910000000 1.0
C      1  0.4789250000000  0.4609970000000  0.4336360000000 1.0
C      1  0.4786120000000  0.5377780000000  0.4329920000000 1.0
C      1  0.4795790000000  0.5769040000000  0.5002830000000 1.0
C      1  0.4769530000000  0.5379010000000  0.5639470000000 1.0
C      1  0.4783750000000  0.4610380000000  0.5652060000000 1.0
C      1  0.5045090000000  0.5231250000000  0.5885810000000 1.0
C      1  0.4976870000000  0.4097300000000  0.4764090000000 1.0
C      1  0.5012500000000  0.4766770000000  0.4109490000000 1.0
C      1  0.5005810000000  0.5659180000000  0.4337350000000 1.0
C      1  0.5005010000000  0.5899330000000  0.5250330000000 1.0
C      1  0.4990580000000  0.4334230000000  0.5647700000000 1.0
C      1  0.5457410000000  0.4924920000000  0.4855030000000 1.0
C      1  0.4607450000000  0.5150940000000  0.4905210000000 1.0
END
