TITL C-2441156-4686-761 0.153980264190429 125000 -26025.4979614204 0 0 193 (C1) n - 1
REM
REM in /home/bkarasulu/work/CARBON/AIRSS/Generating-Clusters/ReaxFF-fromJPCA2015/Units_Real/with-SteepDescent/Higher-Symm
REM
REM
REM
REM
REM
REM ./C.cell (1df0a924f5614ab8850e4351716899ee)
REM
REM compiler GCC version 9.2.1 20190827 (Red Hat 9.2.1-1)
REM options -cpp -mtune=generic -march=x86-64 -g -O0 -fpre-include=/usr/include/finclude/math-vector-fortran.h
REM seed 1212576951 1709240608 -1595383887 -1599564742 543329712 -1077408820 686344013 -1452924997 -209216708 1546422843 -1108613507 -959603007 454995864 1316347545 2114680769 43918740 594011633 1960353339 126121175 -673674314 1369286161 1440768708 -1871814448 80032806 888574818 -1024317973 54356500 -1270231014 -337181729 1097078744 -1601312751 -845989760 -1421574725
REM
CELL 1.54180   50.00000   50.00000   50.00000   90.00000   90.00000   90.00000
LATT -1
SFAC C  
C      1  0.4173820000000  0.4370410000000  0.5560310000000 1.0
C      1  0.5804030000000  0.4411880000000  0.4446460000000 1.0
C      1  0.4201380000000  0.4436810000000  0.4450160000000 1.0
C      1  0.5825210000000  0.4404020000000  0.5552260000000 1.0
C      1  0.5765120000000  0.5265340000000  0.5563630000000 1.0
C      1  0.4257630000000  0.5252640000000  0.4379430000000 1.0
C      1  0.5758890000000  0.5197140000000  0.4343930000000 1.0
C      1  0.4234020000000  0.5270130000000  0.5583520000000 1.0
C      1  0.5585070000000  0.5360330000000  0.5959860000000 1.0
C      1  0.4370030000000  0.5336900000000  0.4111860000000 1.0
C      1  0.5656640000000  0.5336280000000  0.4100560000000 1.0
C      1  0.4409740000000  0.5354860000000  0.6002570000000 1.0
C      1  0.4255310000000  0.4758490000000  0.4788890000000 1.0
C      1  0.5739680000000  0.4775540000000  0.5273630000000 1.0
C      1  0.4322430000000  0.4686530000000  0.5323130000000 1.0
C      1  0.5769690000000  0.4763970000000  0.4722860000000 1.0
C      1  0.5650290000000  0.4063400000000  0.5138250000000 1.0
C      1  0.4352730000000  0.4072570000000  0.4848850000000 1.0
C      1  0.5646670000000  0.4065240000000  0.4845900000000 1.0
C      1  0.4349850000000  0.4035040000000  0.5140350000000 1.0
C      1  0.4441460000000  0.4671530000000  0.5856970000000 1.0
C      1  0.5537050000000  0.4647250000000  0.4101800000000 1.0
C      1  0.4459670000000  0.4654060000000  0.4103500000000 1.0
C      1  0.5548360000000  0.4676610000000  0.5878560000000 1.0
C      1  0.4467810000000  0.5105380000000  0.5544810000000 1.0
C      1  0.5513510000000  0.5062590000000  0.4440610000000 1.0
C      1  0.4534460000000  0.5095940000000  0.4515910000000 1.0
C      1  0.5472590000000  0.5144340000000  0.5502250000000 1.0
C      1  0.5141790000000  0.4429460000000  0.5868690000000 1.0
C      1  0.4846930000000  0.4411030000000  0.4096260000000 1.0
C      1  0.5140930000000  0.4416760000000  0.4109620000000 1.0
C      1  0.4840450000000  0.4430940000000  0.5891750000000 1.0
C      1  0.5568710000000  0.5513520000000  0.5143380000000 1.0
C      1  0.4414250000000  0.5523470000000  0.4796720000000 1.0
C      1  0.5424370000000  0.5606170000000  0.4855130000000 1.0
C      1  0.4442540000000  0.5511800000000  0.5167870000000 1.0
C      1  0.5655570000000  0.5751470000000  0.4740630000000 1.0
C      1  0.4299770000000  0.5722580000000  0.5323500000000 1.0
C      1  0.5702800000000  0.5716320000000  0.5320030000000 1.0
C      1  0.4284440000000  0.5741020000000  0.4650480000000 1.0
C      1  0.5571350000000  0.5695970000000  0.5732510000000 1.0
C      1  0.4459010000000  0.5702500000000  0.4276270000000 1.0
C      1  0.5556780000000  0.5657580000000  0.4345280000000 1.0
C      1  0.4421560000000  0.5711690000000  0.5727810000000 1.0
C      1  0.4413780000000  0.4417680000000  0.4264790000000 1.0
C      1  0.5608250000000  0.4412520000000  0.5749640000000 1.0
C      1  0.4404980000000  0.4414730000000  0.5729140000000 1.0
C      1  0.5583910000000  0.4408670000000  0.4261340000000 1.0
C      1  0.5143600000000  0.4004840000000  0.5329300000000 1.0
C      1  0.4848750000000  0.4004890000000  0.4653070000000 1.0
C      1  0.5138160000000  0.3966910000000  0.4661040000000 1.0
C      1  0.4857210000000  0.3948970000000  0.5322910000000 1.0
C      1  0.5158410000000  0.4938080000000  0.5909280000000 1.0
C      1  0.4843400000000  0.4927530000000  0.4055180000000 1.0
C      1  0.5157840000000  0.4934130000000  0.4055300000000 1.0
C      1  0.4840340000000  0.4941240000000  0.5915800000000 1.0
C      1  0.5275320000000  0.4671100000000  0.5949030000000 1.0
C      1  0.4727610000000  0.4659200000000  0.4019580000000 1.0
C      1  0.5269090000000  0.4660280000000  0.4037900000000 1.0
C      1  0.4717120000000  0.4680300000000  0.5930070000000 1.0
C      1  0.5146380000000  0.5489180000000  0.4459210000000 1.0
C      1  0.4853900000000  0.5443710000000  0.5536230000000 1.0
C      1  0.5167450000000  0.5569360000000  0.5457640000000 1.0
C      1  0.4854020000000  0.5556720000000  0.4520980000000 1.0
C      1  0.6174100000000  0.5331750000000  0.4819380000000 1.0
C      1  0.3780700000000  0.5289870000000  0.5161980000000 1.0
C      1  0.6081510000000  0.5315350000000  0.5127380000000 1.0
C      1  0.3865490000000  0.5318270000000  0.4857850000000 1.0
C      1  0.5130450000000  0.5287270000000  0.5150330000000 1.0
C      1  0.4817020000000  0.5338040000000  0.4858550000000 1.0
C      1  0.5103670000000  0.5321570000000  0.4866390000000 1.0
C      1  0.4866430000000  0.5461220000000  0.5139830000000 1.0
C      1  0.4478320000000  0.5959670000000  0.4643830000000 1.0
C      1  0.5537910000000  0.5949880000000  0.5366770000000 1.0
C      1  0.4491940000000  0.5946400000000  0.5335440000000 1.0
C      1  0.5516150000000  0.5992950000000  0.4673710000000 1.0
C      1  0.4072570000000  0.4712550000000  0.4412510000000 1.0
C      1  0.5928990000000  0.4675120000000  0.5533280000000 1.0
C      1  0.4096320000000  0.4644840000000  0.5486160000000 1.0
C      1  0.5927240000000  0.4695370000000  0.4448080000000 1.0
C      1  0.5801640000000  0.5345160000000  0.5049190000000 1.0
C      1  0.4179720000000  0.5357500000000  0.4830150000000 1.0
C      1  0.5856230000000  0.5373790000000  0.4770800000000 1.0
C      1  0.4223150000000  0.5338520000000  0.5099700000000 1.0
C      1  0.5125610000000  0.4898320000000  0.4753260000000 1.0
C      1  0.4744840000000  0.4795160000000  0.5255900000000 1.0
C      1  0.5196320000000  0.4757040000000  0.5210940000000 1.0
C      1  0.4869100000000  0.4884030000000  0.4829940000000 1.0
C      1  0.4643280000000  0.5055050000000  0.5186840000000 1.0
C      1  0.5367620000000  0.5014670000000  0.4851370000000 1.0
C      1  0.4728120000000  0.5080680000000  0.4932480000000 1.0
C      1  0.5329760000000  0.4970170000000  0.5137650000000 1.0
C      1  0.5693510000000  0.4883280000000  0.4060610000000 1.0
C      1  0.4277340000000  0.4907420000000  0.5897280000000 1.0
C      1  0.5703570000000  0.4923950000000  0.5899970000000 1.0
C      1  0.4313630000000  0.4900890000000  0.4080920000000 1.0
C      1  0.4867780000000  0.5801570000000  0.4339530000000 1.0
C      1  0.5138670000000  0.5775150000000  0.5667540000000 1.0
C      1  0.4850050000000  0.5721400000000  0.5645380000000 1.0
C      1  0.5156560000000  0.5765510000000  0.4357950000000 1.0
C      1  0.6181480000000  0.5011960000000  0.4739230000000 1.0
C      1  0.3874490000000  0.5050670000000  0.5286050000000 1.0
C      1  0.6149800000000  0.5051150000000  0.5254910000000 1.0
C      1  0.3826900000000  0.5003270000000  0.4786560000000 1.0
C      1  0.5352120000000  0.5380150000000  0.5328020000000 1.0
C      1  0.4636930000000  0.5391130000000  0.4639430000000 1.0
C      1  0.5309140000000  0.5369950000000  0.4676140000000 1.0
C      1  0.4679330000000  0.5367340000000  0.5305690000000 1.0
C      1  0.4243810000000  0.5569740000000  0.4422030000000 1.0
C      1  0.5771000000000  0.5557820000000  0.5555010000000 1.0
C      1  0.4228920000000  0.5569000000000  0.5562720000000 1.0
C      1  0.5764990000000  0.5557800000000  0.4554970000000 1.0
C      1  0.5414220000000  0.5900950000000  0.4412010000000 1.0
C      1  0.4608970000000  0.5891590000000  0.5596920000000 1.0
C      1  0.5397860000000  0.5901410000000  0.5622970000000 1.0
C      1  0.4611260000000  0.5929950000000  0.4385490000000 1.0
C      1  0.5327690000000  0.6043690000000  0.4885710000000 1.0
C      1  0.4697700000000  0.5964430000000  0.5128200000000 1.0
C      1  0.5325210000000  0.6002030000000  0.5172180000000 1.0
C      1  0.4702450000000  0.5960350000000  0.4835190000000 1.0
C      1  0.5188420000000  0.5798760000000  0.4837490000000 1.0
C      1  0.4897260000000  0.5750590000000  0.5163610000000 1.0
C      1  0.5146670000000  0.5794870000000  0.5258280000000 1.0
C      1  0.4915960000000  0.5779290000000  0.4752710000000 1.0
C      1  0.4577310000000  0.5549050000000  0.5935840000000 1.0
C      1  0.5415100000000  0.5503440000000  0.4136650000000 1.0
C      1  0.4600710000000  0.5513690000000  0.4110390000000 1.0
C      1  0.5399720000000  0.5511990000000  0.5898190000000 1.0
C      1  0.4694170000000  0.4652900000000  0.4788370000000 1.0
C      1  0.5200490000000  0.4524930000000  0.5051860000000 1.0
C      1  0.4729400000000  0.4574630000000  0.5075520000000 1.0
C      1  0.5352340000000  0.4547130000000  0.4809290000000 1.0
C      1  0.4901300000000  0.4354660000000  0.5394110000000 1.0
C      1  0.5176910000000  0.4397400000000  0.4644630000000 1.0
C      1  0.4884260000000  0.4459100000000  0.4588940000000 1.0
C      1  0.5111280000000  0.4462880000000  0.5546570000000 1.0
C      1  0.5260710000000  0.5019900000000  0.4326150000000 1.0
C      1  0.4749240000000  0.5104540000000  0.5629290000000 1.0
C      1  0.5259110000000  0.4985230000000  0.5638940000000 1.0
C      1  0.4748790000000  0.4955100000000  0.4366470000000 1.0
C      1  0.6097360000000  0.4904530000000  0.5504890000000 1.0
C      1  0.3881650000000  0.4837190000000  0.4571530000000 1.0
C      1  0.6213940000000  0.4836660000000  0.4515300000000 1.0
C      1  0.3932430000000  0.4889300000000  0.5525700000000 1.0
C      1  0.5670250000000  0.4508200000000  0.4858130000000 1.0
C      1  0.4290500000000  0.4462910000000  0.5158110000000 1.0
C      1  0.5732000000000  0.4518530000000  0.5134170000000 1.0
C      1  0.4236020000000  0.4486320000000  0.4884970000000 1.0
C      1  0.4160400000000  0.5072060000000  0.5148110000000 1.0
C      1  0.5922750000000  0.4952130000000  0.4860500000000 1.0
C      1  0.4081230000000  0.4949470000000  0.4902820000000 1.0
C      1  0.5914830000000  0.4954620000000  0.5124090000000 1.0
C      1  0.5364380000000  0.3981910000000  0.5140380000000 1.0
C      1  0.4642790000000  0.4017650000000  0.4852540000000 1.0
C      1  0.5356080000000  0.3990240000000  0.4856140000000 1.0
C      1  0.4641620000000  0.3982660000000  0.5132650000000 1.0
C      1  0.4855200000000  0.4868510000000  0.5493270000000 1.0
C      1  0.5133320000000  0.4832760000000  0.4488240000000 1.0
C      1  0.4885530000000  0.4711430000000  0.4423640000000 1.0
C      1  0.5131960000000  0.4778490000000  0.5485960000000 1.0
C      1  0.4135450000000  0.4982280000000  0.4289830000000 1.0
C      1  0.5896260000000  0.5047600000000  0.5704030000000 1.0
C      1  0.4091170000000  0.5041190000000  0.5714580000000 1.0
C      1  0.5886000000000  0.4938740000000  0.4268720000000 1.0
C      1  0.5258740000000  0.5161070000000  0.6089520000000 1.0
C      1  0.4732110000000  0.5159650000000  0.3933040000000 1.0
C      1  0.5280240000000  0.5166460000000  0.3916240000000 1.0
C      1  0.4731380000000  0.5128920000000  0.6095220000000 1.0
C      1  0.5337890000000  0.4263220000000  0.4248430000000 1.0
C      1  0.4652790000000  0.4261400000000  0.5756240000000 1.0
C      1  0.5373150000000  0.4244100000000  0.5757450000000 1.0
C      1  0.4659940000000  0.4258040000000  0.4258970000000 1.0
C      1  0.4450690000000  0.5119850000000  0.3950190000000 1.0
C      1  0.5556340000000  0.5115370000000  0.6075870000000 1.0
C      1  0.4432040000000  0.5088550000000  0.6074770000000 1.0
C      1  0.5564350000000  0.5116170000000  0.3934290000000 1.0
C      1  0.4834910000000  0.5389290000000  0.6008000000000 1.0
C      1  0.5157160000000  0.5407650000000  0.4009260000000 1.0
C      1  0.4856460000000  0.5406920000000  0.4012900000000 1.0
C      1  0.5124100000000  0.5398600000000  0.6006190000000 1.0
C      1  0.4784080000000  0.4132930000000  0.5528440000000 1.0
C      1  0.5264790000000  0.4167980000000  0.4494720000000 1.0
C      1  0.4775240000000  0.4217990000000  0.4497410000000 1.0
C      1  0.5266290000000  0.4210880000000  0.5495310000000 1.0
C      1  0.4199850000000  0.4278170000000  0.4697140000000 1.0
C      1  0.5777670000000  0.4289920000000  0.5281720000000 1.0
C      1  0.4204820000000  0.4228460000000  0.5306260000000 1.0
C      1  0.5780770000000  0.4280070000000  0.4699540000000 1.0
C      1  0.4487840000000  0.4839000000000  0.4664750000000 1.0
C      1  0.5524470000000  0.4953070000000  0.5305330000000 1.0
C      1  0.4391480000000  0.4963850000000  0.5289180000000 1.0
C      1  0.5523310000000  0.4871790000000  0.4658200000000 1.0
C      1  0.4947280000000  0.4386640000000  0.5109080000000 1.0
END
