TITL C-2441169-1362-926 -9.53257502843813e-09 125000 -908.818881500692 0 0 7 (D(inf)h) n - 1
REM
REM in /home/bkarasulu/work/CARBON/AIRSS/Generating-Clusters/ReaxFF-fromJPCA2015/Units_Real/with-SteepDescent/Higher-Symm
REM
REM
REM
REM
REM
REM ./C.cell (1df0a924f5614ab8850e4351716899ee)
REM
REM compiler GCC version 9.2.1 20190827 (Red Hat 9.2.1-1)
REM options -cpp -mtune=generic -march=x86-64 -g -O0 -fpre-include=/usr/include/finclude/math-vector-fortran.h
REM seed 1156860771 -307022049 122869445 154902772 1247292442 383997766 -1529127442 -1055831558 2021751158 1453307957 -1126170990 -1647119388 777375662 335026673 1476048391 3070154 772364018 1372826575 842964825 -1197481138 1878465826 1459600107 -1014917338 1393251957 1938213542 1111641674 -1275767773 1376468524 -83628724 2059698010 -1781556664 -377772795 -995221036
REM
CELL 1.54180   50.00000   50.00000   50.00000   90.00000   90.00000   90.00000
LATT -1
SFAC C  
C      1  0.5000000000000  0.4993230000000  0.4995710000000 1.0
C      1  0.4245620000000  0.4993230000000  0.4995710000000 1.0
C      1  0.5510230000000  0.4993230000000  0.4995710000000 1.0
C      1  0.5252760000000  0.4993230000000  0.4995710000000 1.0
C      1  0.4747240000000  0.4993230000000  0.4995710000000 1.0
C      1  0.4489770000000  0.4993230000000  0.4995710000000 1.0
C      1  0.5754380000000  0.4993230000000  0.4995710000000 1.0
END
