TITL C-2441166-8118-657 5.00597246783993e-13 125000 -1306.00962120889 0 0 10 (D10) n - 1
REM
REM in /home/bkarasulu/work/CARBON/AIRSS/Generating-Clusters/ReaxFF-fromJPCA2015/Units_Real/with-SteepDescent/Higher-Symm
REM
REM
REM
REM
REM
REM ./C.cell (1df0a924f5614ab8850e4351716899ee)
REM
REM compiler GCC version 9.2.1 20190827 (Red Hat 9.2.1-1)
REM options -cpp -mtune=generic -march=x86-64 -g -O0 -fpre-include=/usr/include/finclude/math-vector-fortran.h
REM seed 139868942 276892660 -345407044 441677403 1244152577 -952427259 -1692975401 64752295 -1218017917 -1082845898 -1442767693 724171276 568139568 118412399 -1243942753 -2021219358 -478211192 -1219034371 1474765127 -1054970356 631913836 -1918276079 -1865959707 1483640830 1684766400 264782740 -542364180 -275534047 -1560810709 -1296532068 887210935 -778590746 -1884280775
REM
CELL 1.54180   50.00000   50.00000   50.00000   90.00000   90.00000   90.00000
LATT -1
SFAC C  
C      1  0.5281290000000  0.4614590000000  0.5000000000000 1.0
C      1  0.4720380000000  0.4613380000000  0.5000000000000 1.0
C      1  0.4545900000000  0.5146460000000  0.5000000000000 1.0
C      1  0.4998970000000  0.5477140000000  0.5000000000000 1.0
C      1  0.5453460000000  0.5148420000000  0.5000000000000 1.0
C      1  0.5454100000000  0.4853530000000  0.5000000000000 1.0
C      1  0.5001030000000  0.4522860000000  0.5000000000000 1.0
C      1  0.4546540000000  0.4851580000000  0.5000000000000 1.0
C      1  0.4718720000000  0.5385410000000  0.5000000000000 1.0
C      1  0.5279620000000  0.5386620000000  0.5000000000000 1.0
END
