TITL C-2441156-4686-608 0.0300665816516881 125000 -16363.3030159492 0 0 118 (C1) n - 1
REM
REM in /home/bkarasulu/work/CARBON/AIRSS/Generating-Clusters/ReaxFF-fromJPCA2015/Units_Real/with-SteepDescent/Higher-Symm
REM
REM
REM
REM
REM
REM ./C.cell (1df0a924f5614ab8850e4351716899ee)
REM
REM compiler GCC version 9.2.1 20190827 (Red Hat 9.2.1-1)
REM options -cpp -mtune=generic -march=x86-64 -g -O0 -fpre-include=/usr/include/finclude/math-vector-fortran.h
REM seed -2039624140 738355399 -393645346 -960838369 902887754 -546489742 -1980489074 426101995 -1638263277 1649294292 115713143 -920641789 1596921604 1723793675 237616693 -2093058811 -1333672170 -318059999 -1947324294 -560628541 -876841314 -859731080 1136223077 1040189540 831444428 -1105934567 1507970836 -2140039528 238781118 2064803002 1255550357 1559065747 -79951242
REM
CELL 1.54180   50.00000   50.00000   50.00000   90.00000   90.00000   90.00000
LATT -1
SFAC C  
C      1  0.5064950000000  0.5076890000000  0.4539840000000 1.0
C      1  0.4833290000000  0.5082990000000  0.4658110000000 1.0
C      1  0.4985590000000  0.4848890000000  0.4386060000000 1.0
C      1  0.4887380000000  0.5218310000000  0.5458130000000 1.0
C      1  0.5075910000000  0.5066230000000  0.5334490000000 1.0
C      1  0.5045560000000  0.4870120000000  0.5554770000000 1.0
C      1  0.4526530000000  0.5712910000000  0.4645990000000 1.0
C      1  0.4555810000000  0.4177350000000  0.4635660000000 1.0
C      1  0.5869100000000  0.4979210000000  0.4655670000000 1.0
C      1  0.5445830000000  0.5714690000000  0.5353530000000 1.0
C      1  0.5442090000000  0.4183250000000  0.5364190000000 1.0
C      1  0.4155040000000  0.4995150000000  0.5330950000000 1.0
C      1  0.5529820000000  0.5125300000000  0.4291790000000 1.0
C      1  0.4684630000000  0.5385850000000  0.4242080000000 1.0
C      1  0.4829600000000  0.4436950000000  0.4317840000000 1.0
C      1  0.4494990000000  0.5094420000000  0.5783910000000 1.0
C      1  0.5314100000000  0.5349030000000  0.5779620000000 1.0
C      1  0.5177920000000  0.4444310000000  0.5670940000000 1.0
C      1  0.5730200000000  0.4694650000000  0.4689370000000 1.0
C      1  0.4857130000000  0.5766530000000  0.4609490000000 1.0
C      1  0.4395890000000  0.4443840000000  0.4640670000000 1.0
C      1  0.4275820000000  0.4701880000000  0.5308350000000 1.0
C      1  0.5126770000000  0.5759880000000  0.5322060000000 1.0
C      1  0.5611300000000  0.4448530000000  0.5353640000000 1.0
C      1  0.4652740000000  0.5235750000000  0.5308740000000 1.0
C      1  0.4969020000000  0.4566350000000  0.5240380000000 1.0
C      1  0.5364220000000  0.5212170000000  0.5273750000000 1.0
C      1  0.5297830000000  0.5198450000000  0.4679520000000 1.0
C      1  0.5037330000000  0.4574140000000  0.4745040000000 1.0
C      1  0.4619610000000  0.5224050000000  0.4739960000000 1.0
C      1  0.4199200000000  0.5470340000000  0.4734700000000 1.0
C      1  0.4969340000000  0.4098840000000  0.4678690000000 1.0
C      1  0.5757900000000  0.5377920000000  0.4712230000000 1.0
C      1  0.5801020000000  0.5464290000000  0.5348650000000 1.0
C      1  0.5028580000000  0.4101530000000  0.5321000000000 1.0
C      1  0.4188610000000  0.5414100000000  0.5285860000000 1.0
C      1  0.5207370000000  0.4166510000000  0.5546090000000 1.0
C      1  0.5601180000000  0.5549630000000  0.5543430000000 1.0
C      1  0.4202840000000  0.5238570000000  0.5515370000000 1.0
C      1  0.4790750000000  0.4163790000000  0.4454280000000 1.0
C      1  0.4335950000000  0.5544780000000  0.4493560000000 1.0
C      1  0.5784440000000  0.5203060000000  0.4481040000000 1.0
C      1  0.5404260000000  0.5309250000000  0.4462560000000 1.0
C      1  0.4452210000000  0.5310720000000  0.4395540000000 1.0
C      1  0.5076880000000  0.4473410000000  0.4493760000000 1.0
C      1  0.4495330000000  0.5318170000000  0.5559190000000 1.0
C      1  0.5505710000000  0.5277540000000  0.5559440000000 1.0
C      1  0.4923650000000  0.4490500000000  0.5499050000000 1.0
C      1  0.4274620000000  0.4620290000000  0.4847760000000 1.0
C      1  0.5662340000000  0.4521750000000  0.4906090000000 1.0
C      1  0.5058660000000  0.5819240000000  0.4850620000000 1.0
C      1  0.5728110000000  0.4627290000000  0.5146820000000 1.0
C      1  0.4339260000000  0.4523570000000  0.5092610000000 1.0
C      1  0.4944590000000  0.5801910000000  0.5110170000000 1.0
C      1  0.4150030000000  0.5177890000000  0.4664450000000 1.0
C      1  0.5266850000000  0.4168720000000  0.4671340000000 1.0
C      1  0.5545380000000  0.5687930000000  0.4628630000000 1.0
C      1  0.5858240000000  0.5173850000000  0.5358110000000 1.0
C      1  0.4735670000000  0.4179440000000  0.5328440000000 1.0
C      1  0.4409380000000  0.5647650000000  0.5339740000000 1.0
C      1  0.4761250000000  0.4679060000000  0.4804770000000 1.0
C      1  0.5431260000000  0.4994580000000  0.4843620000000 1.0
C      1  0.4801750000000  0.5424470000000  0.4861970000000 1.0
C      1  0.5248740000000  0.4663870000000  0.5179270000000 1.0
C      1  0.4576360000000  0.4997020000000  0.5153000000000 1.0
C      1  0.5280580000000  0.5436950000000  0.5106270000000 1.0
C      1  0.5306650000000  0.5255610000000  0.4076830000000 1.0
C      1  0.4783390000000  0.5150520000000  0.4139300000000 1.0
C      1  0.5035740000000  0.4553640000000  0.4095930000000 1.0
C      1  0.4689970000000  0.5231010000000  0.5962700000000 1.0
C      1  0.5299630000000  0.5106890000000  0.5914490000000 1.0
C      1  0.4982110000000  0.4576710000000  0.5903450000000 1.0
C      1  0.4441770000000  0.5066840000000  0.4917330000000 1.0
C      1  0.5232110000000  0.4491100000000  0.4940510000000 1.0
C      1  0.5511340000000  0.5543690000000  0.4972050000000 1.0
C      1  0.5547910000000  0.5064250000000  0.5090410000000 1.0
C      1  0.4767670000000  0.4503740000000  0.5043080000000 1.0
C      1  0.4686980000000  0.5460770000000  0.5110200000000 1.0
C      1  0.5469730000000  0.4834670000000  0.5480920000000 1.0
C      1  0.4933280000000  0.5661430000000  0.5512820000000 1.0
C      1  0.4450710000000  0.4617470000000  0.5519890000000 1.0
C      1  0.4541400000000  0.4846480000000  0.4499470000000 1.0
C      1  0.5078690000000  0.5607720000000  0.4482120000000 1.0
C      1  0.5539180000000  0.4621870000000  0.4485630000000 1.0
C      1  0.4589640000000  0.4272960000000  0.5086670000000 1.0
C      1  0.5819580000000  0.4965880000000  0.5139250000000 1.0
C      1  0.4592710000000  0.5732870000000  0.5118370000000 1.0
C      1  0.5415500000000  0.4265490000000  0.4908210000000 1.0
C      1  0.4178790000000  0.4952780000000  0.4860010000000 1.0
C      1  0.5350160000000  0.5781110000000  0.4813800000000 1.0
C      1  0.4722010000000  0.4098630000000  0.4853470000000 1.0
C      1  0.5889410000000  0.5165420000000  0.4872560000000 1.0
C      1  0.4382420000000  0.5678360000000  0.4878910000000 1.0
C      1  0.5277430000000  0.4101400000000  0.5146750000000 1.0
C      1  0.4108830000000  0.5176780000000  0.5123550000000 1.0
C      1  0.5668950000000  0.5661830000000  0.5166690000000 1.0
C      1  0.4841980000000  0.5616670000000  0.4340770000000 1.0
C      1  0.4547530000000  0.4563780000000  0.4433920000000 1.0
C      1  0.5462790000000  0.4831490000000  0.4307780000000 1.0
C      1  0.5074860000000  0.5521640000000  0.5732000000000 1.0
C      1  0.5451320000000  0.4560420000000  0.5556170000000 1.0
C      1  0.4545450000000  0.4813620000000  0.5712320000000 1.0
C      1  0.5040250000000  0.5242800000000  0.4099150000000 1.0
C      1  0.4720050000000  0.4904330000000  0.4275190000000 1.0
C      1  0.5193820000000  0.4773510000000  0.4186030000000 1.0
C      1  0.4898510000000  0.5290570000000  0.5747630000000 1.0
C      1  0.5285370000000  0.4913330000000  0.5709830000000 1.0
C      1  0.4846780000000  0.4786030000000  0.5766670000000 1.0
C      1  0.4652970000000  0.4383430000000  0.5514660000000 1.0
C      1  0.5687300000000  0.5031490000000  0.5535610000000 1.0
C      1  0.4625660000000  0.5601020000000  0.5519320000000 1.0
C      1  0.5349200000000  0.4371960000000  0.4486040000000 1.0
C      1  0.4321870000000  0.5057620000000  0.4467610000000 1.0
C      1  0.5366790000000  0.5590670000000  0.4425450000000 1.0
C      1  0.5080050000000  0.5328630000000  0.4919690000000 1.0
C      1  0.5216440000000  0.4880080000000  0.4984890000000 1.0
C      1  0.4786020000000  0.4893440000000  0.5004260000000 1.0
C      1  0.5015690000000  0.5031860000000  0.5054460000000 1.0
END
