TITL C-2441162-9305-1025 0.145770496887454 125000 -23700.8708845318 0 0 185 (C1) n - 1
REM
REM in /home/bkarasulu/work/CARBON/AIRSS/Generating-Clusters/ReaxFF-fromJPCA2015/Units_Real/with-SteepDescent/Higher-Symm
REM
REM
REM
REM
REM
REM ./C.cell (1df0a924f5614ab8850e4351716899ee)
REM
REM compiler GCC version 9.2.1 20190827 (Red Hat 9.2.1-1)
REM options -cpp -mtune=generic -march=x86-64 -g -O0 -fpre-include=/usr/include/finclude/math-vector-fortran.h
REM seed -1475973578 -225886156 1601924335 -99376787 2016657639 298974153 -1117992482 1455588231 -628028346 -1225976321 -1174603897 2025824769 -1361520345 1268430229 -1899330107 -2085892576 1461525443 -265482422 -1498413556 1566737025 114548603 1283770947 -538458945 -1309396871 337133727 1744485879 571888126 -1336526651 826340833 169712349 1685647908 -326635522 1252726270
REM
CELL 1.54180   50.00000   50.00000   50.00000   90.00000   90.00000   90.00000
LATT -1
SFAC C  
C      1  0.5226380000000  0.4891180000000  0.5522850000000 1.0
C      1  0.5100210000000  0.5371660000000  0.5337580000000 1.0
C      1  0.5105470000000  0.5460740000000  0.4687120000000 1.0
C      1  0.5145870000000  0.4859750000000  0.4510440000000 1.0
C      1  0.5132420000000  0.4420100000000  0.5006800000000 1.0
C      1  0.4719240000000  0.5858250000000  0.5409870000000 1.0
C      1  0.4726050000000  0.5693700000000  0.4295870000000 1.0
C      1  0.4738750000000  0.4545300000000  0.4085760000000 1.0
C      1  0.4698140000000  0.4065870000000  0.5160530000000 1.0
C      1  0.4745280000000  0.4861410000000  0.5990270000000 1.0
C      1  0.5628750000000  0.5016990000000  0.4782890000000 1.0
C      1  0.5528910000000  0.4777650000000  0.4951310000000 1.0
C      1  0.5632550000000  0.4892330000000  0.5196720000000 1.0
C      1  0.5501640000000  0.5155400000000  0.5206330000000 1.0
C      1  0.5596950000000  0.5233480000000  0.4960980000000 1.0
C      1  0.5359700000000  0.5177290000000  0.6099350000000 1.0
C      1  0.5353770000000  0.6057660000000  0.5175640000000 1.0
C      1  0.5357500000000  0.5478990000000  0.4066070000000 1.0
C      1  0.5317530000000  0.4229150000000  0.4233670000000 1.0
C      1  0.5350670000000  0.4058820000000  0.5462690000000 1.0
C      1  0.4145690000000  0.4564560000000  0.5112430000000 1.0
C      1  0.4153190000000  0.5045880000000  0.5407140000000 1.0
C      1  0.4171620000000  0.5438830000000  0.5084920000000 1.0
C      1  0.4152050000000  0.5176130000000  0.4597580000000 1.0
C      1  0.4169490000000  0.4718250000000  0.4702940000000 1.0
C      1  0.5467320000000  0.5025010000000  0.5592120000000 1.0
C      1  0.5347500000000  0.5636620000000  0.5040170000000 1.0
C      1  0.5285850000000  0.5125610000000  0.4390980000000 1.0
C      1  0.5403870000000  0.4483260000000  0.4590070000000 1.0
C      1  0.5346430000000  0.4505520000000  0.5356840000000 1.0
C      1  0.5090690000000  0.5599580000000  0.5163250000000 1.0
C      1  0.5050830000000  0.5303380000000  0.4429310000000 1.0
C      1  0.5131900000000  0.4558580000000  0.4532880000000 1.0
C      1  0.5073340000000  0.4494640000000  0.5282550000000 1.0
C      1  0.5052510000000  0.5038120000000  0.5694740000000 1.0
C      1  0.5941050000000  0.4903530000000  0.4794720000000 1.0
C      1  0.5992280000000  0.4743770000000  0.5038130000000 1.0
C      1  0.5926910000000  0.4963940000000  0.5222460000000 1.0
C      1  0.6000900000000  0.5241310000000  0.5089530000000 1.0
C      1  0.6011440000000  0.5186030000000  0.4803210000000 1.0
C      1  0.4618660000000  0.5391720000000  0.5190850000000 1.0
C      1  0.4626220000000  0.5311980000000  0.4682390000000 1.0
C      1  0.4630520000000  0.4786730000000  0.4527460000000 1.0
C      1  0.4604920000000  0.4590090000000  0.5071820000000 1.0
C      1  0.4645020000000  0.4945480000000  0.5436890000000 1.0
C      1  0.4794010000000  0.5190080000000  0.5102000000000 1.0
C      1  0.4831480000000  0.5188780000000  0.4850130000000 1.0
C      1  0.4885560000000  0.4940740000000  0.4783470000000 1.0
C      1  0.4818780000000  0.4699560000000  0.4929550000000 1.0
C      1  0.4847190000000  0.4950450000000  0.5230040000000 1.0
C      1  0.4514260000000  0.4746520000000  0.4074680000000 1.0
C      1  0.4480600000000  0.4132700000000  0.4985510000000 1.0
C      1  0.4541390000000  0.4681180000000  0.5885640000000 1.0
C      1  0.4489700000000  0.5700260000000  0.5521850000000 1.0
C      1  0.4519820000000  0.5772080000000  0.4484220000000 1.0
C      1  0.4335030000000  0.4612240000000  0.5526940000000 1.0
C      1  0.4271520000000  0.5263870000000  0.5563810000000 1.0
C      1  0.4283430000000  0.5609740000000  0.4854050000000 1.0
C      1  0.4296350000000  0.5043980000000  0.4378010000000 1.0
C      1  0.4283500000000  0.4458750000000  0.4655840000000 1.0
C      1  0.5705120000000  0.4568200000000  0.4317790000000 1.0
C      1  0.5708080000000  0.4284910000000  0.5182910000000 1.0
C      1  0.5662290000000  0.4953690000000  0.5794540000000 1.0
C      1  0.5702330000000  0.5710360000000  0.5254670000000 1.0
C      1  0.5684760000000  0.5472120000000  0.4410730000000 1.0
C      1  0.4960360000000  0.4489890000000  0.4794680000000 1.0
C      1  0.4838930000000  0.4581980000000  0.5445700000000 1.0
C      1  0.4996190000000  0.5286220000000  0.5574290000000 1.0
C      1  0.4970370000000  0.5613180000000  0.4902120000000 1.0
C      1  0.4874930000000  0.4947800000000  0.4483710000000 1.0
C      1  0.5243040000000  0.4728240000000  0.4118420000000 1.0
C      1  0.5207060000000  0.4139980000000  0.4983100000000 1.0
C      1  0.5247170000000  0.4670020000000  0.5889230000000 1.0
C      1  0.5245230000000  0.5767870000000  0.5565370000000 1.0
C      1  0.5232250000000  0.5727910000000  0.4506230000000 1.0
C      1  0.5562850000000  0.5504040000000  0.4913000000000 1.0
C      1  0.5557800000000  0.5083440000000  0.4506580000000 1.0
C      1  0.5578970000000  0.4543880000000  0.4788530000000 1.0
C      1  0.5576670000000  0.4663250000000  0.5369040000000 1.0
C      1  0.5572690000000  0.5287350000000  0.5482920000000 1.0
C      1  0.4667760000000  0.4106160000000  0.5464270000000 1.0
C      1  0.4686110000000  0.5146400000000  0.5972010000000 1.0
C      1  0.4694790000000  0.5980720000000  0.5144520000000 1.0
C      1  0.4662170000000  0.5474960000000  0.4099750000000 1.0
C      1  0.4720090000000  0.4305690000000  0.4235190000000 1.0
C      1  0.4731790000000  0.5197080000000  0.4188210000000 1.0
C      1  0.4755120000000  0.4340150000000  0.4685570000000 1.0
C      1  0.4826070000000  0.4325490000000  0.5587760000000 1.0
C      1  0.4750730000000  0.5331040000000  0.5701150000000 1.0
C      1  0.4749060000000  0.5765990000000  0.4897580000000 1.0
C      1  0.5185240000000  0.5229390000000  0.4864620000000 1.0
C      1  0.5175430000000  0.4945000000000  0.4782640000000 1.0
C      1  0.5247570000000  0.4760890000000  0.4997230000000 1.0
C      1  0.5140200000000  0.4907810000000  0.5235250000000 1.0
C      1  0.5225690000000  0.5185630000000  0.5163620000000 1.0
C      1  0.5550730000000  0.4299060000000  0.4408000000000 1.0
C      1  0.5589610000000  0.4246250000000  0.5465670000000 1.0
C      1  0.5584510000000  0.5225470000000  0.5922790000000 1.0
C      1  0.5601160000000  0.5916890000000  0.5042990000000 1.0
C      1  0.5585010000000  0.5324410000000  0.4165310000000 1.0
C      1  0.4626000000000  0.5937500000000  0.4690370000000 1.0
C      1  0.4627670000000  0.5003940000000  0.3987470000000 1.0
C      1  0.4605580000000  0.4091620000000  0.4699420000000 1.0
C      1  0.4638340000000  0.4400420000000  0.5819620000000 1.0
C      1  0.4591750000000  0.5576610000000  0.5777990000000 1.0
C      1  0.5839130000000  0.4688570000000  0.5523350000000 1.0
C      1  0.5875920000000  0.5271600000000  0.5486310000000 1.0
C      1  0.5845470000000  0.5604180000000  0.4785910000000 1.0
C      1  0.5808940000000  0.4970540000000  0.4400010000000 1.0
C      1  0.5855430000000  0.4481430000000  0.4744560000000 1.0
C      1  0.4441550000000  0.5981860000000  0.5008570000000 1.0
C      1  0.4388650000000  0.5377590000000  0.4091730000000 1.0
C      1  0.4493520000000  0.4229640000000  0.4388800000000 1.0
C      1  0.4425100000000  0.4219340000000  0.5577070000000 1.0
C      1  0.4441310000000  0.5284820000000  0.5938570000000 1.0
C      1  0.5133230000000  0.5387830000000  0.3904530000000 1.0
C      1  0.5114990000000  0.4050470000000  0.4313840000000 1.0
C      1  0.5138420000000  0.4025150000000  0.5675620000000 1.0
C      1  0.5110800000000  0.5336630000000  0.6112940000000 1.0
C      1  0.5126860000000  0.6182490000000  0.5024160000000 1.0
C      1  0.5549240000000  0.4120200000000  0.4692860000000 1.0
C      1  0.5536560000000  0.4429260000000  0.5710280000000 1.0
C      1  0.5524080000000  0.5441920000000  0.5738940000000 1.0
C      1  0.5542230000000  0.5880510000000  0.4749320000000 1.0
C      1  0.5550970000000  0.5039280000000  0.4095770000000 1.0
C      1  0.4979990000000  0.4678220000000  0.6019770000000 1.0
C      1  0.4950380000000  0.5856170000000  0.5595740000000 1.0
C      1  0.4969730000000  0.5836230000000  0.4377740000000 1.0
C      1  0.4989230000000  0.4673960000000  0.3993770000000 1.0
C      1  0.4947020000000  0.3973160000000  0.5024660000000 1.0
C      1  0.4576180000000  0.4523600000000  0.4635620000000 1.0
C      1  0.4563070000000  0.4550610000000  0.5350830000000 1.0
C      1  0.4573070000000  0.5223790000000  0.5508230000000 1.0
C      1  0.4559350000000  0.5562930000000  0.4943020000000 1.0
C      1  0.4549700000000  0.5199020000000  0.4413220000000 1.0
C      1  0.5075160000000  0.5482580000000  0.4186140000000 1.0
C      1  0.5047640000000  0.4342000000000  0.4298010000000 1.0
C      1  0.5066910000000  0.4071390000000  0.5401520000000 1.0
C      1  0.5111550000000  0.5079750000000  0.5976010000000 1.0
C      1  0.5077880000000  0.6009820000000  0.5248010000000 1.0
C      1  0.3934710000000  0.5099940000000  0.4782850000000 1.0
C      1  0.3924300000000  0.4805030000000  0.4837370000000 1.0
C      1  0.3920440000000  0.4749200000000  0.5124560000000 1.0
C      1  0.3925100000000  0.5029640000000  0.5230290000000 1.0
C      1  0.3945300000000  0.5243340000000  0.5032990000000 1.0
C      1  0.4312190000000  0.4795620000000  0.5749320000000 1.0
C      1  0.4254790000000  0.5625230000000  0.5364720000000 1.0
C      1  0.4281650000000  0.5623590000000  0.4549790000000 1.0
C      1  0.4309000000000  0.4735280000000  0.4274000000000 1.0
C      1  0.4238570000000  0.4275220000000  0.5083690000000 1.0
C      1  0.5494050000000  0.5727190000000  0.5439680000000 1.0
C      1  0.5538680000000  0.5706750000000  0.4507420000000 1.0
C      1  0.5537630000000  0.4744100000000  0.4150770000000 1.0
C      1  0.5559500000000  0.4144160000000  0.4980020000000 1.0
C      1  0.5539660000000  0.4684160000000  0.5861600000000 1.0
C      1  0.5096780000000  0.4230630000000  0.5881750000000 1.0
C      1  0.5073500000000  0.5584780000000  0.5964100000000 1.0
C      1  0.5088230000000  0.6114470000000  0.4741020000000 1.0
C      1  0.5096840000000  0.5108460000000  0.3857650000000 1.0
C      1  0.5075450000000  0.3925970000000  0.4569010000000 1.0
C      1  0.5908210000000  0.4677270000000  0.4498220000000 1.0
C      1  0.5899930000000  0.4465740000000  0.5034590000000 1.0
C      1  0.5938510000000  0.4964390000000  0.5557160000000 1.0
C      1  0.5904520000000  0.5451530000000  0.5267060000000 1.0
C      1  0.5917670000000  0.5396770000000  0.4599390000000 1.0
C      1  0.5256940000000  0.5017270000000  0.4094140000000 1.0
C      1  0.5265170000000  0.4069250000000  0.4714630000000 1.0
C      1  0.5247710000000  0.4426980000000  0.5741510000000 1.0
C      1  0.5287900000000  0.5592310000000  0.5774450000000 1.0
C      1  0.5266980000000  0.5908200000000  0.4716040000000 1.0
C      1  0.4855670000000  0.3924000000000  0.4755030000000 1.0
C      1  0.4889050000000  0.4405790000000  0.5978820000000 1.0
C      1  0.4850830000000  0.5711460000000  0.5827490000000 1.0
C      1  0.4874450000000  0.6029790000000  0.4570140000000 1.0
C      1  0.4880220000000  0.4918170000000  0.3870100000000 1.0
C      1  0.4382500000000  0.5228100000000  0.5089780000000 1.0
C      1  0.4395150000000  0.5160300000000  0.4804120000000 1.0
C      1  0.4408130000000  0.4871640000000  0.4758790000000 1.0
C      1  0.4378160000000  0.4760940000000  0.5039800000000 1.0
C      1  0.4395790000000  0.4973430000000  0.5250300000000 1.0
C      1  0.4243670000000  0.5450980000000  0.4323790000000 1.0
C      1  0.4297820000000  0.4447930000000  0.4368710000000 1.0
C      1  0.4244590000000  0.4259520000000  0.5367590000000 1.0
C      1  0.4266360000000  0.5099310000000  0.5804520000000 1.0
C      1  0.4274580000000  0.5845530000000  0.5189410000000 1.0
END
