TITL C-2441161-5029-1055 0.147474050791753 125000 -21539.9851590119 0 0 168 (C1) n - 1
REM
REM in /home/bkarasulu/work/CARBON/AIRSS/Generating-Clusters/ReaxFF-fromJPCA2015/Units_Real/with-SteepDescent/Higher-Symm
REM
REM
REM
REM
REM
REM ./C.cell (1df0a924f5614ab8850e4351716899ee)
REM
REM compiler GCC version 9.2.1 20190827 (Red Hat 9.2.1-1)
REM options -cpp -mtune=generic -march=x86-64 -g -O0 -fpre-include=/usr/include/finclude/math-vector-fortran.h
REM seed 427146714 -1443236170 -1920528813 680752357 -1756165804 2015009252 400852198 1066260849 2069164279 -2017808197 -309748292 -519938671 314529802 1779047701 -591889209 -324102426 1112426579 1781539554 1934274701 1283117752 -265138157 750683212 1830446187 -162111113 961575020 -1035311681 -1901397631 832833543 1137271206 1493219502 172299710 754384961 340595537
REM
CELL 1.54180   50.00000   50.00000   50.00000   90.00000   90.00000   90.00000
LATT -1
SFAC C  
C      1  0.5548440000000  0.4370890000000  0.4475480000000 1.0
C      1  0.4754630000000  0.4719760000000  0.5228060000000 1.0
C      1  0.5854630000000  0.4637400000000  0.4644390000000 1.0
C      1  0.4326630000000  0.5598810000000  0.4348400000000 1.0
C      1  0.4427220000000  0.4870570000000  0.5522020000000 1.0
C      1  0.4276890000000  0.5687320000000  0.5083250000000 1.0
C      1  0.4010100000000  0.4640760000000  0.4925930000000 1.0
C      1  0.5357840000000  0.4717530000000  0.5534260000000 1.0
C      1  0.5599170000000  0.5238860000000  0.4224810000000 1.0
C      1  0.5434510000000  0.5305130000000  0.5182520000000 1.0
C      1  0.5386740000000  0.3981050000000  0.4958340000000 1.0
C      1  0.4065240000000  0.5065660000000  0.4707610000000 1.0
C      1  0.6046920000000  0.5175420000000  0.4825820000000 1.0
C      1  0.5595290000000  0.5507020000000  0.4276010000000 1.0
C      1  0.5073750000000  0.5102970000000  0.5400210000000 1.0
C      1  0.5014980000000  0.4404120000000  0.4955140000000 1.0
C      1  0.4821010000000  0.5826760000000  0.4977370000000 1.0
C      1  0.4064000000000  0.4764150000000  0.5404820000000 1.0
C      1  0.4374310000000  0.4260310000000  0.5038550000000 1.0
C      1  0.4233610000000  0.5585720000000  0.4625310000000 1.0
C      1  0.5146900000000  0.5797580000000  0.4306590000000 1.0
C      1  0.5836340000000  0.5584520000000  0.5054680000000 1.0
C      1  0.4749730000000  0.5885910000000  0.4388270000000 1.0
C      1  0.4416530000000  0.4441180000000  0.4351770000000 1.0
C      1  0.4638980000000  0.4786520000000  0.4491210000000 1.0
C      1  0.6012390000000  0.5014560000000  0.4553920000000 1.0
C      1  0.4367210000000  0.5360670000000  0.4187470000000 1.0
C      1  0.5845380000000  0.4824970000000  0.4418500000000 1.0
C      1  0.4855490000000  0.4494880000000  0.4745760000000 1.0
C      1  0.5304750000000  0.5693050000000  0.4668510000000 1.0
C      1  0.4598480000000  0.4225380000000  0.5493970000000 1.0
C      1  0.4459060000000  0.4857320000000  0.4263520000000 1.0
C      1  0.4341250000000  0.5778230000000  0.4812870000000 1.0
C      1  0.5940200000000  0.5304860000000  0.5060250000000 1.0
C      1  0.4926090000000  0.5130760000000  0.4553020000000 1.0
C      1  0.4796300000000  0.5398750000000  0.5979570000000 1.0
C      1  0.4747330000000  0.4120420000000  0.4604200000000 1.0
C      1  0.5029940000000  0.5552180000000  0.4212120000000 1.0
C      1  0.5213520000000  0.5128940000000  0.4547020000000 1.0
C      1  0.5557300000000  0.4843800000000  0.5328590000000 1.0
C      1  0.5907420000000  0.4466380000000  0.5155130000000 1.0
C      1  0.5476300000000  0.5802770000000  0.4877720000000 1.0
C      1  0.5115840000000  0.3961250000000  0.5052870000000 1.0
C      1  0.5052320000000  0.5965070000000  0.5084160000000 1.0
C      1  0.4456370000000  0.4227730000000  0.4544920000000 1.0
C      1  0.4478430000000  0.5628340000000  0.5486870000000 1.0
C      1  0.4919090000000  0.5629030000000  0.5893120000000 1.0
C      1  0.5305790000000  0.5199950000000  0.5951700000000 1.0
C      1  0.4197480000000  0.4563200000000  0.4713320000000 1.0
C      1  0.3994140000000  0.4917950000000  0.4941090000000 1.0
C      1  0.4355230000000  0.5501590000000  0.5676840000000 1.0
C      1  0.5849800000000  0.4794240000000  0.5637860000000 1.0
C      1  0.5170100000000  0.4744630000000  0.4767720000000 1.0
C      1  0.5395810000000  0.4918660000000  0.5887450000000 1.0
C      1  0.5271540000000  0.4561380000000  0.4989570000000 1.0
C      1  0.5122340000000  0.4546620000000  0.4327700000000 1.0
C      1  0.4284740000000  0.4610900000000  0.5668010000000 1.0
C      1  0.4725710000000  0.3973470000000  0.5146240000000 1.0
C      1  0.4840650000000  0.4254240000000  0.4360050000000 1.0
C      1  0.4856450000000  0.5460990000000  0.4007520000000 1.0
C      1  0.5849470000000  0.4807780000000  0.4883170000000 1.0
C      1  0.4810360000000  0.4653570000000  0.4056090000000 1.0
C      1  0.5933220000000  0.5178120000000  0.5325670000000 1.0
C      1  0.5456340000000  0.5417010000000  0.5836340000000 1.0
C      1  0.4691810000000  0.5476870000000  0.5357570000000 1.0
C      1  0.4781620000000  0.5001050000000  0.5331090000000 1.0
C      1  0.4598240000000  0.5929610000000  0.4826680000000 1.0
C      1  0.5999500000000  0.4745660000000  0.5132820000000 1.0
C      1  0.4580200000000  0.5207100000000  0.5858110000000 1.0
C      1  0.4487320000000  0.4096390000000  0.5246940000000 1.0
C      1  0.4180380000000  0.5416920000000  0.5072860000000 1.0
C      1  0.4610620000000  0.5336080000000  0.4349770000000 1.0
C      1  0.5703880000000  0.4550680000000  0.5340700000000 1.0
C      1  0.5327330000000  0.5872260000000  0.5130660000000 1.0
C      1  0.5670030000000  0.4961690000000  0.5803730000000 1.0
C      1  0.5550390000000  0.4317010000000  0.5649650000000 1.0
C      1  0.4777440000000  0.5198990000000  0.3910650000000 1.0
C      1  0.4478390000000  0.4702160000000  0.5286730000000 1.0
C      1  0.4240290000000  0.5202660000000  0.5281180000000 1.0
C      1  0.6008460000000  0.5300600000000  0.4572010000000 1.0
C      1  0.5460770000000  0.4456320000000  0.5868150000000 1.0
C      1  0.5236520000000  0.4530450000000  0.5343180000000 1.0
C      1  0.5485180000000  0.5027160000000  0.4571540000000 1.0
C      1  0.4855550000000  0.5396230000000  0.4655460000000 1.0
C      1  0.5073700000000  0.5539430000000  0.4771540000000 1.0
C      1  0.5784870000000  0.4497850000000  0.5616100000000 1.0
C      1  0.5395550000000  0.5683010000000  0.4392640000000 1.0
C      1  0.4622930000000  0.6016310000000  0.5330330000000 1.0
C      1  0.4754240000000  0.5555910000000  0.5070470000000 1.0
C      1  0.4224180000000  0.4675350000000  0.4351450000000 1.0
C      1  0.5696340000000  0.5686050000000  0.5300420000000 1.0
C      1  0.4974940000000  0.4679610000000  0.4539340000000 1.0
C      1  0.5222580000000  0.5154850000000  0.4823490000000 1.0
C      1  0.5059180000000  0.5113340000000  0.3899800000000 1.0
C      1  0.4553210000000  0.4935300000000  0.6006130000000 1.0
C      1  0.4409000000000  0.5828410000000  0.5304180000000 1.0
C      1  0.4897320000000  0.4789550000000  0.5680630000000 1.0
C      1  0.5524590000000  0.4165580000000  0.5122700000000 1.0
C      1  0.5022800000000  0.5444100000000  0.5041760000000 1.0
C      1  0.4893130000000  0.6094440000000  0.5273260000000 1.0
C      1  0.5345620000000  0.5682250000000  0.5677490000000 1.0
C      1  0.5732220000000  0.5688320000000  0.4813220000000 1.0
C      1  0.4888850000000  0.4282130000000  0.5484490000000 1.0
C      1  0.4761730000000  0.4460470000000  0.5891090000000 1.0
C      1  0.5683060000000  0.5257740000000  0.5767640000000 1.0
C      1  0.4374550000000  0.4748380000000  0.5899610000000 1.0
C      1  0.4786690000000  0.4964840000000  0.4858810000000 1.0
C      1  0.5053000000000  0.4456080000000  0.5884460000000 1.0
C      1  0.4465390000000  0.4721380000000  0.4705070000000 1.0
C      1  0.5764320000000  0.5497050000000  0.4560640000000 1.0
C      1  0.5005600000000  0.5961920000000  0.4495120000000 1.0
C      1  0.5614330000000  0.4958290000000  0.4268510000000 1.0
C      1  0.5253080000000  0.4980540000000  0.4059560000000 1.0
C      1  0.4448150000000  0.5205470000000  0.4557380000000 1.0
C      1  0.4794010000000  0.5106480000000  0.4303400000000 1.0
C      1  0.4112930000000  0.4929930000000  0.4460470000000 1.0
C      1  0.5565560000000  0.5440930000000  0.5400170000000 1.0
C      1  0.5770730000000  0.5312430000000  0.5509580000000 1.0
C      1  0.5445030000000  0.5309190000000  0.4903800000000 1.0
C      1  0.5427660000000  0.4816250000000  0.5069430000000 1.0
C      1  0.5528780000000  0.4545970000000  0.4243900000000 1.0
C      1  0.5747910000000  0.4376050000000  0.4695480000000 1.0
C      1  0.5106770000000  0.4101590000000  0.5454990000000 1.0
C      1  0.4970170000000  0.3914440000000  0.4630170000000 1.0
C      1  0.5741720000000  0.4292970000000  0.4979660000000 1.0
C      1  0.5139510000000  0.5373530000000  0.4014050000000 1.0
C      1  0.5015440000000  0.5216330000000  0.5913050000000 1.0
C      1  0.5065310000000  0.4951370000000  0.4920680000000 1.0
C      1  0.4676480000000  0.4447730000000  0.4215610000000 1.0
C      1  0.5055130000000  0.5273180000000  0.5636620000000 1.0
C      1  0.5965010000000  0.4898320000000  0.5384850000000 1.0
C      1  0.4692810000000  0.4980750000000  0.5598630000000 1.0
C      1  0.5111980000000  0.4295380000000  0.4356610000000 1.0
C      1  0.4924000000000  0.5641700000000  0.5445550000000 1.0
C      1  0.4573980000000  0.5155160000000  0.4934670000000 1.0
C      1  0.5302670000000  0.4214610000000  0.4532530000000 1.0
C      1  0.5091580000000  0.4599590000000  0.4049500000000 1.0
C      1  0.5162280000000  0.5504950000000  0.5525570000000 1.0
C      1  0.4607340000000  0.5638880000000  0.4377640000000 1.0
C      1  0.4787180000000  0.4759740000000  0.5953990000000 1.0
C      1  0.4904150000000  0.4134320000000  0.4964370000000 1.0
C      1  0.5458730000000  0.5824610000000  0.5385350000000 1.0
C      1  0.4053810000000  0.4974660000000  0.5216080000000 1.0
C      1  0.4691570000000  0.4674880000000  0.4900000000000 1.0
C      1  0.4856320000000  0.5925700000000  0.5490020000000 1.0
C      1  0.5268400000000  0.4637240000000  0.5961340000000 1.0
C      1  0.4296010000000  0.5269100000000  0.5792720000000 1.0
C      1  0.4162930000000  0.5340600000000  0.4787290000000 1.0
C      1  0.4761430000000  0.6051280000000  0.4619060000000 1.0
C      1  0.4299050000000  0.5109720000000  0.4338360000000 1.0
C      1  0.4630910000000  0.5420130000000  0.4828290000000 1.0
C      1  0.5157410000000  0.5272910000000  0.5192620000000 1.0
C      1  0.4524470000000  0.4417650000000  0.5691770000000 1.0
C      1  0.5370630000000  0.4249210000000  0.5396150000000 1.0
C      1  0.5597700000000  0.5281530000000  0.4674110000000 1.0
C      1  0.4312730000000  0.4494900000000  0.5203280000000 1.0
C      1  0.4230670000000  0.5097860000000  0.5564520000000 1.0
C      1  0.4283190000000  0.4279900000000  0.4762120000000 1.0
C      1  0.4948300000000  0.4574280000000  0.5442050000000 1.0
C      1  0.5333700000000  0.4981720000000  0.5470190000000 1.0
C      1  0.4705620000000  0.4936160000000  0.4078350000000 1.0
C      1  0.4971780000000  0.3905100000000  0.5290840000000 1.0
C      1  0.4580480000000  0.5193590000000  0.5226090000000 1.0
C      1  0.5254050000000  0.3967720000000  0.4673990000000 1.0
C      1  0.5090750000000  0.5803690000000  0.5780160000000 1.0
C      1  0.4031710000000  0.4562090000000  0.5205490000000 1.0
C      1  0.5579440000000  0.4884320000000  0.4842690000000 1.0
C      1  0.5378980000000  0.4718340000000  0.4044100000000 1.0
END
