TITL C-2441168-9922-235 0.0465532748303174 125000 -13585.4456558935 0 0 100 (C1) n - 1
REM
REM in /home/bkarasulu/work/CARBON/AIRSS/Generating-Clusters/ReaxFF-fromJPCA2015/Units_Real/with-SteepDescent/Higher-Symm
REM
REM
REM
REM
REM
REM ./C.cell (1df0a924f5614ab8850e4351716899ee)
REM
REM compiler GCC version 9.2.1 20190827 (Red Hat 9.2.1-1)
REM options -cpp -mtune=generic -march=x86-64 -g -O0 -fpre-include=/usr/include/finclude/math-vector-fortran.h
REM seed -593091587 -1318874602 1452578614 -241725517 -1435315574 1156764956 666464536 -2024438021 1615779099 -1143647932 516651852 1689269019 -554229904 -1922199816 -836934806 -1517643030 -713635429 1372488261 -419926872 -438498212 -1156752625 -723733822 -1903630928 -1434472991 1696900462 -1127466393 2028562776 -62547064 1547697486 1785729260 1719322665 -307069857 1531847393
REM
CELL 1.54180   50.00000   50.00000   50.00000   90.00000   90.00000   90.00000
LATT -1
SFAC C  
C      1  0.5390250000000  0.5246230000000  0.5776290000000 1.0
C      1  0.5294480000000  0.4641630000000  0.5752800000000 1.0
C      1  0.4166560000000  0.4851450000000  0.4750980000000 1.0
C      1  0.5616550000000  0.5328840000000  0.5383300000000 1.0
C      1  0.4782450000000  0.4411830000000  0.4535180000000 1.0
C      1  0.5080460000000  0.5558830000000  0.5139270000000 1.0
C      1  0.5456600000000  0.4472500000000  0.4543700000000 1.0
C      1  0.4458550000000  0.4681280000000  0.5412140000000 1.0
C      1  0.4378390000000  0.4759740000000  0.5131920000000 1.0
C      1  0.5763210000000  0.4734660000000  0.5352300000000 1.0
C      1  0.5612250000000  0.4380490000000  0.5061250000000 1.0
C      1  0.5637220000000  0.5184320000000  0.5636800000000 1.0
C      1  0.5200260000000  0.4381680000000  0.4935780000000 1.0
C      1  0.5669530000000  0.4675660000000  0.4570910000000 1.0
C      1  0.5035860000000  0.5469220000000  0.4372150000000 1.0
C      1  0.5271860000000  0.4850880000000  0.4846240000000 1.0
C      1  0.4989600000000  0.5799840000000  0.4993820000000 1.0
C      1  0.5086430000000  0.5167820000000  0.5341450000000 1.0
C      1  0.4568750000000  0.4407220000000  0.5355620000000 1.0
C      1  0.4857900000000  0.5433200000000  0.5674120000000 1.0
C      1  0.5409890000000  0.4450600000000  0.5557460000000 1.0
C      1  0.5198350000000  0.4466900000000  0.4384670000000 1.0
C      1  0.5098250000000  0.4623690000000  0.4796750000000 1.0
C      1  0.5179830000000  0.4435070000000  0.5385550000000 1.0
C      1  0.4792050000000  0.4169070000000  0.4639620000000 1.0
C      1  0.5703100000000  0.4894970000000  0.5587700000000 1.0
C      1  0.4748100000000  0.4156360000000  0.4930990000000 1.0
C      1  0.5252530000000  0.5295380000000  0.4712140000000 1.0
C      1  0.5078940000000  0.5019080000000  0.4972800000000 1.0
C      1  0.4646570000000  0.5003270000000  0.4294490000000 1.0
C      1  0.5778310000000  0.4897770000000  0.5101540000000 1.0
C      1  0.5146440000000  0.5676130000000  0.5396570000000 1.0
C      1  0.5622820000000  0.4476830000000  0.5344190000000 1.0
C      1  0.5086940000000  0.4840290000000  0.5825370000000 1.0
C      1  0.4841610000000  0.5647350000000  0.4320660000000 1.0
C      1  0.5415000000000  0.4850130000000  0.5590040000000 1.0
C      1  0.4427320000000  0.5539430000000  0.5171850000000 1.0
C      1  0.5030320000000  0.4270580000000  0.4511570000000 1.0
C      1  0.4907600000000  0.4716360000000  0.5665940000000 1.0
C      1  0.4630950000000  0.5297270000000  0.5509790000000 1.0
C      1  0.4268110000000  0.5309010000000  0.5261320000000 1.0
C      1  0.4694010000000  0.5045290000000  0.5644520000000 1.0
C      1  0.4803150000000  0.5182090000000  0.4732270000000 1.0
C      1  0.4619270000000  0.5776740000000  0.4768960000000 1.0
C      1  0.5275050000000  0.4954020000000  0.5355570000000 1.0
C      1  0.5189350000000  0.5278710000000  0.5044150000000 1.0
C      1  0.4521760000000  0.4751530000000  0.4397300000000 1.0
C      1  0.5107420000000  0.4878010000000  0.4438770000000 1.0
C      1  0.4372200000000  0.4672720000000  0.4645520000000 1.0
C      1  0.5492160000000  0.4340250000000  0.4803210000000 1.0
C      1  0.4546770000000  0.5255670000000  0.4393880000000 1.0
C      1  0.5077240000000  0.5792830000000  0.4724390000000 1.0
C      1  0.4737650000000  0.4823820000000  0.5462410000000 1.0
C      1  0.4558050000000  0.4339230000000  0.5070800000000 1.0
C      1  0.4773070000000  0.5363650000000  0.4956060000000 1.0
C      1  0.5269780000000  0.4555510000000  0.5160390000000 1.0
C      1  0.4336180000000  0.5185220000000  0.5516190000000 1.0
C      1  0.5708280000000  0.5330140000000  0.4896230000000 1.0
C      1  0.5178560000000  0.5138190000000  0.4127260000000 1.0
C      1  0.5381950000000  0.5309890000000  0.4260870000000 1.0
C      1  0.4123660000000  0.4856140000000  0.5041610000000 1.0
C      1  0.5125390000000  0.5146150000000  0.5820540000000 1.0
C      1  0.5320230000000  0.5619400000000  0.4654720000000 1.0
C      1  0.4318660000000  0.4906110000000  0.5607610000000 1.0
C      1  0.4784520000000  0.4315430000000  0.5529850000000 1.0
C      1  0.4721570000000  0.4566210000000  0.4313770000000 1.0
C      1  0.4996650000000  0.4170080000000  0.5067790000000 1.0
C      1  0.5331400000000  0.4897850000000  0.4248410000000 1.0
C      1  0.5383830000000  0.4811230000000  0.5128020000000 1.0
C      1  0.5465500000000  0.5191780000000  0.4523360000000 1.0
C      1  0.4866090000000  0.5653280000000  0.5492100000000 1.0
C      1  0.5562900000000  0.5585290000000  0.4859520000000 1.0
C      1  0.4510060000000  0.5509570000000  0.4858740000000 1.0
C      1  0.4892600000000  0.4826030000000  0.5142680000000 1.0
C      1  0.5711350000000  0.5120330000000  0.4681230000000 1.0
C      1  0.5705480000000  0.4860960000000  0.4812840000000 1.0
C      1  0.5111640000000  0.5323150000000  0.5583970000000 1.0
C      1  0.4994440000000  0.4660850000000  0.4287880000000 1.0
C      1  0.4730980000000  0.5401410000000  0.4195870000000 1.0
C      1  0.5295950000000  0.5565980000000  0.4355370000000 1.0
C      1  0.5731360000000  0.5191220000000  0.5149790000000 1.0
C      1  0.4832010000000  0.4676450000000  0.4880820000000 1.0
C      1  0.4441410000000  0.4554500000000  0.4910410000000 1.0
C      1  0.5028660000000  0.5188270000000  0.4549800000000 1.0
C      1  0.4993620000000  0.4205500000000  0.5349520000000 1.0
C      1  0.4135930000000  0.5145470000000  0.5050120000000 1.0
C      1  0.5589430000000  0.4867300000000  0.4374930000000 1.0
C      1  0.4929830000000  0.4484800000000  0.5708100000000 1.0
C      1  0.4695520000000  0.5840310000000  0.5043770000000 1.0
C      1  0.4209780000000  0.5150190000000  0.4760350000000 1.0
C      1  0.4829900000000  0.5800670000000  0.4569930000000 1.0
C      1  0.4689290000000  0.4923650000000  0.4792360000000 1.0
C      1  0.5438060000000  0.5582330000000  0.5382600000000 1.0
C      1  0.4397340000000  0.5324370000000  0.4634640000000 1.0
C      1  0.5500560000000  0.5631120000000  0.5120560000000 1.0
C      1  0.4760560000000  0.5226360000000  0.5212770000000 1.0
C      1  0.4631020000000  0.5697980000000  0.5297270000000 1.0
C      1  0.4490220000000  0.4952860000000  0.5850780000000 1.0
C      1  0.4624920000000  0.4983780000000  0.5076520000000 1.0
C      1  0.4875630000000  0.5139250000000  0.4153270000000 1.0
END
