TITL C-2441155-8282-45 0.106561921763324 125000 -12109.9400002384 0 0 102 (C1) n - 1
REM
REM in /home/bkarasulu/work/CARBON/AIRSS/Generating-Clusters/ReaxFF-fromJPCA2015/Units_Real/with-SteepDescent/Higher-Symm
REM
REM
REM
REM
REM
REM ./C.cell (1df0a924f5614ab8850e4351716899ee)
REM
REM compiler GCC version 9.2.1 20190827 (Red Hat 9.2.1-1)
REM options -cpp -mtune=generic -march=x86-64 -g -O0 -fpre-include=/usr/include/finclude/math-vector-fortran.h
REM seed 263239232 -47573560 -5327465 361128449 142668615 -421730564 -445382808 -1289299016 2105432375 1938457332 -989359269 1110210706 14128281 -348141026 1603023279 -2078813109 806278270 -1080013987 -1815782215 -1969416081 201571341 1779999793 2144610114 -369231925 -1293837441 -1136452627 -469261534 -284128901 -761771834 -296199789 -2124011813 -1783841909 1986506685
REM
CELL 1.54180   50.00000   50.00000   50.00000   90.00000   90.00000   90.00000
LATT -1
SFAC C  
C      1  0.4540880000000  0.5545850000000  0.4651850000000 1.0
C      1  0.4614930000000  0.5065820000000  0.5659450000000 1.0
C      1  0.4563310000000  0.4404450000000  0.4710080000000 1.0
C      1  0.5448810000000  0.4451090000000  0.4633090000000 1.0
C      1  0.5415570000000  0.4950330000000  0.5665660000000 1.0
C      1  0.5430280000000  0.5587350000000  0.4718420000000 1.0
C      1  0.4406940000000  0.5592070000000  0.5241220000000 1.0
C      1  0.4421660000000  0.4489770000000  0.5372300000000 1.0
C      1  0.4424370000000  0.4919020000000  0.4342720000000 1.0
C      1  0.5573930000000  0.4415910000000  0.5251490000000 1.0
C      1  0.5579570000000  0.5525650000000  0.5378550000000 1.0
C      1  0.5579730000000  0.5069390000000  0.4342760000000 1.0
C      1  0.5205130000000  0.4428170000000  0.5085720000000 1.0
C      1  0.5223200000000  0.5217140000000  0.4442190000000 1.0
C      1  0.5222550000000  0.5376810000000  0.5493070000000 1.0
C      1  0.4784290000000  0.5582190000000  0.5102650000000 1.0
C      1  0.4786340000000  0.4783220000000  0.4451440000000 1.0
C      1  0.4798980000000  0.4634300000000  0.5467210000000 1.0
C      1  0.4948540000000  0.5253970000000  0.5772260000000 1.0
C      1  0.5032030000000  0.4230670000000  0.4766970000000 1.0
C      1  0.5041200000000  0.5567200000000  0.4449030000000 1.0
C      1  0.4956500000000  0.4732680000000  0.5752840000000 1.0
C      1  0.4949870000000  0.5770800000000  0.4779020000000 1.0
C      1  0.4965330000000  0.4429220000000  0.4453280000000 1.0
C      1  0.4899680000000  0.4730550000000  0.4963450000000 1.0
C      1  0.4883800000000  0.5156930000000  0.4805820000000 1.0
C      1  0.4907700000000  0.5104410000000  0.5258790000000 1.0
C      1  0.5111160000000  0.5254330000000  0.4957490000000 1.0
C      1  0.5102450000000  0.4820810000000  0.4795620000000 1.0
C      1  0.5097290000000  0.4897400000000  0.5258800000000 1.0
C      1  0.4653810000000  0.4810460000000  0.4831410000000 1.0
C      1  0.4633650000000  0.5183550000000  0.4964430000000 1.0
C      1  0.4646550000000  0.4975890000000  0.5198070000000 1.0
C      1  0.5361310000000  0.5133180000000  0.4847710000000 1.0
C      1  0.5359090000000  0.4835860000000  0.4943680000000 1.0
C      1  0.5351910000000  0.5035200000000  0.5236750000000 1.0
C      1  0.5105190000000  0.5644520000000  0.5502450000000 1.0
C      1  0.5077840000000  0.4242390000000  0.5278360000000 1.0
C      1  0.5069820000000  0.5128340000000  0.4210960000000 1.0
C      1  0.4905150000000  0.4350320000000  0.5491570000000 1.0
C      1  0.4924260000000  0.5755210000000  0.5288890000000 1.0
C      1  0.4925810000000  0.4873530000000  0.4210320000000 1.0
C      1  0.4234330000000  0.5150380000000  0.4758630000000 1.0
C      1  0.4241950000000  0.5125580000000  0.5275640000000 1.0
C      1  0.4237570000000  0.4705190000000  0.4986420000000 1.0
C      1  0.5771310000000  0.4843410000000  0.4758610000000 1.0
C      1  0.5756310000000  0.4869830000000  0.5262760000000 1.0
C      1  0.5764500000000  0.5292270000000  0.4982040000000 1.0
C      1  0.4313670000000  0.4706150000000  0.4499600000000 1.0
C      1  0.4317720000000  0.5557530000000  0.4972790000000 1.0
C      1  0.4325290000000  0.4723940000000  0.5516910000000 1.0
C      1  0.5668620000000  0.5288750000000  0.4500360000000 1.0
C      1  0.5676850000000  0.4424050000000  0.4982570000000 1.0
C      1  0.5695990000000  0.5293040000000  0.5498580000000 1.0
C      1  0.5396290000000  0.4319630000000  0.4880360000000 1.0
C      1  0.5405340000000  0.5454430000000  0.4471990000000 1.0
C      1  0.5438940000000  0.5234480000000  0.5649900000000 1.0
C      1  0.4669420000000  0.5703560000000  0.4858150000000 1.0
C      1  0.4573350000000  0.4552810000000  0.4467930000000 1.0
C      1  0.4585090000000  0.4781550000000  0.5649550000000 1.0
C      1  0.4742770000000  0.4291370000000  0.5068550000000 1.0
C      1  0.4736520000000  0.5298500000000  0.4353380000000 1.0
C      1  0.4731450000000  0.5483550000000  0.5549460000000 1.0
C      1  0.5257310000000  0.5698420000000  0.5078110000000 1.0
C      1  0.5258190000000  0.4722850000000  0.4366560000000 1.0
C      1  0.5261720000000  0.4533790000000  0.5563070000000 1.0
C      1  0.5640310000000  0.4659260000000  0.4567740000000 1.0
C      1  0.5633470000000  0.5549700000000  0.4921470000000 1.0
C      1  0.5618280000000  0.4800410000000  0.5519810000000 1.0
C      1  0.4369340000000  0.5329540000000  0.4573760000000 1.0
C      1  0.4366780000000  0.4446490000000  0.4918790000000 1.0
C      1  0.4391670000000  0.5199030000000  0.5515610000000 1.0
C      1  0.4218110000000  0.4851910000000  0.4742080000000 1.0
C      1  0.4225890000000  0.5286990000000  0.5013500000000 1.0
C      1  0.4225940000000  0.4840110000000  0.5256470000000 1.0
C      1  0.5776250000000  0.5144260000000  0.4736730000000 1.0
C      1  0.5773500000000  0.4708880000000  0.5010090000000 1.0
C      1  0.5778900000000  0.5154230000000  0.5246920000000 1.0
C      1  0.5050180000000  0.4596400000000  0.4219580000000 1.0
C      1  0.5041260000000  0.5878120000000  0.5046880000000 1.0
C      1  0.5048960000000  0.4461020000000  0.5731790000000 1.0
C      1  0.4957790000000  0.5404820000000  0.4216660000000 1.0
C      1  0.4962450000000  0.4113640000000  0.5030020000000 1.0
C      1  0.4943100000000  0.5536010000000  0.5732860000000 1.0
C      1  0.5537140000000  0.5698340000000  0.5153600000000 1.0
C      1  0.5539610000000  0.4515890000000  0.5525930000000 1.0
C      1  0.5535190000000  0.4783010000000  0.4321810000000 1.0
C      1  0.4467780000000  0.4304480000000  0.5150310000000 1.0
C      1  0.4456890000000  0.5482830000000  0.5514930000000 1.0
C      1  0.4466340000000  0.5209340000000  0.4325020000000 1.0
C      1  0.5371900000000  0.5327280000000  0.5267200000000 1.0
C      1  0.5381630000000  0.4618720000000  0.5157910000000 1.0
C      1  0.5368840000000  0.5041090000000  0.4565170000000 1.0
C      1  0.4623340000000  0.4683020000000  0.5253370000000 1.0
C      1  0.4618510000000  0.5397000000000  0.5163490000000 1.0
C      1  0.4615550000000  0.4951050000000  0.4583610000000 1.0
C      1  0.5177500000000  0.5560590000000  0.4849440000000 1.0
C      1  0.5117110000000  0.4906450000000  0.5586090000000 1.0
C      1  0.5166280000000  0.4599020000000  0.4598210000000 1.0
C      1  0.4824260000000  0.4428120000000  0.4841470000000 1.0
C      1  0.4897240000000  0.5104670000000  0.5568020000000 1.0
C      1  0.4821820000000  0.5417220000000  0.4593930000000 1.0
END
