TITL C-2441163-1170-1045 0.00799087058202123 125000 -11940.1053986349 0 0 81 (C1) n - 1
REM
REM in /home/bkarasulu/work/CARBON/AIRSS/Generating-Clusters/ReaxFF-fromJPCA2015/Units_Real/with-SteepDescent/Higher-Symm
REM
REM
REM
REM
REM
REM ./C.cell (1df0a924f5614ab8850e4351716899ee)
REM
REM compiler GCC version 9.2.1 20190827 (Red Hat 9.2.1-1)
REM options -cpp -mtune=generic -march=x86-64 -g -O0 -fpre-include=/usr/include/finclude/math-vector-fortran.h
REM seed 1053177358 -160709027 1093506474 -2019427750 -1884114632 -349569836 -2142705000 -1183519570 1772431624 173731473 1255513303 -618306213 984646972 1253554823 1474496598 2026415086 -466057469 -152439838 1806457937 1508372812 -1199185713 -856318118 1300147952 -1713245352 -87426033 25274333 -1234772754 696250868 -567127210 -1293997293 162587900 -1726126494 -2037065991
REM
CELL 1.54180   50.00000   50.00000   50.00000   90.00000   90.00000   90.00000
LATT -1
SFAC C  
C      1  0.5773290000000  0.5320510000000  0.5489050000000 1.0
C      1  0.5761940000000  0.4788790000000  0.5567230000000 1.0
C      1  0.5752210000000  0.4542750000000  0.5405230000000 1.0
C      1  0.5759880000000  0.4405780000000  0.4893330000000 1.0
C      1  0.5754690000000  0.4521620000000  0.4621510000000 1.0
C      1  0.5775460000000  0.5012720000000  0.4429170000000 1.0
C      1  0.5770920000000  0.5304830000000  0.4500520000000 1.0
C      1  0.5759370000000  0.5510860000000  0.4854370000000 1.0
C      1  0.5765330000000  0.5520080000000  0.5265870000000 1.0
C      1  0.5583970000000  0.5480060000000  0.4642790000000 1.0
C      1  0.5583010000000  0.5592190000000  0.5045580000000 1.0
C      1  0.5536260000000  0.5476830000000  0.5447230000000 1.0
C      1  0.5647970000000  0.5056400000000  0.5512070000000 1.0
C      1  0.5520460000000  0.4631640000000  0.5557600000000 1.0
C      1  0.5628940000000  0.4490060000000  0.5144200000000 1.0
C      1  0.5523690000000  0.4382460000000  0.4729160000000 1.0
C      1  0.5634210000000  0.4772730000000  0.4528460000000 1.0
C      1  0.5546000000000  0.5167190000000  0.4365870000000 1.0
C      1  0.4507690000000  0.4696990000000  0.5614590000000 1.0
C      1  0.4505270000000  0.4372570000000  0.5277510000000 1.0
C      1  0.4508000000000  0.4343210000000  0.4808600000000 1.0
C      1  0.4504970000000  0.4621570000000  0.4429630000000 1.0
C      1  0.4506270000000  0.5075480000000  0.4318370000000 1.0
C      1  0.4505250000000  0.5496960000000  0.4525040000000 1.0
C      1  0.4506980000000  0.5685580000000  0.4955460000000 1.0
C      1  0.4502650000000  0.5554860000000  0.5405210000000 1.0
C      1  0.4500310000000  0.5164620000000  0.5666160000000 1.0
C      1  0.5033090000000  0.5664740000000  0.4973970000000 1.0
C      1  0.5019230000000  0.5516710000000  0.5407420000000 1.0
C      1  0.4992150000000  0.5154440000000  0.5668050000000 1.0
C      1  0.5020010000000  0.4701000000000  0.5583290000000 1.0
C      1  0.5035780000000  0.4385570000000  0.5255610000000 1.0
C      1  0.5021420000000  0.4364400000000  0.4799400000000 1.0
C      1  0.5036700000000  0.4639640000000  0.4435020000000 1.0
C      1  0.5018460000000  0.5084390000000  0.4345440000000 1.0
C      1  0.5032900000000  0.5489540000000  0.4553030000000 1.0
C      1  0.5311780000000  0.5368640000000  0.4718400000000 1.0
C      1  0.5309160000000  0.5460750000000  0.4998910000000 1.0
C      1  0.5308610000000  0.5337630000000  0.5316910000000 1.0
C      1  0.5385230000000  0.5058470000000  0.5397230000000 1.0
C      1  0.5305810000000  0.4767230000000  0.5398620000000 1.0
C      1  0.5349910000000  0.4571400000000  0.5131000000000 1.0
C      1  0.5303910000000  0.4556890000000  0.4835520000000 1.0
C      1  0.5353190000000  0.4794840000000  0.4597360000000 1.0
C      1  0.5308730000000  0.5079530000000  0.4526920000000 1.0
C      1  0.4917960000000  0.4382120000000  0.4518160000000 1.0
C      1  0.4919310000000  0.4824610000000  0.4240230000000 1.0
C      1  0.4917960000000  0.5355460000000  0.4310950000000 1.0
C      1  0.4918430000000  0.5720030000000  0.4700820000000 1.0
C      1  0.4917690000000  0.5739800000000  0.5236260000000 1.0
C      1  0.4907470000000  0.5430490000000  0.5669060000000 1.0
C      1  0.4912290000000  0.4904340000000  0.5783890000000 1.0
C      1  0.4920560000000  0.4426420000000  0.5524220000000 1.0
C      1  0.4917690000000  0.4219140000000  0.5044690000000 1.0
C      1  0.4632760000000  0.5344580000000  0.4307070000000 1.0
C      1  0.4632130000000  0.5711220000000  0.4689520000000 1.0
C      1  0.4632510000000  0.5742900000000  0.5218390000000 1.0
C      1  0.4619970000000  0.5433070000000  0.5646920000000 1.0
C      1  0.4624760000000  0.4915870000000  0.5772150000000 1.0
C      1  0.4634370000000  0.4440860000000  0.5533240000000 1.0
C      1  0.4630530000000  0.4226780000000  0.5051200000000 1.0
C      1  0.4631330000000  0.4378740000000  0.4540250000000 1.0
C      1  0.4632490000000  0.4817800000000  0.4248530000000 1.0
C      1  0.4902330000000  0.4644800000000  0.5151090000000 1.0
C      1  0.4886690000000  0.4627160000000  0.4883360000000 1.0
C      1  0.4905850000000  0.4786600000000  0.4669520000000 1.0
C      1  0.4887880000000  0.5045600000000  0.4609420000000 1.0
C      1  0.4881800000000  0.5280940000000  0.4739570000000 1.0
C      1  0.4882710000000  0.5383750000000  0.4986970000000 1.0
C      1  0.4890660000000  0.5309840000000  0.5244870000000 1.0
C      1  0.4909040000000  0.5086170000000  0.5390130000000 1.0
C      1  0.4893190000000  0.4822990000000  0.5351530000000 1.0
C      1  0.4362110000000  0.5045940000000  0.4571250000000 1.0
C      1  0.4361450000000  0.5311730000000  0.4699100000000 1.0
C      1  0.4363370000000  0.5432110000000  0.4968370000000 1.0
C      1  0.4362270000000  0.5350520000000  0.5251430000000 1.0
C      1  0.4361500000000  0.5106180000000  0.5416680000000 1.0
C      1  0.4366440000000  0.4812740000000  0.5386970000000 1.0
C      1  0.4363630000000  0.4606930000000  0.5176400000000 1.0
C      1  0.4365200000000  0.4586290000000  0.4882080000000 1.0
C      1  0.4362640000000  0.4760320000000  0.4643840000000 1.0
END
