TITL C-2441157-2117-1029 0.103983531838838 125000 -24486.1385982299 0 0 185 (C1) n - 1
REM
REM in /home/bkarasulu/work/CARBON/AIRSS/Generating-Clusters/ReaxFF-fromJPCA2015/Units_Real/with-SteepDescent/Higher-Symm
REM
REM
REM
REM
REM
REM ./C.cell (1df0a924f5614ab8850e4351716899ee)
REM
REM compiler GCC version 9.2.1 20190827 (Red Hat 9.2.1-1)
REM options -cpp -mtune=generic -march=x86-64 -g -O0 -fpre-include=/usr/include/finclude/math-vector-fortran.h
REM seed -254869331 2037796119 -886603325 -721510559 648747133 1986694874 -366316375 1955429390 726607061 -1343523476 791230254 591065763 794566793 -1370966512 -287559276 -1061267600 -1390721085 -161276261 -51669774 -1898354795 455362342 1705769807 295960547 677970669 -1673821394 -1831160207 -1961225834 -1099686438 -1216970822 1364889568 -2090530925 1053948874 -637905702
REM
CELL 1.54180   50.00000   50.00000   50.00000   90.00000   90.00000   90.00000
LATT -1
SFAC C  
C      1  0.4464320000000  0.5826610000000  0.4957100000000 1.0
C      1  0.4590290000000  0.5765650000000  0.4691560000000 1.0
C      1  0.4811430000000  0.5826110000000  0.4494870000000 1.0
C      1  0.5105600000000  0.5761860000000  0.4503540000000 1.0
C      1  0.5375600000000  0.5828510000000  0.4620540000000 1.0
C      1  0.5494100000000  0.5763440000000  0.4882760000000 1.0
C      1  0.5501960000000  0.5840630000000  0.5207310000000 1.0
C      1  0.5332240000000  0.5840780000000  0.5425760000000 1.0
C      1  0.5017200000000  0.5759370000000  0.5503930000000 1.0
C      1  0.4733330000000  0.5828620000000  0.5468930000000 1.0
C      1  0.4551770000000  0.5761760000000  0.5239590000000 1.0
C      1  0.4450130000000  0.4882600000000  0.5892030000000 1.0
C      1  0.4019030000000  0.4876890000000  0.5453340000000 1.0
C      1  0.3912400000000  0.4891860000000  0.4849180000000 1.0
C      1  0.4159420000000  0.4898120000000  0.4333040000000 1.0
C      1  0.4656100000000  0.4896700000000  0.3957520000000 1.0
C      1  0.5286470000000  0.4891850000000  0.3925950000000 1.0
C      1  0.5809350000000  0.4891640000000  0.4261030000000 1.0
C      1  0.6058970000000  0.4882960000000  0.4826400000000 1.0
C      1  0.6023840000000  0.4889090000000  0.5441280000000 1.0
C      1  0.5625120000000  0.4898410000000  0.5932370000000 1.0
C      1  0.5031730000000  0.4878950000000  0.6085150000000 1.0
C      1  0.4790740000000  0.5604970000000  0.5891020000000 1.0
C      1  0.4339360000000  0.5607710000000  0.5638060000000 1.0
C      1  0.4104400000000  0.5606610000000  0.5179020000000 1.0
C      1  0.4131870000000  0.5627260000000  0.4667080000000 1.0
C      1  0.4456150000000  0.5604520000000  0.4260240000000 1.0
C      1  0.4942690000000  0.5613580000000  0.4083150000000 1.0
C      1  0.5444700000000  0.5605890000000  0.4203130000000 1.0
C      1  0.5809860000000  0.5624430000000  0.4563970000000 1.0
C      1  0.5912250000000  0.5604490000000  0.5069350000000 1.0
C      1  0.5718960000000  0.5601940000000  0.5553040000000 1.0
C      1  0.5299900000000  0.5606450000000  0.5856700000000 1.0
C      1  0.5631260000000  0.3988540000000  0.4947810000000 1.0
C      1  0.5449070000000  0.4003260000000  0.5374820000000 1.0
C      1  0.5201750000000  0.3865840000000  0.5377250000000 1.0
C      1  0.4991790000000  0.3991460000000  0.5509920000000 1.0
C      1  0.4696950000000  0.4053540000000  0.5506970000000 1.0
C      1  0.4503110000000  0.4006460000000  0.5146410000000 1.0
C      1  0.4398180000000  0.3982040000000  0.4855780000000 1.0
C      1  0.4680760000000  0.4033560000000  0.4570040000000 1.0
C      1  0.4913690000000  0.3866560000000  0.4510690000000 1.0
C      1  0.5132860000000  0.3998700000000  0.4401660000000 1.0
C      1  0.5497460000000  0.3969880000000  0.4698960000000 1.0
C      1  0.3876310000000  0.5163420000000  0.4735330000000 1.0
C      1  0.4242120000000  0.5134180000000  0.4163590000000 1.0
C      1  0.4791090000000  0.5154950000000  0.3890690000000 1.0
C      1  0.5442930000000  0.5145310000000  0.3966340000000 1.0
C      1  0.5928850000000  0.5159480000000  0.4329060000000 1.0
C      1  0.6133880000000  0.5127710000000  0.4968940000000 1.0
C      1  0.5973280000000  0.5150790000000  0.5578720000000 1.0
C      1  0.5504450000000  0.5157710000000  0.6014140000000 1.0
C      1  0.4859250000000  0.5100830000000  0.6129540000000 1.0
C      1  0.4296510000000  0.5133120000000  0.5871530000000 1.0
C      1  0.3942180000000  0.5127990000000  0.5349090000000 1.0
C      1  0.4885780000000  0.4694270000000  0.6103680000000 1.0
C      1  0.4365810000000  0.4654940000000  0.5869330000000 1.0
C      1  0.3968230000000  0.4671330000000  0.5327420000000 1.0
C      1  0.3929920000000  0.4650010000000  0.4747340000000 1.0
C      1  0.4217750000000  0.4633470000000  0.4267200000000 1.0
C      1  0.4752180000000  0.4654750000000  0.3918780000000 1.0
C      1  0.5385690000000  0.4635990000000  0.3967800000000 1.0
C      1  0.5874430000000  0.4643310000000  0.4335480000000 1.0
C      1  0.6056670000000  0.4652690000000  0.4909760000000 1.0
C      1  0.5964250000000  0.4639990000000  0.5533520000000 1.0
C      1  0.5528050000000  0.4653120000000  0.5981510000000 1.0
C      1  0.4831580000000  0.5352560000000  0.4574900000000 1.0
C      1  0.5087310000000  0.5476090000000  0.4559940000000 1.0
C      1  0.5309320000000  0.5350300000000  0.4683790000000 1.0
C      1  0.5439720000000  0.5474010000000  0.4907230000000 1.0
C      1  0.5467080000000  0.5334030000000  0.5150410000000 1.0
C      1  0.5267840000000  0.5346770000000  0.5364350000000 1.0
C      1  0.5024270000000  0.5473160000000  0.5432280000000 1.0
C      1  0.4776750000000  0.5339530000000  0.5406800000000 1.0
C      1  0.4608470000000  0.5471150000000  0.5223600000000 1.0
C      1  0.4554000000000  0.5352240000000  0.4971660000000 1.0
C      1  0.4631950000000  0.5480540000000  0.4730240000000 1.0
C      1  0.5418950000000  0.4066970000000  0.4442640000000 1.0
C      1  0.5605430000000  0.4205030000000  0.4804550000000 1.0
C      1  0.5647270000000  0.4110160000000  0.5187870000000 1.0
C      1  0.5388140000000  0.4241990000000  0.5513840000000 1.0
C      1  0.5139430000000  0.4233450000000  0.5620930000000 1.0
C      1  0.4741380000000  0.4334860000000  0.5584160000000 1.0
C      1  0.4447930000000  0.4111170000000  0.5403810000000 1.0
C      1  0.4358600000000  0.4204730000000  0.5005150000000 1.0
C      1  0.4411470000000  0.4101570000000  0.4618280000000 1.0
C      1  0.4759700000000  0.4251250000000  0.4412110000000 1.0
C      1  0.5022980000000  0.4262360000000  0.4372900000000 1.0
C      1  0.5393740000000  0.4381360000000  0.4083190000000 1.0
C      1  0.5804590000000  0.4393290000000  0.4438690000000 1.0
C      1  0.5945970000000  0.4435750000000  0.4981770000000 1.0
C      1  0.5834840000000  0.4393400000000  0.5512770000000 1.0
C      1  0.5429890000000  0.4404590000000  0.5908430000000 1.0
C      1  0.4873090000000  0.4440130000000  0.5992520000000 1.0
C      1  0.4370850000000  0.4425960000000  0.5759160000000 1.0
C      1  0.4091030000000  0.4421610000000  0.5303260000000 1.0
C      1  0.4057120000000  0.4401330000000  0.4746750000000 1.0
C      1  0.4330770000000  0.4383260000000  0.4251920000000 1.0
C      1  0.4822240000000  0.4396430000000  0.3990540000000 1.0
C      1  0.4002210000000  0.5337230000000  0.5162680000000 1.0
C      1  0.4005300000000  0.5379180000000  0.4608700000000 1.0
C      1  0.4426210000000  0.5340720000000  0.4154000000000 1.0
C      1  0.4967820000000  0.5352300000000  0.3971200000000 1.0
C      1  0.5522400000000  0.5337640000000  0.4146960000000 1.0
C      1  0.5939280000000  0.5370730000000  0.4519170000000 1.0
C      1  0.6026120000000  0.5345840000000  0.5112680000000 1.0
C      1  0.5786500000000  0.5344950000000  0.5647510000000 1.0
C      1  0.5304870000000  0.5344920000000  0.5968280000000 1.0
C      1  0.4738740000000  0.5336450000000  0.5992060000000 1.0
C      1  0.4236770000000  0.5346940000000  0.5698010000000 1.0
C      1  0.5040890000000  0.5702780000000  0.5799310000000 1.0
C      1  0.4608360000000  0.5708800000000  0.5690780000000 1.0
C      1  0.4283060000000  0.5700290000000  0.5376820000000 1.0
C      1  0.4208710000000  0.5715430000000  0.4933510000000 1.0
C      1  0.4349040000000  0.5703300000000  0.4504250000000 1.0
C      1  0.4727240000000  0.5710960000000  0.4254430000000 1.0
C      1  0.5178240000000  0.5704450000000  0.4208820000000 1.0
C      1  0.5561400000000  0.5716530000000  0.4443430000000 1.0
C      1  0.5787760000000  0.5705770000000  0.4833730000000 1.0
C      1  0.5745140000000  0.5708100000000  0.5285590000000 1.0
C      1  0.5468030000000  0.5708490000000  0.5641040000000 1.0
C      1  0.4499500000000  0.5108510000000  0.4283920000000 1.0
C      1  0.4958810000000  0.5123220000000  0.4121400000000 1.0
C      1  0.5426080000000  0.5100470000000  0.4249240000000 1.0
C      1  0.5792490000000  0.5153180000000  0.4571230000000 1.0
C      1  0.5879250000000  0.5115360000000  0.5103560000000 1.0
C      1  0.5693400000000  0.5113740000000  0.5536840000000 1.0
C      1  0.5291640000000  0.5111940000000  0.5826080000000 1.0
C      1  0.4797430000000  0.5109320000000  0.5856460000000 1.0
C      1  0.4340870000000  0.5121440000000  0.5588310000000 1.0
C      1  0.4151580000000  0.5096200000000  0.5147970000000 1.0
C      1  0.4159640000000  0.5180630000000  0.4706620000000 1.0
C      1  0.5305910000000  0.5071640000000  0.4681860000000 1.0
C      1  0.5508600000000  0.4917460000000  0.4830980000000 1.0
C      1  0.5437850000000  0.5037300000000  0.5140600000000 1.0
C      1  0.5226730000000  0.5077990000000  0.5329960000000 1.0
C      1  0.5014140000000  0.4942760000000  0.5410740000000 1.0
C      1  0.4754270000000  0.5049550000000  0.5440710000000 1.0
C      1  0.4629040000000  0.4951950000000  0.5207110000000 1.0
C      1  0.4566740000000  0.5075590000000  0.4973760000000 1.0
C      1  0.4557090000000  0.4947100000000  0.4711270000000 1.0
C      1  0.4812600000000  0.5072940000000  0.4583380000000 1.0
C      1  0.5064900000000  0.4955220000000  0.4588930000000 1.0
C      1  0.5091580000000  0.4870240000000  0.4144800000000 1.0
C      1  0.5518550000000  0.4846580000000  0.4360780000000 1.0
C      1  0.5802720000000  0.4912330000000  0.4721100000000 1.0
C      1  0.5819870000000  0.4858130000000  0.5219810000000 1.0
C      1  0.5579190000000  0.4859220000000  0.5626300000000 1.0
C      1  0.5144880000000  0.4864850000000  0.5832930000000 1.0
C      1  0.4680320000000  0.4883940000000  0.5730870000000 1.0
C      1  0.4290130000000  0.4858760000000  0.5474630000000 1.0
C      1  0.4176450000000  0.4825680000000  0.5025340000000 1.0
C      1  0.4284190000000  0.4962490000000  0.4591920000000 1.0
C      1  0.4622050000000  0.4843190000000  0.4266250000000 1.0
C      1  0.5537970000000  0.4751420000000  0.5208730000000 1.0
C      1  0.5396420000000  0.4704270000000  0.5457670000000 1.0
C      1  0.5088610000000  0.4704680000000  0.5550610000000 1.0
C      1  0.4783100000000  0.4591070000000  0.5459870000000 1.0
C      1  0.4531630000000  0.4691750000000  0.5284780000000 1.0
C      1  0.4435730000000  0.4670380000000  0.4981660000000 1.0
C      1  0.4620650000000  0.4646020000000  0.4749960000000 1.0
C      1  0.4744130000000  0.4682430000000  0.4480120000000 1.0
C      1  0.5078210000000  0.4718390000000  0.4412350000000 1.0
C      1  0.5359980000000  0.4671330000000  0.4541800000000 1.0
C      1  0.5372470000000  0.4653330000000  0.4834060000000 1.0
C      1  0.5554250000000  0.4285480000000  0.4322800000000 1.0
C      1  0.5820500000000  0.4367320000000  0.4744730000000 1.0
C      1  0.5824150000000  0.4324510000000  0.5220500000000 1.0
C      1  0.5585630000000  0.4337460000000  0.5667200000000 1.0
C      1  0.5127910000000  0.4358580000000  0.5871590000000 1.0
C      1  0.4621530000000  0.4347710000000  0.5855090000000 1.0
C      1  0.4289260000000  0.4327970000000  0.5498280000000 1.0
C      1  0.4121040000000  0.4331990000000  0.5027280000000 1.0
C      1  0.4257110000000  0.4318170000000  0.4535020000000 1.0
C      1  0.4619000000000  0.4322630000000  0.4190590000000 1.0
C      1  0.5097840000000  0.4374000000000  0.4119270000000 1.0
C      1  0.4997340000000  0.6224480000000  0.4997430000000 1.0
C      1  0.4998280000000  0.5190660000000  0.4995440000000 1.0
C      1  0.5004280000000  0.4396330000000  0.4994510000000 1.0
C      1  0.5000100000000  0.5979140000000  0.4998550000000 1.0
C      1  0.5097160000000  0.4656290000000  0.4968510000000 1.0
C      1  0.5008410000000  0.4926380000000  0.4991830000000 1.0
C      1  0.4984870000000  0.4157440000000  0.4994400000000 1.0
C      1  0.5002110000000  0.5455930000000  0.4996550000000 1.0
C      1  0.5002580000000  0.5717640000000  0.4998650000000 1.0
END
