TITL C-2441156-4686-1238 0.0359783542246831 125000 -15345.0204308803 0 0 114 (C1) n - 1
REM
REM in /home/bkarasulu/work/CARBON/AIRSS/Generating-Clusters/ReaxFF-fromJPCA2015/Units_Real/with-SteepDescent/Higher-Symm
REM
REM
REM
REM
REM
REM ./C.cell (1df0a924f5614ab8850e4351716899ee)
REM
REM compiler GCC version 9.2.1 20190827 (Red Hat 9.2.1-1)
REM options -cpp -mtune=generic -march=x86-64 -g -O0 -fpre-include=/usr/include/finclude/math-vector-fortran.h
REM seed 1520010019 1340534839 -88902030 588977184 1626818528 319901396 1083009468 780389743 -1690193348 618121468 578363108 -356924610 1573041508 -408831401 -523636661 1236001362 -217494690 2007847184 1145295071 -1096830648 -666716746 -615312701 1617326690 -125864309 1677483299 1823733763 186968965 1313789038 -447611218 1936350709 -913380742 1730706606 -551498727
REM
CELL 1.54180   50.00000   50.00000   50.00000   90.00000   90.00000   90.00000
LATT -1
SFAC C  
C      1  0.4763390000000  0.5311080000000  0.5754660000000 1.0
C      1  0.5203500000000  0.5842400000000  0.4834070000000 1.0
C      1  0.5762600000000  0.4947340000000  0.5167040000000 1.0
C      1  0.4729780000000  0.4784280000000  0.4168740000000 1.0
C      1  0.5294130000000  0.5126350000000  0.4169560000000 1.0
C      1  0.5193590000000  0.4624390000000  0.5761040000000 1.0
C      1  0.5295750000000  0.4304150000000  0.5110100000000 1.0
C      1  0.4589240000000  0.5870830000000  0.5239780000000 1.0
C      1  0.4814980000000  0.4296080000000  0.4949640000000 1.0
C      1  0.5766280000000  0.5205100000000  0.4729210000000 1.0
C      1  0.4208610000000  0.4855290000000  0.4671450000000 1.0
C      1  0.4191220000000  0.5040070000000  0.5160870000000 1.0
C      1  0.5188390000000  0.5219930000000  0.5695760000000 1.0
C      1  0.4760260000000  0.5779490000000  0.5014280000000 1.0
C      1  0.4156420000000  0.4919760000000  0.5411540000000 1.0
C      1  0.5018260000000  0.4775170000000  0.4260660000000 1.0
C      1  0.4844310000000  0.5249170000000  0.4261510000000 1.0
C      1  0.4913660000000  0.4788600000000  0.5736640000000 1.0
C      1  0.4721610000000  0.4261320000000  0.5238120000000 1.0
C      1  0.5266960000000  0.5781690000000  0.5095810000000 1.0
C      1  0.5302760000000  0.4221850000000  0.4808990000000 1.0
C      1  0.4279140000000  0.5124170000000  0.4648060000000 1.0
C      1  0.5734870000000  0.4774110000000  0.4703600000000 1.0
C      1  0.5783900000000  0.5152550000000  0.5370940000000 1.0
C      1  0.4402340000000  0.4338150000000  0.4667000000000 1.0
C      1  0.4332690000000  0.4460260000000  0.4421610000000 1.0
C      1  0.4564430000000  0.4263490000000  0.4419220000000 1.0
C      1  0.4298070000000  0.5502590000000  0.5391260000000 1.0
C      1  0.5665810000000  0.4406110000000  0.5377380000000 1.0
C      1  0.5691830000000  0.5669980000000  0.4625940000000 1.0
C      1  0.4321370000000  0.5486310000000  0.5658070000000 1.0
C      1  0.5645910000000  0.4511630000000  0.5650640000000 1.0
C      1  0.5625220000000  0.5512850000000  0.4397570000000 1.0
C      1  0.4511300000000  0.5667170000000  0.5506080000000 1.0
C      1  0.5469140000000  0.4295840000000  0.5565250000000 1.0
C      1  0.5431150000000  0.5694310000000  0.4447400000000 1.0
C      1  0.5617360000000  0.4300830000000  0.4457930000000 1.0
C      1  0.5614270000000  0.4532880000000  0.4280690000000 1.0
C      1  0.5376590000000  0.4347540000000  0.4292740000000 1.0
C      1  0.5652900000000  0.5689520000000  0.5422020000000 1.0
C      1  0.4338320000000  0.4376270000000  0.5496180000000 1.0
C      1  0.4429430000000  0.5647260000000  0.4587280000000 1.0
C      1  0.5665030000000  0.5515340000000  0.5662010000000 1.0
C      1  0.4282880000000  0.4552030000000  0.5693850000000 1.0
C      1  0.4423860000000  0.5458020000000  0.4368640000000 1.0
C      1  0.5426800000000  0.5655990000000  0.5603290000000 1.0
C      1  0.4522600000000  0.4401540000000  0.5705040000000 1.0
C      1  0.4626260000000  0.5666630000000  0.4377360000000 1.0
C      1  0.5533540000000  0.4474810000000  0.5130170000000 1.0
C      1  0.4462610000000  0.5282030000000  0.5811940000000 1.0
C      1  0.5210210000000  0.5678790000000  0.4608790000000 1.0
C      1  0.5783400000000  0.5485090000000  0.4810350000000 1.0
C      1  0.4589490000000  0.4463980000000  0.4843090000000 1.0
C      1  0.4300070000000  0.5336330000000  0.5168940000000 1.0
C      1  0.4342460000000  0.4736590000000  0.4440610000000 1.0
C      1  0.5642010000000  0.5244910000000  0.4463270000000 1.0
C      1  0.5478290000000  0.4733450000000  0.5750800000000 1.0
C      1  0.5185960000000  0.4378640000000  0.5580620000000 1.0
C      1  0.4761700000000  0.5526330000000  0.5553020000000 1.0
C      1  0.4784600000000  0.4410090000000  0.4461800000000 1.0
C      1  0.4467930000000  0.4417530000000  0.5252510000000 1.0
C      1  0.5642180000000  0.5227630000000  0.5621590000000 1.0
C      1  0.4845110000000  0.5512550000000  0.4397800000000 1.0
C      1  0.4542310000000  0.5614600000000  0.4843770000000 1.0
C      1  0.5569640000000  0.4326980000000  0.4742670000000 1.0
C      1  0.5538770000000  0.5657990000000  0.5173120000000 1.0
C      1  0.5610020000000  0.4784880000000  0.4413620000000 1.0
C      1  0.4469780000000  0.5177360000000  0.4434370000000 1.0
C      1  0.4304380000000  0.4829830000000  0.5628970000000 1.0
C      1  0.4779290000000  0.4519710000000  0.5627490000000 1.0
C      1  0.5214450000000  0.5470330000000  0.5548330000000 1.0
C      1  0.5161630000000  0.4510930000000  0.4405870000000 1.0
C      1  0.3973970000000  0.5201930000000  0.4606510000000 1.0
C      1  0.5075290000000  0.4694510000000  0.3946730000000 1.0
C      1  0.4662830000000  0.3937710000000  0.5163160000000 1.0
C      1  0.3846220000000  0.4924050000000  0.5435630000000 1.0
C      1  0.6086130000000  0.5097980000000  0.5409080000000 1.0
C      1  0.6071040000000  0.4827580000000  0.4648180000000 1.0
C      1  0.5172680000000  0.5308290000000  0.6004280000000 1.0
C      1  0.4885270000000  0.4749270000000  0.6065160000000 1.0
C      1  0.4910120000000  0.5325610000000  0.3976830000000 1.0
C      1  0.4713100000000  0.6125850000000  0.4926650000000 1.0
C      1  0.5323390000000  0.3896410000000  0.4897190000000 1.0
C      1  0.5339070000000  0.6112470000000  0.5135340000000 1.0
C      1  0.6081160000000  0.5098550000000  0.4654940000000 1.0
C      1  0.4787910000000  0.4675710000000  0.3885730000000 1.0
C      1  0.5335820000000  0.3970250000000  0.5163480000000 1.0
C      1  0.6056070000000  0.4860500000000  0.5227080000000 1.0
C      1  0.3850320000000  0.5064270000000  0.5180000000000 1.0
C      1  0.3876890000000  0.4932620000000  0.4609740000000 1.0
C      1  0.4906030000000  0.5394070000000  0.6042500000000 1.0
C      1  0.5106780000000  0.4577820000000  0.6079480000000 1.0
C      1  0.5207140000000  0.5306300000000  0.3942230000000 1.0
C      1  0.5315700000000  0.6137130000000  0.4849200000000 1.0
C      1  0.4742690000000  0.3963200000000  0.4900140000000 1.0
C      1  0.4565730000000  0.6114990000000  0.5153530000000 1.0
C      1  0.5554650000000  0.5036780000000  0.4289760000000 1.0
C      1  0.4400660000000  0.5037070000000  0.5752660000000 1.0
C      1  0.4389220000000  0.5462860000000  0.4947470000000 1.0
C      1  0.4920780000000  0.4325700000000  0.5477220000000 1.0
C      1  0.4406070000000  0.4589970000000  0.5028480000000 1.0
C      1  0.5712330000000  0.5582210000000  0.5031360000000 1.0
C      1  0.5662720000000  0.4557780000000  0.4883920000000 1.0
C      1  0.5541840000000  0.5017330000000  0.5815110000000 1.0
C      1  0.4499960000000  0.4910860000000  0.4298540000000 1.0
C      1  0.5024920000000  0.5672280000000  0.4438390000000 1.0
C      1  0.4978150000000  0.4302480000000  0.4374340000000 1.0
C      1  0.4989790000000  0.5567050000000  0.5407760000000 1.0
C      1  0.5670470000000  0.4971590000000  0.4892760000000 1.0
C      1  0.4944000000000  0.5073960000000  0.5659310000000 1.0
C      1  0.5006440000000  0.5673740000000  0.5150160000000 1.0
C      1  0.4295410000000  0.4848580000000  0.4958030000000 1.0
C      1  0.5061980000000  0.5066570000000  0.4329500000000 1.0
C      1  0.5091640000000  0.4376410000000  0.4926790000000 1.0
END
