TITL C-2441161-5029-35 0.137549300438041 125000 -21131.9889753656 0 0 163 (C1) n - 1
REM
REM in /home/bkarasulu/work/CARBON/AIRSS/Generating-Clusters/ReaxFF-fromJPCA2015/Units_Real/with-SteepDescent/Higher-Symm
REM
REM
REM
REM
REM
REM ./C.cell (1df0a924f5614ab8850e4351716899ee)
REM
REM compiler GCC version 9.2.1 20190827 (Red Hat 9.2.1-1)
REM options -cpp -mtune=generic -march=x86-64 -g -O0 -fpre-include=/usr/include/finclude/math-vector-fortran.h
REM seed 2030879598 -1368846845 1161223830 -1970220434 88618892 1144892597 216231780 -488559286 986929663 -1250151533 252129542 1015291114 238813546 350362286 1466263084 -510195917 1426057755 1181124582 -468841290 862789917 1783658275 -1445632158 -2129856386 -1138129232 765280877 2016253338 1568778126 -1206778092 2049880260 901288203 -956905234 -1548589970 -1889742397
REM
CELL 1.54180   50.00000   50.00000   50.00000   90.00000   90.00000   90.00000
LATT -1
SFAC C  
C      1  0.4241250000000  0.5365420000000  0.5604640000000 1.0
C      1  0.5607960000000  0.4246090000000  0.5374530000000 1.0
C      1  0.5371740000000  0.5608450000000  0.4249360000000 1.0
C      1  0.5768320000000  0.5371290000000  0.4403470000000 1.0
C      1  0.4237340000000  0.4628970000000  0.4392980000000 1.0
C      1  0.5776580000000  0.4643230000000  0.5612610000000 1.0
C      1  0.4396380000000  0.4230590000000  0.4632950000000 1.0
C      1  0.5615550000000  0.5778510000000  0.4655970000000 1.0
C      1  0.4399870000000  0.5762020000000  0.5370410000000 1.0
C      1  0.4632870000000  0.5607620000000  0.5769180000000 1.0
C      1  0.5374970000000  0.4398210000000  0.5769780000000 1.0
C      1  0.4632400000000  0.4387420000000  0.4232150000000 1.0
C      1  0.4231070000000  0.4627580000000  0.5607890000000 1.0
C      1  0.5623470000000  0.5705580000000  0.5369850000000 1.0
C      1  0.5370620000000  0.4392560000000  0.4231900000000 1.0
C      1  0.5765780000000  0.4632140000000  0.4392350000000 1.0
C      1  0.4232410000000  0.5371390000000  0.4397470000000 1.0
C      1  0.5710550000000  0.5341600000000  0.5585960000000 1.0
C      1  0.4390490000000  0.5768030000000  0.4635360000000 1.0
C      1  0.5603330000000  0.4238470000000  0.4637230000000 1.0
C      1  0.4393630000000  0.4226400000000  0.5376480000000 1.0
C      1  0.4635330000000  0.4395140000000  0.5764240000000 1.0
C      1  0.5375120000000  0.5617780000000  0.5752120000000 1.0
C      1  0.4634800000000  0.5600450000000  0.4244950000000 1.0
C      1  0.5132160000000  0.4183920000000  0.4810400000000 1.0
C      1  0.4798520000000  0.5141540000000  0.4105600000000 1.0
C      1  0.4157870000000  0.4804780000000  0.5138800000000 1.0
C      1  0.4866850000000  0.4050390000000  0.5201860000000 1.0
C      1  0.5133210000000  0.5882870000000  0.5193080000000 1.0
C      1  0.4859200000000  0.5904410000000  0.4802540000000 1.0
C      1  0.5192250000000  0.5132240000000  0.5838830000000 1.0
C      1  0.4798140000000  0.4858790000000  0.5891300000000 1.0
C      1  0.5201650000000  0.4858770000000  0.4108790000000 1.0
C      1  0.5882030000000  0.4802630000000  0.4858390000000 1.0
C      1  0.4115460000000  0.5203780000000  0.4868130000000 1.0
C      1  0.5843370000000  0.5198570000000  0.5124000000000 1.0
C      1  0.5134730000000  0.5893130000000  0.4792820000000 1.0
C      1  0.4801110000000  0.4860590000000  0.4085600000000 1.0
C      1  0.4112670000000  0.5206120000000  0.5148340000000 1.0
C      1  0.4856460000000  0.5877690000000  0.5202190000000 1.0
C      1  0.5148060000000  0.4086340000000  0.5203010000000 1.0
C      1  0.4862330000000  0.4162000000000  0.4813640000000 1.0
C      1  0.5196170000000  0.4863190000000  0.5825500000000 1.0
C      1  0.4798480000000  0.5142420000000  0.5901550000000 1.0
C      1  0.5198220000000  0.5130600000000  0.4147670000000 1.0
C      1  0.5868680000000  0.5204030000000  0.4854040000000 1.0
C      1  0.4154140000000  0.4803200000000  0.4864580000000 1.0
C      1  0.5912000000000  0.4803310000000  0.5137910000000 1.0
C      1  0.4888710000000  0.4362040000000  0.4101910000000 1.0
C      1  0.4105620000000  0.4885250000000  0.4370780000000 1.0
C      1  0.4366170000000  0.4112920000000  0.4890260000000 1.0
C      1  0.5116650000000  0.4375510000000  0.5896160000000 1.0
C      1  0.4892630000000  0.5635970000000  0.5887480000000 1.0
C      1  0.5120580000000  0.5630210000000  0.4108180000000 1.0
C      1  0.5901520000000  0.4902230000000  0.5619210000000 1.0
C      1  0.4100490000000  0.5114040000000  0.5629730000000 1.0
C      1  0.5895910000000  0.5114320000000  0.4373000000000 1.0
C      1  0.5627840000000  0.4105880000000  0.5122690000000 1.0
C      1  0.4369960000000  0.5904610000000  0.5121630000000 1.0
C      1  0.5632810000000  0.5892020000000  0.4920210000000 1.0
C      1  0.4892250000000  0.5625850000000  0.4114890000000 1.0
C      1  0.4103310000000  0.5113850000000  0.4371920000000 1.0
C      1  0.4368730000000  0.5895340000000  0.4893160000000 1.0
C      1  0.5121960000000  0.5641090000000  0.5879760000000 1.0
C      1  0.4888140000000  0.4372960000000  0.5901760000000 1.0
C      1  0.5117510000000  0.4362320000000  0.4099180000000 1.0
C      1  0.5914490000000  0.5159280000000  0.5589370000000 1.0
C      1  0.4105100000000  0.4885400000000  0.5628010000000 1.0
C      1  0.5901760000000  0.4885740000000  0.4368320000000 1.0
C      1  0.5605970000000  0.5890310000000  0.5176020000000 1.0
C      1  0.4368230000000  0.4087340000000  0.5121690000000 1.0
C      1  0.5623620000000  0.4110650000000  0.4894150000000 1.0
C      1  0.5231880000000  0.5059780000000  0.5399320000000 1.0
C      1  0.5383650000000  0.5229050000000  0.5221810000000 1.0
C      1  0.5168890000000  0.5436460000000  0.5247380000000 1.0
C      1  0.4783360000000  0.5096100000000  0.4543780000000 1.0
C      1  0.5225240000000  0.4774100000000  0.4532790000000 1.0
C      1  0.4808120000000  0.4833190000000  0.5430340000000 1.0
C      1  0.4560430000000  0.5196120000000  0.4778900000000 1.0
C      1  0.5424500000000  0.4792280000000  0.4901300000000 1.0
C      1  0.4608580000000  0.4705160000000  0.5222300000000 1.0
C      1  0.4851530000000  0.5483690000000  0.4820710000000 1.0
C      1  0.5180430000000  0.4614030000000  0.4765680000000 1.0
C      1  0.4792020000000  0.4483940000000  0.5215010000000 1.0
C      1  0.5273390000000  0.4771560000000  0.5377400000000 1.0
C      1  0.5493820000000  0.4773460000000  0.5195080000000 1.0
C      1  0.5097220000000  0.4547780000000  0.5212980000000 1.0
C      1  0.4786510000000  0.4792000000000  0.4495160000000 1.0
C      1  0.5231320000000  0.5074260000000  0.4566260000000 1.0
C      1  0.4805140000000  0.5231930000000  0.5460460000000 1.0
C      1  0.4571770000000  0.4723380000000  0.4923490000000 1.0
C      1  0.5440080000000  0.5206620000000  0.4735650000000 1.0
C      1  0.4550070000000  0.5189830000000  0.5147960000000 1.0
C      1  0.4770860000000  0.4636530000000  0.4734230000000 1.0
C      1  0.5147040000000  0.5475860000000  0.4810260000000 1.0
C      1  0.4859470000000  0.5425730000000  0.5254910000000 1.0
C      1  0.4073170000000  0.4533980000000  0.5149920000000 1.0
C      1  0.5152410000000  0.4069570000000  0.4545990000000 1.0
C      1  0.4512260000000  0.5149990000000  0.4064130000000 1.0
C      1  0.5938790000000  0.4525240000000  0.4849460000000 1.0
C      1  0.4062050000000  0.5479400000000  0.4857410000000 1.0
C      1  0.5958280000000  0.5449910000000  0.5155950000000 1.0
C      1  0.4858630000000  0.4053510000000  0.5484620000000 1.0
C      1  0.5156360000000  0.5942210000000  0.5465890000000 1.0
C      1  0.4849490000000  0.5948340000000  0.4520530000000 1.0
C      1  0.5455660000000  0.5145460000000  0.5942640000000 1.0
C      1  0.4519490000000  0.4849600000000  0.5937080000000 1.0
C      1  0.5478670000000  0.4858400000000  0.4061790000000 1.0
C      1  0.4056180000000  0.5483720000000  0.5151810000000 1.0
C      1  0.5148110000000  0.5943940000000  0.4519000000000 1.0
C      1  0.4523790000000  0.4849810000000  0.4058240000000 1.0
C      1  0.5952540000000  0.5477980000000  0.4860360000000 1.0
C      1  0.4071590000000  0.4531620000000  0.4854730000000 1.0
C      1  0.5944780000000  0.4521550000000  0.5146510000000 1.0
C      1  0.4857490000000  0.5943210000000  0.5483040000000 1.0
C      1  0.5151850000000  0.4060710000000  0.5487050000000 1.0
C      1  0.4856210000000  0.4064340000000  0.4544490000000 1.0
C      1  0.5457560000000  0.4853020000000  0.5934840000000 1.0
C      1  0.4516980000000  0.5144210000000  0.5946330000000 1.0
C      1  0.5472770000000  0.5152850000000  0.4072420000000 1.0
C      1  0.4617400000000  0.5782030000000  0.4459190000000 1.0
C      1  0.4451370000000  0.4616930000000  0.5784380000000 1.0
C      1  0.5779440000000  0.4455480000000  0.4617990000000 1.0
C      1  0.5409410000000  0.5798910000000  0.5524060000000 1.0
C      1  0.4621750000000  0.4212560000000  0.5550640000000 1.0
C      1  0.5382310000000  0.4215430000000  0.4455040000000 1.0
C      1  0.5544620000000  0.4621440000000  0.4216210000000 1.0
C      1  0.4454180000000  0.5379710000000  0.4225220000000 1.0
C      1  0.5524010000000  0.5379660000000  0.5789500000000 1.0
C      1  0.4214440000000  0.4445860000000  0.5386940000000 1.0
C      1  0.5832300000000  0.5510930000000  0.5411790000000 1.0
C      1  0.4211900000000  0.5550850000000  0.4620800000000 1.0
C      1  0.4620170000000  0.4211290000000  0.4452590000000 1.0
C      1  0.4458130000000  0.5379160000000  0.5782850000000 1.0
C      1  0.5789960000000  0.5550360000000  0.4630430000000 1.0
C      1  0.5383280000000  0.4223660000000  0.5551070000000 1.0
C      1  0.4623050000000  0.5784830000000  0.5549090000000 1.0
C      1  0.5382830000000  0.5784060000000  0.4471830000000 1.0
C      1  0.5549540000000  0.5385160000000  0.4226450000000 1.0
C      1  0.4455590000000  0.4614170000000  0.4213970000000 1.0
C      1  0.5555800000000  0.4620290000000  0.5793650000000 1.0
C      1  0.4220880000000  0.5545200000000  0.5381950000000 1.0
C      1  0.5789370000000  0.4462370000000  0.5384560000000 1.0
C      1  0.4221610000000  0.4454780000000  0.4619940000000 1.0
C      1  0.4978220000000  0.5234860000000  0.4313810000000 1.0
C      1  0.4966400000000  0.4755680000000  0.5667810000000 1.0
C      1  0.4741730000000  0.5704490000000  0.4983470000000 1.0
C      1  0.5233420000000  0.4323620000000  0.5051490000000 1.0
C      1  0.4966420000000  0.5261810000000  0.5704710000000 1.0
C      1  0.5708470000000  0.4974560000000  0.5271330000000 1.0
C      1  0.5259220000000  0.5691720000000  0.4983680000000 1.0
C      1  0.4320330000000  0.5023040000000  0.4747460000000 1.0
C      1  0.5683480000000  0.5006470000000  0.4733460000000 1.0
C      1  0.4331060000000  0.5025310000000  0.5246700000000 1.0
C      1  0.4722260000000  0.4255950000000  0.5049360000000 1.0
C      1  0.5015910000000  0.4721280000000  0.4309620000000 1.0
C      1  0.5348960000000  0.5077230000000  0.4973020000000 1.0
C      1  0.4997300000000  0.5071570000000  0.4737590000000 1.0
C      1  0.4960430000000  0.5026550000000  0.5287160000000 1.0
C      1  0.4680660000000  0.5012090000000  0.4975170000000 1.0
C      1  0.5014520000000  0.5330850000000  0.5018190000000 1.0
C      1  0.5032330000000  0.4703230000000  0.4977940000000 1.0
C      1  0.4952770000000  0.4956050000000  0.4985640000000 1.0
END
