TITL C-2441168-9922-1414 0.00275198100418655 125000 -1460.89524727943 0 0 13 (C1) n - 1
REM
REM in /home/bkarasulu/work/CARBON/AIRSS/Generating-Clusters/ReaxFF-fromJPCA2015/Units_Real/with-SteepDescent/Higher-Symm
REM
REM
REM
REM
REM
REM ./C.cell (1df0a924f5614ab8850e4351716899ee)
REM
REM compiler GCC version 9.2.1 20190827 (Red Hat 9.2.1-1)
REM options -cpp -mtune=generic -march=x86-64 -g -O0 -fpre-include=/usr/include/finclude/math-vector-fortran.h
REM seed -507255197 -1063611113 -1645010825 1119141526 -2073550274 -1292789364 966090962 173769362 -1999923997 6503380 2000098498 2096731113 1043123995 -1921469898 -1314638876 -1827328002 373959263 1682093394 -1077192389 -367539071 -1856003848 -620846272 -839247523 -1984277735 -95944086 -46910873 73326174 1695179619 952045583 -2026051741 501930894 -1403343862 1378125317
REM
CELL 1.54180   50.00000   50.00000   50.00000   90.00000   90.00000   90.00000
LATT -1
SFAC C  
C      1  0.4679320000000  0.5269000000000  0.4802180000000 1.0
C      1  0.5287390000000  0.4732370000000  0.5185090000000 1.0
C      1  0.4801850000000  0.5159620000000  0.5251530000000 1.0
C      1  0.5184630000000  0.4868620000000  0.4741420000000 1.0
C      1  0.4946550000000  0.5254580000000  0.5021080000000 1.0
C      1  0.5004280000000  0.4717650000000  0.4987920000000 1.0
C      1  0.4718780000000  0.4740540000000  0.4888890000000 1.0
C      1  0.5265150000000  0.5270660000000  0.5112440000000 1.0
C      1  0.4785940000000  0.5154560000000  0.5489660000000 1.0
C      1  0.5174930000000  0.4844940000000  0.4494920000000 1.0
C      1  0.5298100000000  0.5017090000000  0.5261950000000 1.0
C      1  0.4673030000000  0.4990420000000  0.4723120000000 1.0
C      1  0.5010630000000  0.4989500000000  0.4968430000000 1.0
END
