TITL C-2441161-5029-505 0.00277701305968842 125000 -9180.9676805674 0 0 65 (C1) n - 1
REM
REM in /home/bkarasulu/work/CARBON/AIRSS/Generating-Clusters/ReaxFF-fromJPCA2015/Units_Real/with-SteepDescent/Higher-Symm
REM
REM
REM
REM
REM
REM ./C.cell (1df0a924f5614ab8850e4351716899ee)
REM
REM compiler GCC version 9.2.1 20190827 (Red Hat 9.2.1-1)
REM options -cpp -mtune=generic -march=x86-64 -g -O0 -fpre-include=/usr/include/finclude/math-vector-fortran.h
REM seed -909871862 75804739 1669655851 59720350 1572589066 -517250778 1986552839 1256513441 818697932 463944096 -788043137 -1191366108 -1704443322 -1176081083 1543025000 201290078 1863108147 -409088952 -1331477624 -12039681 -1602058378 -1116903319 -1580209356 299009109 1529547808 3539979 -91935525 901462861 -1372249064 -826513802 -618705140 2095612395 -501971866
REM
CELL 1.54180   50.00000   50.00000   50.00000   90.00000   90.00000   90.00000
LATT -1
SFAC C  
C      1  0.4342830000000  0.5000540000000  0.4670730000000 1.0
C      1  0.4795250000000  0.4341350000000  0.4662890000000 1.0
C      1  0.5556480000000  0.4577290000000  0.4641930000000 1.0
C      1  0.5610440000000  0.5410260000000  0.4636230000000 1.0
C      1  0.4797810000000  0.5680110000000  0.4648540000000 1.0
C      1  0.5349410000000  0.5242540000000  0.4924800000000 1.0
C      1  0.4897590000000  0.5325310000000  0.4872360000000 1.0
C      1  0.4807000000000  0.5086810000000  0.5001570000000 1.0
C      1  0.4895590000000  0.4815910000000  0.4990750000000 1.0
C      1  0.5168250000000  0.4725790000000  0.5001050000000 1.0
C      1  0.5684350000000  0.4370680000000  0.5123030000000 1.0
C      1  0.5821620000000  0.5462740000000  0.5129760000000 1.0
C      1  0.4788860000000  0.5949660000000  0.5118220000000 1.0
C      1  0.4070950000000  0.5102100000000  0.5118050000000 1.0
C      1  0.4625150000000  0.4138810000000  0.5116270000000 1.0
C      1  0.5307580000000  0.5416220000000  0.5159590000000 1.0
C      1  0.4620550000000  0.5476050000000  0.5301680000000 1.0
C      1  0.4483220000000  0.4819590000000  0.5268910000000 1.0
C      1  0.5044310000000  0.4396830000000  0.5311640000000 1.0
C      1  0.5391030000000  0.4826770000000  0.5163150000000 1.0
C      1  0.5020810000000  0.4758820000000  0.4405650000000 1.0
C      1  0.5243960000000  0.4956500000000  0.4429960000000 1.0
C      1  0.5135380000000  0.5225840000000  0.4441130000000 1.0
C      1  0.4849060000000  0.5201140000000  0.4432410000000 1.0
C      1  0.4779710000000  0.4919120000000  0.4409120000000 1.0
C      1  0.5187620000000  0.4458940000000  0.5084740000000 1.0
C      1  0.5548270000000  0.5069530000000  0.5048220000000 1.0
C      1  0.5056450000000  0.5528590000000  0.5025550000000 1.0
C      1  0.4560450000000  0.5234590000000  0.5141760000000 1.0
C      1  0.4632550000000  0.4676300000000  0.5058960000000 1.0
C      1  0.5729410000000  0.4540310000000  0.4879040000000 1.0
C      1  0.5701960000000  0.5565820000000  0.4870320000000 1.0
C      1  0.4660410000000  0.5825370000000  0.4873730000000 1.0
C      1  0.4151620000000  0.4929050000000  0.4887810000000 1.0
C      1  0.4820310000000  0.4153790000000  0.4894660000000 1.0
C      1  0.5665210000000  0.4664860000000  0.5130900000000 1.0
C      1  0.5559910000000  0.5588680000000  0.5118790000000 1.0
C      1  0.4583960000000  0.5731680000000  0.5142860000000 1.0
C      1  0.4203210000000  0.4835130000000  0.5159630000000 1.0
C      1  0.4910330000000  0.4176750000000  0.5171930000000 1.0
C      1  0.4998330000000  0.5774050000000  0.5114070000000 1.0
C      1  0.4298780000000  0.5244480000000  0.5180560000000 1.0
C      1  0.4515820000000  0.4413550000000  0.5150670000000 1.0
C      1  0.5418070000000  0.4332490000000  0.5176650000000 1.0
C      1  0.5794550000000  0.5174810000000  0.5193730000000 1.0
C      1  0.4624300000000  0.4548130000000  0.4611410000000 1.0
C      1  0.5300710000000  0.4490590000000  0.4583120000000 1.0
C      1  0.5595640000000  0.5132430000000  0.4596520000000 1.0
C      1  0.5062860000000  0.5599420000000  0.4608320000000 1.0
C      1  0.4500420000000  0.5212560000000  0.4651520000000 1.0
C      1  0.4956640000000  0.4658470000000  0.5449930000000 1.0
C      1  0.5198730000000  0.4934940000000  0.5401340000000 1.0
C      1  0.5130320000000  0.5236100000000  0.5415610000000 1.0
C      1  0.4840730000000  0.5358630000000  0.5467140000000 1.0
C      1  0.4669220000000  0.4760950000000  0.5491630000000 1.0
C      1  0.4533930000000  0.4802680000000  0.4526480000000 1.0
C      1  0.5036230000000  0.4477920000000  0.4507150000000 1.0
C      1  0.5493250000000  0.4873230000000  0.4563920000000 1.0
C      1  0.5279490000000  0.5402980000000  0.4629920000000 1.0
C      1  0.4721560000000  0.5366560000000  0.4633350000000 1.0
C      1  0.4835690000000  0.5202810000000  0.5714450000000 1.0
C      1  0.4760650000000  0.4913180000000  0.5723790000000 1.0
C      1  0.5007190000000  0.4746090000000  0.5732680000000 1.0
C      1  0.5230870000000  0.4929400000000  0.5691720000000 1.0
C      1  0.5137170000000  0.5207370000000  0.5716020000000 1.0
END
