TITL C-2441162-9305-1493 0.0116927027233218 125000 -12039.4249112355 0 0 82 (C2v) n - 1
REM
REM in /home/bkarasulu/work/CARBON/AIRSS/Generating-Clusters/ReaxFF-fromJPCA2015/Units_Real/with-SteepDescent/Higher-Symm
REM
REM
REM
REM
REM
REM ./C.cell (1df0a924f5614ab8850e4351716899ee)
REM
REM compiler GCC version 9.2.1 20190827 (Red Hat 9.2.1-1)
REM options -cpp -mtune=generic -march=x86-64 -g -O0 -fpre-include=/usr/include/finclude/math-vector-fortran.h
REM seed -1300114130 216767816 -1267336410 306825797 1245437100 1384969026 -1621948720 827182961 -1915320849 -1269353550 -18396355 1672837310 -1379152595 -1619523189 476919009 -502095579 650927801 424583385 945095481 -1546190189 1337726402 -1950162427 1096606276 -1846908515 1596014167 -1135488876 -1659236807 -669129480 1214219010 -558906703 1217622749 -1513900424 -2125211876
REM
CELL 1.54180   50.00000   50.00000   50.00000   90.00000   90.00000   90.00000
LATT -1
SFAC C  
C      1  0.5291240000000  0.4544380000000  0.4361040000000 1.0
C      1  0.4711390000000  0.4545720000000  0.5640290000000 1.0
C      1  0.4709430000000  0.4545250000000  0.4359670000000 1.0
C      1  0.5291200000000  0.4545790000000  0.5640630000000 1.0
C      1  0.5150780000000  0.5280880000000  0.4702020000000 1.0
C      1  0.4848090000000  0.5280670000000  0.5295760000000 1.0
C      1  0.4849000000000  0.5281020000000  0.4703040000000 1.0
C      1  0.5149660000000  0.5280250000000  0.5296760000000 1.0
C      1  0.4871870000000  0.5197090000000  0.5834620000000 1.0
C      1  0.5127950000000  0.5188260000000  0.4173820000000 1.0
C      1  0.5127670000000  0.5188280000000  0.5825940000000 1.0
C      1  0.4872330000000  0.5196580000000  0.4165680000000 1.0
C      1  0.4430510000000  0.5466900000000  0.5146250000000 1.0
C      1  0.5569350000000  0.5467250000000  0.4853990000000 1.0
C      1  0.5569010000000  0.5467000000000  0.5146460000000 1.0
C      1  0.4430910000000  0.5466240000000  0.4854200000000 1.0
C      1  0.4632130000000  0.4326940000000  0.4519090000000 1.0
C      1  0.5366170000000  0.4327350000000  0.5479940000000 1.0
C      1  0.5367540000000  0.4325850000000  0.4520930000000 1.0
C      1  0.4634330000000  0.4326750000000  0.5481560000000 1.0
C      1  0.5139770000000  0.4274040000000  0.4706390000000 1.0
C      1  0.4858950000000  0.4273590000000  0.5293000000000 1.0
C      1  0.4858390000000  0.4273400000000  0.4705990000000 1.0
C      1  0.5140440000000  0.4274720000000  0.5292490000000 1.0
C      1  0.5296240000000  0.5522900000000  0.4777770000000 1.0
C      1  0.4705700000000  0.5520380000000  0.5217020000000 1.0
C      1  0.4706010000000  0.5519970000000  0.4783160000000 1.0
C      1  0.5295690000000  0.5522290000000  0.5222070000000 1.0
C      1  0.4730800000000  0.4794890000000  0.5719700000000 1.0
C      1  0.5271690000000  0.4794500000000  0.4280420000000 1.0
C      1  0.5272190000000  0.4795530000000  0.5721900000000 1.0
C      1  0.4730210000000  0.4794850000000  0.4280700000000 1.0
C      1  0.5268510000000  0.5327790000000  0.5623400000000 1.0
C      1  0.4726910000000  0.5337360000000  0.4378470000000 1.0
C      1  0.4726970000000  0.5337140000000  0.5620970000000 1.0
C      1  0.5269310000000  0.5328970000000  0.4375380000000 1.0
C      1  0.5108760000000  0.5610870000000  0.5639760000000 1.0
C      1  0.4889370000000  0.5620590000000  0.4361360000000 1.0
C      1  0.4889120000000  0.5620750000000  0.5638460000000 1.0
C      1  0.5109060000000  0.5612100000000  0.4359760000000 1.0
C      1  0.4865180000000  0.4788000000000  0.4767830000000 1.0
C      1  0.5133700000000  0.4788900000000  0.5230700000000 1.0
C      1  0.5135070000000  0.4788700000000  0.4767860000000 1.0
C      1  0.4863790000000  0.4788320000000  0.5230880000000 1.0
C      1  0.4472310000000  0.4499910000000  0.5299040000000 1.0
C      1  0.5527720000000  0.4501350000000  0.4703740000000 1.0
C      1  0.5527230000000  0.4500810000000  0.5296750000000 1.0
C      1  0.4471840000000  0.4500990000000  0.4702190000000 1.0
C      1  0.5665630000000  0.5231890000000  0.5292870000000 1.0
C      1  0.4333230000000  0.5231920000000  0.4707600000000 1.0
C      1  0.4334000000000  0.5231970000000  0.5292710000000 1.0
C      1  0.5665970000000  0.5232520000000  0.4707230000000 1.0
C      1  0.4741370000000  0.4535230000000  0.5151260000000 1.0
C      1  0.5256940000000  0.4537640000000  0.4848050000000 1.0
C      1  0.5256700000000  0.4537460000000  0.5151270000000 1.0
C      1  0.4741960000000  0.4535810000000  0.4848100000000 1.0
C      1  0.5505560000000  0.4911680000000  0.4422910000000 1.0
C      1  0.4497200000000  0.4912310000000  0.5578000000000 1.0
C      1  0.4497320000000  0.4912690000000  0.4422940000000 1.0
C      1  0.5505880000000  0.4911230000000  0.5577680000000 1.0
C      1  0.4296120000000  0.4976290000000  0.5148000000000 1.0
C      1  0.5707260000000  0.4977210000000  0.4852200000000 1.0
C      1  0.5706610000000  0.4976610000000  0.5147640000000 1.0
C      1  0.4293940000000  0.4976380000000  0.4852340000000 1.0
C      1  0.4851940000000  0.5757070000000  0.4855270000000 1.0
C      1  0.5147670000000  0.5760100000000  0.5148020000000 1.0
C      1  0.5147610000000  0.5760160000000  0.4852380000000 1.0
C      1  0.4851990000000  0.5757380000000  0.5145280000000 1.0
C      1  0.4373370000000  0.4770350000000  0.5343820000000 1.0
C      1  0.5629400000000  0.4770380000000  0.4657750000000 1.0
C      1  0.5628870000000  0.4769880000000  0.5342280000000 1.0
C      1  0.4371990000000  0.4770850000000  0.4656640000000 1.0
C      1  0.4765870000000  0.5043670000000  0.5140940000000 1.0
C      1  0.5232460000000  0.5044160000000  0.4857120000000 1.0
C      1  0.5231700000000  0.5044010000000  0.5141260000000 1.0
C      1  0.4766910000000  0.5043470000000  0.4857000000000 1.0
C      1  0.4468960000000  0.5199830000000  0.5548150000000 1.0
C      1  0.5530510000000  0.5198690000000  0.4452560000000 1.0
C      1  0.5530290000000  0.5198010000000  0.5547620000000 1.0
C      1  0.4469060000000  0.5200070000000  0.4452570000000 1.0
C      1  0.5001950000000  0.4931600000000  0.5851230000000 1.0
C      1  0.5002320000000  0.4931040000000  0.4150430000000 1.0
END
