TITL C-2441164-471-857 0.11137717428655 125000 -13338.9991429391 0 0 114 (C1) n - 1
REM
REM in /home/bkarasulu/work/CARBON/AIRSS/Generating-Clusters/ReaxFF-fromJPCA2015/Units_Real/with-SteepDescent/Higher-Symm
REM
REM
REM
REM
REM
REM ./C.cell (1df0a924f5614ab8850e4351716899ee)
REM
REM compiler GCC version 9.2.1 20190827 (Red Hat 9.2.1-1)
REM options -cpp -mtune=generic -march=x86-64 -g -O0 -fpre-include=/usr/include/finclude/math-vector-fortran.h
REM seed 1646245148 -758425503 1043344951 -1385593111 462062437 -991162921 -348402863 -1500661882 884643660 -1235329309 -1000834580 -52590754 593758903 -1489284716 -1579949793 -927824166 -1802538438 -1390209291 -1175053462 1597581426 2048426543 -602345457 -681285460 -128647104 -1743451039 -1705548761 852432468 276570073 1185376296 -117999284 -772386787 -1200405831 -1624719985
REM
CELL 1.54180   50.00000   50.00000   50.00000   90.00000   90.00000   90.00000
LATT -1
SFAC C  
C      1  0.5301150000000  0.5624390000000  0.5424150000000 1.0
C      1  0.4703220000000  0.4385910000000  0.5441080000000 1.0
C      1  0.4703120000000  0.5628540000000  0.5425830000000 1.0
C      1  0.5311470000000  0.4375630000000  0.5428400000000 1.0
C      1  0.4571480000000  0.4801630000000  0.5576890000000 1.0
C      1  0.5403850000000  0.5229850000000  0.5623950000000 1.0
C      1  0.5431460000000  0.4802780000000  0.5568950000000 1.0
C      1  0.4567630000000  0.5231320000000  0.5605420000000 1.0
C      1  0.5753130000000  0.4593860000000  0.5285060000000 1.0
C      1  0.4260080000000  0.5407650000000  0.5293810000000 1.0
C      1  0.4259600000000  0.4593730000000  0.5284700000000 1.0
C      1  0.5742930000000  0.5405200000000  0.5300120000000 1.0
C      1  0.5498100000000  0.4251030000000  0.4994520000000 1.0
C      1  0.4497950000000  0.5741290000000  0.4978330000000 1.0
C      1  0.4504300000000  0.4239720000000  0.4998470000000 1.0
C      1  0.5508340000000  0.5750120000000  0.4987560000000 1.0
C      1  0.5303930000000  0.4831250000000  0.5826610000000 1.0
C      1  0.4712130000000  0.5170790000000  0.5856050000000 1.0
C      1  0.4688120000000  0.4868860000000  0.5826510000000 1.0
C      1  0.5302590000000  0.5118620000000  0.5886170000000 1.0
C      1  0.4875880000000  0.5365740000000  0.5085920000000 1.0
C      1  0.5126210000000  0.4596340000000  0.4934930000000 1.0
C      1  0.5147170000000  0.5368790000000  0.5094040000000 1.0
C      1  0.4867640000000  0.4573250000000  0.4995350000000 1.0
C      1  0.5524730000000  0.5457440000000  0.5487530000000 1.0
C      1  0.4475240000000  0.4551510000000  0.5470700000000 1.0
C      1  0.4475380000000  0.5468120000000  0.5476530000000 1.0
C      1  0.5529000000000  0.4554320000000  0.5458960000000 1.0
C      1  0.5252540000000  0.4755440000000  0.5132230000000 1.0
C      1  0.4674100000000  0.5172050000000  0.5166010000000 1.0
C      1  0.4750900000000  0.4773450000000  0.5155040000000 1.0
C      1  0.5341640000000  0.5169100000000  0.5169990000000 1.0
C      1  0.4271190000000  0.5582320000000  0.5058610000000 1.0
C      1  0.5722410000000  0.4418860000000  0.5055730000000 1.0
C      1  0.5730590000000  0.5580160000000  0.5061630000000 1.0
C      1  0.4284240000000  0.4419380000000  0.5050290000000 1.0
C      1  0.4882820000000  0.4478620000000  0.5617160000000 1.0
C      1  0.5130310000000  0.5536280000000  0.5633860000000 1.0
C      1  0.5133300000000  0.4460700000000  0.5625920000000 1.0
C      1  0.4869710000000  0.5556580000000  0.5638000000000 1.0
C      1  0.5236210000000  0.5658660000000  0.5128970000000 1.0
C      1  0.4767520000000  0.4301550000000  0.5157890000000 1.0
C      1  0.4769080000000  0.5654380000000  0.5139240000000 1.0
C      1  0.5261870000000  0.4260020000000  0.5164660000000 1.0
C      1  0.5194080000000  0.4368750000000  0.4771140000000 1.0
C      1  0.4816780000000  0.5708190000000  0.4747200000000 1.0
C      1  0.4810380000000  0.4309040000000  0.4747370000000 1.0
C      1  0.5211650000000  0.5700870000000  0.4723850000000 1.0
C      1  0.4497080000000  0.5249040000000  0.4993960000000 1.0
C      1  0.5483610000000  0.4822290000000  0.4970800000000 1.0
C      1  0.5516810000000  0.5245980000000  0.4992370000000 1.0
C      1  0.4540720000000  0.4832450000000  0.4962470000000 1.0
C      1  0.4360970000000  0.5394080000000  0.4829260000000 1.0
C      1  0.5627730000000  0.4599590000000  0.4832860000000 1.0
C      1  0.5650140000000  0.5392700000000  0.4833210000000 1.0
C      1  0.4383070000000  0.4616050000000  0.4840750000000 1.0
C      1  0.4266600000000  0.4764140000000  0.4604820000000 1.0
C      1  0.5752250000000  0.5217470000000  0.4618520000000 1.0
C      1  0.5745440000000  0.4777740000000  0.4616420000000 1.0
C      1  0.4273090000000  0.5209980000000  0.4619460000000 1.0
C      1  0.4729720000000  0.4724720000000  0.4579090000000 1.0
C      1  0.5342350000000  0.5234330000000  0.4588650000000 1.0
C      1  0.5341390000000  0.4775270000000  0.4566440000000 1.0
C      1  0.4710310000000  0.5275550000000  0.4592190000000 1.0
C      1  0.5457670000000  0.4529120000000  0.4470310000000 1.0
C      1  0.4536150000000  0.5495220000000  0.4482620000000 1.0
C      1  0.4507550000000  0.4542600000000  0.4456600000000 1.0
C      1  0.5464190000000  0.5481670000000  0.4490440000000 1.0
C      1  0.4126930000000  0.4854390000000  0.5264470000000 1.0
C      1  0.5881330000000  0.5149360000000  0.5271110000000 1.0
C      1  0.5885770000000  0.4855510000000  0.5266820000000 1.0
C      1  0.4128310000000  0.5148130000000  0.5267250000000 1.0
C      1  0.4684040000000  0.5323070000000  0.4293700000000 1.0
C      1  0.5293360000000  0.4698380000000  0.4298950000000 1.0
C      1  0.5289710000000  0.5314680000000  0.4319320000000 1.0
C      1  0.4672660000000  0.4689580000000  0.4275340000000 1.0
C      1  0.4526170000000  0.4290310000000  0.4709410000000 1.0
C      1  0.5477450000000  0.5727710000000  0.4696990000000 1.0
C      1  0.5463880000000  0.4304440000000  0.4702540000000 1.0
C      1  0.4543790000000  0.5722700000000  0.4689630000000 1.0
C      1  0.4986290000000  0.5788050000000  0.4988040000000 1.0
C      1  0.5015080000000  0.4191760000000  0.5033020000000 1.0
C      1  0.4978550000000  0.4633110000000  0.4509540000000 1.0
C      1  0.4976000000000  0.5370250000000  0.4547470000000 1.0
C      1  0.5043040000000  0.4670500000000  0.5841940000000 1.0
C      1  0.4981350000000  0.5355910000000  0.5815180000000 1.0
C      1  0.5646840000000  0.4999090000000  0.4434160000000 1.0
C      1  0.4375250000000  0.4998940000000  0.4430680000000 1.0
C      1  0.4063700000000  0.5000940000000  0.5038600000000 1.0
C      1  0.5952150000000  0.5001100000000  0.5044110000000 1.0
C      1  0.4710080000000  0.4966220000000  0.4773050000000 1.0
C      1  0.5317340000000  0.4980870000000  0.4770710000000 1.0
C      1  0.5008000000000  0.5638780000000  0.4559780000000 1.0
C      1  0.5009310000000  0.4361540000000  0.4557680000000 1.0
C      1  0.4567870000000  0.5031800000000  0.5409990000000 1.0
C      1  0.5435640000000  0.5046860000000  0.5422520000000 1.0
C      1  0.4993450000000  0.5288790000000  0.4229690000000 1.0
C      1  0.4989950000000  0.4703320000000  0.4223410000000 1.0
C      1  0.4211560000000  0.4988260000000  0.4797130000000 1.0
C      1  0.5804250000000  0.4993390000000  0.4803610000000 1.0
C      1  0.4934920000000  0.4950320000000  0.5745190000000 1.0
C      1  0.5003700000000  0.5001100000000  0.3136170000000 1.0
C      1  0.4993490000000  0.4992360000000  0.6809680000000 1.0
C      1  0.5001230000000  0.5002540000000  0.3377230000000 1.0
C      1  0.5004790000000  0.4936300000000  0.5198610000000 1.0
C      1  0.4998560000000  0.5027800000000  0.4789940000000 1.0
C      1  0.5035120000000  0.5027640000000  0.6316710000000 1.0
C      1  0.5004060000000  0.5001240000000  0.3624850000000 1.0
C      1  0.4990360000000  0.4991400000000  0.6568360000000 1.0
C      1  0.5092030000000  0.5066450000000  0.6087630000000 1.0
C      1  0.5009730000000  0.4999050000000  0.3862730000000 1.0
C      1  0.5016380000000  0.4991790000000  0.4512120000000 1.0
C      1  0.5009720000000  0.5045370000000  0.5455270000000 1.0
C      1  0.5015440000000  0.4997390000000  0.4103820000000 1.0
END
