TITL C-2441164-471-1124 -6.51637027961998e-07 125000 -3462.48928639479 0 0 25 (C3) n - 1
REM
REM in /home/bkarasulu/work/CARBON/AIRSS/Generating-Clusters/ReaxFF-fromJPCA2015/Units_Real/with-SteepDescent/Higher-Symm
REM
REM
REM
REM
REM
REM ./C.cell (1df0a924f5614ab8850e4351716899ee)
REM
REM compiler GCC version 9.2.1 20190827 (Red Hat 9.2.1-1)
REM options -cpp -mtune=generic -march=x86-64 -g -O0 -fpre-include=/usr/include/finclude/math-vector-fortran.h
REM seed 933379716 939135439 479359990 2067958189 -383325492 -802708370 -953884246 -2078460974 545289553 893887420 -1043093797 1290373014 -290415231 -599434508 62324019 1535302295 -317060149 -1845329466 -910406917 -252647279 -780792468 93798705 1988593505 965952868 -1326469126 1678209643 -1335181622 1384637329 -114732063 2126000054 446789583 1484062631 1204321704
REM
CELL 1.54180   50.00000   50.00000   50.00000   90.00000   90.00000   90.00000
LATT -1
SFAC C  
C      1  0.4607140000000  0.4735220000000  0.5337820000000 1.0
C      1  0.5502180000000  0.4735200000000  0.5193770000000 1.0
C      1  0.4929900000000  0.4735230000000  0.4490660000000 1.0
C      1  0.4602400000000  0.4979250000000  0.5142940000000 1.0
C      1  0.5335780000000  0.4979230000000  0.5295320000000 1.0
C      1  0.5101060000000  0.4979250000000  0.4584000000000 1.0
C      1  0.4836910000000  0.4684420000000  0.5498280000000 1.0
C      1  0.5526250000000  0.4684410000000  0.4914550000000 1.0
C      1  0.4676050000000  0.4684440000000  0.4609420000000 1.0
C      1  0.4796240000000  0.5295540000000  0.5691720000000 1.0
C      1  0.5714120000000  0.5295530000000  0.4853070000000 1.0
C      1  0.4528890000000  0.5295560000000  0.4477490000000 1.0
C      1  0.4914170000000  0.5183660000000  0.5491190000000 1.0
C      1  0.5481490000000  0.5183660000000  0.4851200000000 1.0
C      1  0.4643590000000  0.5183680000000  0.4679880000000 1.0
C      1  0.5148560000000  0.4956000000000  0.5517550000000 1.0
C      1  0.5387120000000  0.4956010000000  0.4635030000000 1.0
C      1  0.4503560000000  0.4956020000000  0.4869690000000 1.0
C      1  0.4947410000000  0.5173840000000  0.4727060000000 1.0
C      1  0.4803120000000  0.5173840000000  0.5204480000000 1.0
C      1  0.5288720000000  0.5173830000000  0.5090730000000 1.0
C      1  0.4471970000000  0.4705810000000  0.4747310000000 1.0
C      1  0.5058370000000  0.4705780000000  0.5606080000000 1.0
C      1  0.5508880000000  0.4705780000000  0.4668860000000 1.0
C      1  0.5013090000000  0.5220420000000  0.5007430000000 1.0
END
