TITL C-2441163-1170-549 0.293574085511118 125000 -21176.166714078 0 0 188 (C1) n - 1
REM
REM in /home/bkarasulu/work/CARBON/AIRSS/Generating-Clusters/ReaxFF-fromJPCA2015/Units_Real/with-SteepDescent/Higher-Symm
REM
REM
REM
REM
REM
REM ./C.cell (1df0a924f5614ab8850e4351716899ee)
REM
REM compiler GCC version 9.2.1 20190827 (Red Hat 9.2.1-1)
REM options -cpp -mtune=generic -march=x86-64 -g -O0 -fpre-include=/usr/include/finclude/math-vector-fortran.h
REM seed 822278973 1962959911 -1891291832 -242772833 1852322927 -1303574235 161849456 350724460 862106596 2084815227 419911886 415957206 300581194 -217925599 -1718110005 2045750461 -335913831 -228366685 846196225 -1285163711 1199527723 536891751 -334073686 -444449434 -645778828 1198302980 -1852356446 -660121328 218282536 -835672737 -95191669 -943068222 657420925
REM
CELL 1.54180   50.00000   50.00000   50.00000   90.00000   90.00000   90.00000
LATT -1
SFAC C  
C      1  0.4301270000000  0.5547110000000  0.4866600000000 1.0
C      1  0.5703280000000  0.4463570000000  0.4858700000000 1.0
C      1  0.5271760000000  0.6055770000000  0.4832790000000 1.0
C      1  0.4738240000000  0.3932980000000  0.4802290000000 1.0
C      1  0.5836820000000  0.5479180000000  0.5575090000000 1.0
C      1  0.4183650000000  0.4525970000000  0.5584590000000 1.0
C      1  0.5525210000000  0.5412630000000  0.4367590000000 1.0
C      1  0.4447500000000  0.4596350000000  0.4475540000000 1.0
C      1  0.4827680000000  0.4852190000000  0.5902200000000 1.0
C      1  0.5263280000000  0.5206600000000  0.5937040000000 1.0
C      1  0.4992840000000  0.5433780000000  0.4036260000000 1.0
C      1  0.5018410000000  0.4534180000000  0.4004520000000 1.0
C      1  0.5171620000000  0.4872110000000  0.5005790000000 1.0
C      1  0.4829130000000  0.5155590000000  0.5056810000000 1.0
C      1  0.4657890000000  0.5002210000000  0.5771520000000 1.0
C      1  0.5391310000000  0.4989330000000  0.5844700000000 1.0
C      1  0.4421780000000  0.4846100000000  0.4128810000000 1.0
C      1  0.5592560000000  0.5120980000000  0.4091890000000 1.0
C      1  0.4687500000000  0.4769810000000  0.4075810000000 1.0
C      1  0.5357600000000  0.5303410000000  0.4157140000000 1.0
C      1  0.4310740000000  0.4257860000000  0.5565870000000 1.0
C      1  0.5675450000000  0.5723770000000  0.5583540000000 1.0
C      1  0.4912690000000  0.4830460000000  0.5446480000000 1.0
C      1  0.5141460000000  0.5169750000000  0.5504950000000 1.0
C      1  0.5047400000000  0.3969240000000  0.5295630000000 1.0
C      1  0.4941050000000  0.6046020000000  0.5290860000000 1.0
C      1  0.4334340000000  0.4540950000000  0.4745110000000 1.0
C      1  0.5637750000000  0.5447640000000  0.4820980000000 1.0
C      1  0.5298990000000  0.5001740000000  0.6148660000000 1.0
C      1  0.4786340000000  0.4974080000000  0.6154230000000 1.0
C      1  0.5093610000000  0.5940950000000  0.4493540000000 1.0
C      1  0.4886880000000  0.4022530000000  0.4512120000000 1.0
C      1  0.6013610000000  0.5237190000000  0.5181570000000 1.0
C      1  0.3985770000000  0.4770850000000  0.5184950000000 1.0
C      1  0.4936980000000  0.4756230000000  0.5156880000000 1.0
C      1  0.5078870000000  0.5262310000000  0.5209530000000 1.0
C      1  0.5224130000000  0.5613190000000  0.4768180000000 1.0
C      1  0.4756420000000  0.4379240000000  0.4673670000000 1.0
C      1  0.5901360000000  0.4706300000000  0.4478610000000 1.0
C      1  0.4106100000000  0.5318770000000  0.4478420000000 1.0
C      1  0.5400860000000  0.4727250000000  0.5033210000000 1.0
C      1  0.4572200000000  0.5235710000000  0.5068090000000 1.0
C      1  0.5260620000000  0.5127050000000  0.5039650000000 1.0
C      1  0.4764500000000  0.4906670000000  0.5006290000000 1.0
C      1  0.4555700000000  0.4510330000000  0.5881890000000 1.0
C      1  0.5321440000000  0.5494560000000  0.5899310000000 1.0
C      1  0.5502440000000  0.5131680000000  0.4875110000000 1.0
C      1  0.4504740000000  0.4861700000000  0.4864220000000 1.0
C      1  0.4224360000000  0.5236130000000  0.4233090000000 1.0
C      1  0.5762430000000  0.4783720000000  0.4237470000000 1.0
C      1  0.4775270000000  0.4492710000000  0.4134050000000 1.0
C      1  0.5219510000000  0.5556670000000  0.4129920000000 1.0
C      1  0.4248690000000  0.4679460000000  0.4283100000000 1.0
C      1  0.5762760000000  0.5275800000000  0.4271850000000 1.0
C      1  0.3915580000000  0.4799900000000  0.4910490000000 1.0
C      1  0.6064280000000  0.5212150000000  0.4903250000000 1.0
C      1  0.4450850000000  0.4025390000000  0.4778080000000 1.0
C      1  0.5549580000000  0.5958190000000  0.4780030000000 1.0
C      1  0.5861680000000  0.4366730000000  0.5068370000000 1.0
C      1  0.4138490000000  0.5637280000000  0.5067640000000 1.0
C      1  0.4833570000000  0.4590910000000  0.5894640000000 1.0
C      1  0.5060350000000  0.5548110000000  0.5854560000000 1.0
C      1  0.4369180000000  0.4133440000000  0.5305620000000 1.0
C      1  0.5651450000000  0.5880480000000  0.5335930000000 1.0
C      1  0.4304450000000  0.5010560000000  0.5426460000000 1.0
C      1  0.5679960000000  0.4961670000000  0.5346290000000 1.0
C      1  0.5406810000000  0.5292800000000  0.5540940000000 1.0
C      1  0.4704580000000  0.4654450000000  0.5497650000000 1.0
C      1  0.4682700000000  0.5960950000000  0.4570630000000 1.0
C      1  0.5297370000000  0.4019410000000  0.4576110000000 1.0
C      1  0.4690670000000  0.5322710000000  0.5425920000000 1.0
C      1  0.5308930000000  0.4685060000000  0.5411800000000 1.0
C      1  0.4086530000000  0.4818070000000  0.4487650000000 1.0
C      1  0.5879720000000  0.5191040000000  0.4518370000000 1.0
C      1  0.5418640000000  0.4542350000000  0.5250300000000 1.0
C      1  0.4553100000000  0.5450690000000  0.5245790000000 1.0
C      1  0.4999930000000  0.4341050000000  0.5093540000000 1.0
C      1  0.5010640000000  0.5687520000000  0.5095890000000 1.0
C      1  0.4974470000000  0.4718500000000  0.4442460000000 1.0
C      1  0.4955780000000  0.5214710000000  0.4393280000000 1.0
C      1  0.5665110000000  0.5711610000000  0.4674360000000 1.0
C      1  0.4325730000000  0.4248120000000  0.4644100000000 1.0
C      1  0.5686150000000  0.4502740000000  0.4192800000000 1.0
C      1  0.4322740000000  0.5507300000000  0.4187660000000 1.0
C      1  0.4458020000000  0.5070540000000  0.4304820000000 1.0
C      1  0.5517340000000  0.4933180000000  0.4276860000000 1.0
C      1  0.4837270000000  0.5958720000000  0.4828530000000 1.0
C      1  0.5158040000000  0.4021480000000  0.4838870000000 1.0
C      1  0.5772510000000  0.4249010000000  0.4683140000000 1.0
C      1  0.4226260000000  0.5753970000000  0.4686130000000 1.0
C      1  0.5149770000000  0.5396460000000  0.4663410000000 1.0
C      1  0.4898260000000  0.4606950000000  0.4709350000000 1.0
C      1  0.5084540000000  0.4842220000000  0.3989980000000 1.0
C      1  0.4853990000000  0.5007040000000  0.4003960000000 1.0
C      1  0.5321480000000  0.4450290000000  0.5786560000000 1.0
C      1  0.4628780000000  0.5555840000000  0.5774780000000 1.0
C      1  0.5981170000000  0.4976240000000  0.5305650000000 1.0
C      1  0.4041470000000  0.5019590000000  0.5303000000000 1.0
C      1  0.5534020000000  0.5701890000000  0.4412180000000 1.0
C      1  0.4432270000000  0.4322340000000  0.4380250000000 1.0
C      1  0.5911410000000  0.5386940000000  0.4731520000000 1.0
C      1  0.4055500000000  0.4641400000000  0.4712030000000 1.0
C      1  0.4079760000000  0.4533760000000  0.5311050000000 1.0
C      1  0.5935570000000  0.5488470000000  0.5299130000000 1.0
C      1  0.5277530000000  0.4802510000000  0.4201880000000 1.0
C      1  0.4725310000000  0.5193250000000  0.4212430000000 1.0
C      1  0.5542350000000  0.5471080000000  0.5120330000000 1.0
C      1  0.4481760000000  0.4559420000000  0.5176180000000 1.0
C      1  0.6036110000000  0.4804970000000  0.5104170000000 1.0
C      1  0.4092380000000  0.5173150000000  0.5071130000000 1.0
C      1  0.5145490000000  0.4943350000000  0.4736680000000 1.0
C      1  0.4925620000000  0.5003960000000  0.4572170000000 1.0
C      1  0.6038910000000  0.4933180000000  0.4855650000000 1.0
C      1  0.3946060000000  0.5073470000000  0.4847300000000 1.0
C      1  0.5367680000000  0.5809250000000  0.4923810000000 1.0
C      1  0.4634550000000  0.4172760000000  0.4911960000000 1.0
C      1  0.4334290000000  0.4680890000000  0.5781230000000 1.0
C      1  0.5658740000000  0.5283450000000  0.5699180000000 1.0
C      1  0.4436530000000  0.5951110000000  0.4737660000000 1.0
C      1  0.5550510000000  0.4061170000000  0.4738590000000 1.0
C      1  0.5232330000000  0.5697380000000  0.5442220000000 1.0
C      1  0.4755320000000  0.4348950000000  0.5507410000000 1.0
C      1  0.5412830000000  0.5676430000000  0.5689220000000 1.0
C      1  0.4561230000000  0.4272890000000  0.5716410000000 1.0
C      1  0.4638630000000  0.5313890000000  0.4639810000000 1.0
C      1  0.5403840000000  0.4658400000000  0.4584250000000 1.0
C      1  0.4368360000000  0.5070320000000  0.5010840000000 1.0
C      1  0.5611680000000  0.4928050000000  0.5054500000000 1.0
C      1  0.4587930000000  0.5438610000000  0.4093840000000 1.0
C      1  0.5407320000000  0.4552470000000  0.4125090000000 1.0
C      1  0.5176330000000  0.6096130000000  0.5114340000000 1.0
C      1  0.4834190000000  0.3901050000000  0.5112890000000 1.0
C      1  0.4260100000000  0.4358200000000  0.5159200000000 1.0
C      1  0.5757470000000  0.5675850000000  0.5168810000000 1.0
C      1  0.4802580000000  0.5628720000000  0.4124020000000 1.0
C      1  0.5217100000000  0.4336240000000  0.4103160000000 1.0
C      1  0.4888090000000  0.5440840000000  0.4542720000000 1.0
C      1  0.5194540000000  0.4519540000000  0.4464250000000 1.0
C      1  0.5455240000000  0.4131060000000  0.5482960000000 1.0
C      1  0.4528970000000  0.5871380000000  0.5475190000000 1.0
C      1  0.5182940000000  0.4847470000000  0.5584780000000 1.0
C      1  0.4825890000000  0.5197270000000  0.5601950000000 1.0
C      1  0.4797650000000  0.5577830000000  0.4950700000000 1.0
C      1  0.5115450000000  0.4518100000000  0.4878120000000 1.0
C      1  0.5798060000000  0.4436390000000  0.4460000000000 1.0
C      1  0.4243930000000  0.5570330000000  0.4465690000000 1.0
C      1  0.4743600000000  0.5721350000000  0.5575590000000 1.0
C      1  0.5238590000000  0.4269940000000  0.5590180000000 1.0
C      1  0.4646820000000  0.6027300000000  0.5256850000000 1.0
C      1  0.5342080000000  0.3985070000000  0.5259760000000 1.0
C      1  0.5413690000000  0.4961340000000  0.4615240000000 1.0
C      1  0.4594820000000  0.5031430000000  0.4618050000000 1.0
C      1  0.5404140000000  0.4491210000000  0.4811310000000 1.0
C      1  0.4574350000000  0.5518500000000  0.4804050000000 1.0
C      1  0.5674850000000  0.4297960000000  0.5544310000000 1.0
C      1  0.4308080000000  0.5700360000000  0.5543640000000 1.0
C      1  0.5856100000000  0.4930640000000  0.4644700000000 1.0
C      1  0.4107410000000  0.5075330000000  0.4618930000000 1.0
C      1  0.4801570000000  0.5202820000000  0.6121200000000 1.0
C      1  0.5209520000000  0.4754450000000  0.6112590000000 1.0
C      1  0.4650240000000  0.4097440000000  0.5214960000000 1.0
C      1  0.5364700000000  0.5922130000000  0.5261600000000 1.0
C      1  0.5985040000000  0.4576390000000  0.5219620000000 1.0
C      1  0.4037750000000  0.5412560000000  0.5209360000000 1.0
C      1  0.5234180000000  0.5519510000000  0.5198900000000 1.0
C      1  0.4760790000000  0.4521120000000  0.5120440000000 1.0
C      1  0.4825080000000  0.5447460000000  0.5954290000000 1.0
C      1  0.5116150000000  0.4525040000000  0.5983410000000 1.0
C      1  0.5693410000000  0.4779760000000  0.5635010000000 1.0
C      1  0.4283260000000  0.5188920000000  0.5661430000000 1.0
C      1  0.4984680000000  0.4207390000000  0.4704720000000 1.0
C      1  0.5021290000000  0.5792050000000  0.4733630000000 1.0
C      1  0.5396350000000  0.4080020000000  0.4993090000000 1.0
C      1  0.4596300000000  0.5936920000000  0.4986130000000 1.0
C      1  0.5186430000000  0.4230000000000  0.4378900000000 1.0
C      1  0.4823040000000  0.5761150000000  0.4398600000000 1.0
C      1  0.4272810000000  0.5539080000000  0.5316840000000 1.0
C      1  0.5707080000000  0.4445400000000  0.5309330000000 1.0
C      1  0.5276060000000  0.5795370000000  0.4324510000000 1.0
C      1  0.4725330000000  0.4274610000000  0.4365990000000 1.0
C      1  0.5551300000000  0.5235990000000  0.5307080000000 1.0
C      1  0.4467140000000  0.4771340000000  0.5377670000000 1.0
C      1  0.5602050000000  0.4518450000000  0.5721450000000 1.0
C      1  0.4358090000000  0.5474760000000  0.5717450000000 1.0
C      1  0.5679510000000  0.5008680000000  0.5801260000000 1.0
C      1  0.4368120000000  0.4972350000000  0.5834420000000 1.0
C      1  0.4995360000000  0.4185770000000  0.5482980000000 1.0
C      1  0.4979690000000  0.5833340000000  0.5479300000000 1.0
END
