TITL C-2441159-1093-1491 -0.00155994343657939 125000 -3071.99624264288 0 0 25 (C1) n - 1
REM
REM in /home/bkarasulu/work/CARBON/AIRSS/Generating-Clusters/ReaxFF-fromJPCA2015/Units_Real/with-SteepDescent/Higher-Symm
REM
REM
REM
REM
REM
REM ./C.cell (1df0a924f5614ab8850e4351716899ee)
REM
REM compiler GCC version 9.2.1 20190827 (Red Hat 9.2.1-1)
REM options -cpp -mtune=generic -march=x86-64 -g -O0 -fpre-include=/usr/include/finclude/math-vector-fortran.h
REM seed 961800429 622200835 1562530696 368082483 2110435910 1093656685 -459144614 625195289 -1875945306 624215292 1265583894 -1521525738 1633194524 501631642 1546787332 -925471427 -473227080 -1847168069 779952574 -209789873 791315283 -820612502 1162519387 -2068386036 786485408 -253466135 453971335 -888102318 -231147288 1955443896 1781030799 -632414523 -2005959195
REM
CELL 1.54180   50.00000   50.00000   50.00000   90.00000   90.00000   90.00000
LATT -1
SFAC C  
C      1  0.5297670000000  0.4748910000000  0.4932590000000 1.0
C      1  0.5288900000000  0.5096560000000  0.5278570000000 1.0
C      1  0.5296550000000  0.5225600000000  0.4787340000000 1.0
C      1  0.4719850000000  0.4738940000000  0.5074790000000 1.0
C      1  0.4708540000000  0.5093840000000  0.4726030000000 1.0
C      1  0.4726450000000  0.5211640000000  0.5212590000000 1.0
C      1  0.4357370000000  0.5362520000000  0.5105380000000 1.0
C      1  0.4341310000000  0.4936150000000  0.4640500000000 1.0
C      1  0.4346520000000  0.4751630000000  0.5243660000000 1.0
C      1  0.5665680000000  0.5366830000000  0.4888280000000 1.0
C      1  0.5657130000000  0.4938340000000  0.5348290000000 1.0
C      1  0.5665980000000  0.4754680000000  0.4748060000000 1.0
C      1  0.4476320000000  0.5146580000000  0.4507810000000 1.0
C      1  0.4472070000000  0.4527760000000  0.5139950000000 1.0
C      1  0.4476180000000  0.5386880000000  0.5351550000000 1.0
C      1  0.5535290000000  0.5137880000000  0.5496920000000 1.0
C      1  0.5522110000000  0.4536970000000  0.4869900000000 1.0
C      1  0.5540580000000  0.5387920000000  0.4639250000000 1.0
C      1  0.5206800000000  0.4944600000000  0.4731310000000 1.0
C      1  0.5152840000000  0.4849380000000  0.5189780000000 1.0
C      1  0.5214730000000  0.5305310000000  0.5067890000000 1.0
C      1  0.4820420000000  0.4939180000000  0.5257000000000 1.0
C      1  0.4811130000000  0.4827690000000  0.4806720000000 1.0
C      1  0.4820520000000  0.5258230000000  0.4940780000000 1.0
C      1  0.5011500000000  0.4998470000000  0.4934270000000 1.0
END
