TITL C-2441160-1326-1157 0.0174716495170565 125000 -8910.49060301199 0 0 66 (C1) n - 1
REM
REM in /home/bkarasulu/work/CARBON/AIRSS/Generating-Clusters/ReaxFF-fromJPCA2015/Units_Real/with-SteepDescent/Higher-Symm
REM
REM
REM
REM
REM
REM ./C.cell (1df0a924f5614ab8850e4351716899ee)
REM
REM compiler GCC version 9.2.1 20190827 (Red Hat 9.2.1-1)
REM options -cpp -mtune=generic -march=x86-64 -g -O0 -fpre-include=/usr/include/finclude/math-vector-fortran.h
REM seed 1184430015 1888172337 63226400 -718425139 -1237481061 -895795658 -480064037 -232432731 -1993839275 -666074089 694135815 -526591750 -51626060 2033302990 1197413144 -260399925 1881840761 -1007319530 1972915925 1571131726 -1358078700 -282748676 1659679175 -520355496 867394304 -1193151269 1372426325 -2011406044 652782219 943006662 -1974212121 440920312 573928572
REM
CELL 1.54180   50.00000   50.00000   50.00000   90.00000   90.00000   90.00000
LATT -1
SFAC C  
C      1  0.5025380000000  0.4341860000000  0.4889380000000 1.0
C      1  0.4986680000000  0.5618480000000  0.4818560000000 1.0
C      1  0.5426040000000  0.4843610000000  0.5424650000000 1.0
C      1  0.5406960000000  0.5150530000000  0.5427180000000 1.0
C      1  0.5298710000000  0.4335900000000  0.4862040000000 1.0
C      1  0.5293270000000  0.5667610000000  0.4850980000000 1.0
C      1  0.5435620000000  0.5346360000000  0.4447630000000 1.0
C      1  0.5426360000000  0.4638510000000  0.4455590000000 1.0
C      1  0.5227930000000  0.5139130000000  0.4373250000000 1.0
C      1  0.5224850000000  0.4850860000000  0.4376750000000 1.0
C      1  0.4719190000000  0.5727190000000  0.4803310000000 1.0
C      1  0.4799820000000  0.4331770000000  0.4715530000000 1.0
C      1  0.4740360000000  0.5139680000000  0.4417390000000 1.0
C      1  0.4734150000000  0.4857460000000  0.4428530000000 1.0
C      1  0.5753530000000  0.5159620000000  0.4833690000000 1.0
C      1  0.5750930000000  0.4834380000000  0.4828690000000 1.0
C      1  0.5333330000000  0.5606540000000  0.5265090000000 1.0
C      1  0.5347410000000  0.4401140000000  0.5277950000000 1.0
C      1  0.5515810000000  0.4430940000000  0.5073360000000 1.0
C      1  0.5493520000000  0.5569230000000  0.5052300000000 1.0
C      1  0.4583050000000  0.4719760000000  0.5324050000000 1.0
C      1  0.4585380000000  0.5282770000000  0.5323500000000 1.0
C      1  0.5155480000000  0.5610000000000  0.5481680000000 1.0
C      1  0.5159900000000  0.4398040000000  0.5485700000000 1.0
C      1  0.5692230000000  0.5321470000000  0.5064760000000 1.0
C      1  0.5703360000000  0.4672440000000  0.5066580000000 1.0
C      1  0.5165010000000  0.5143880000000  0.4895170000000 1.0
C      1  0.5172480000000  0.4848140000000  0.4900770000000 1.0
C      1  0.5006680000000  0.4423460000000  0.4493970000000 1.0
C      1  0.5040970000000  0.5549070000000  0.4534200000000 1.0
C      1  0.4348300000000  0.4734750000000  0.5075470000000 1.0
C      1  0.4349050000000  0.5271290000000  0.5074140000000 1.0
C      1  0.5683060000000  0.5148680000000  0.5301440000000 1.0
C      1  0.5695000000000  0.4852110000000  0.5297640000000 1.0
C      1  0.4401250000000  0.5148760000000  0.4801640000000 1.0
C      1  0.4399430000000  0.4859910000000  0.4801670000000 1.0
C      1  0.5072520000000  0.5306690000000  0.5491940000000 1.0
C      1  0.5057040000000  0.4693350000000  0.5493870000000 1.0
C      1  0.4586510000000  0.5514000000000  0.4758240000000 1.0
C      1  0.4605600000000  0.4523320000000  0.4729080000000 1.0
C      1  0.4642420000000  0.5234230000000  0.4693480000000 1.0
C      1  0.4632210000000  0.4764570000000  0.4698290000000 1.0
C      1  0.5605370000000  0.5295340000000  0.4654720000000 1.0
C      1  0.5598460000000  0.4703700000000  0.4657920000000 1.0
C      1  0.4864940000000  0.5237290000000  0.5667480000000 1.0
C      1  0.4856190000000  0.4760680000000  0.5676900000000 1.0
C      1  0.4603660000000  0.4851980000000  0.5599550000000 1.0
C      1  0.4608170000000  0.5149380000000  0.5599720000000 1.0
C      1  0.4977210000000  0.4703310000000  0.4399220000000 1.0
C      1  0.4982580000000  0.5290880000000  0.4393350000000 1.0
C      1  0.4070320000000  0.5370170000000  0.5115960000000 1.0
C      1  0.4072500000000  0.4630870000000  0.5115020000000 1.0
C      1  0.4146150000000  0.5142840000000  0.5244220000000 1.0
C      1  0.4143300000000  0.4858960000000  0.5245260000000 1.0
C      1  0.5327170000000  0.5606280000000  0.4563840000000 1.0
C      1  0.5286550000000  0.4391620000000  0.4564840000000 1.0
C      1  0.4852030000000  0.5293090000000  0.5231750000000 1.0
C      1  0.4849720000000  0.4707460000000  0.5234150000000 1.0
C      1  0.5251740000000  0.5128870000000  0.5175020000000 1.0
C      1  0.5260380000000  0.4852560000000  0.5175620000000 1.0
C      1  0.4875360000000  0.4847540000000  0.4943230000000 1.0
C      1  0.4872240000000  0.5158540000000  0.4949430000000 1.0
C      1  0.4904300000000  0.4300240000000  0.5406490000000 1.0
C      1  0.4898560000000  0.5705810000000  0.5406450000000 1.0
C      1  0.4707490000000  0.5564880000000  0.5285940000000 1.0
C      1  0.4708840000000  0.4436220000000  0.5284790000000 1.0
END
