TITL C-2441163-1170-704 0.000340757309626965 125000 -5009.26747797582 0 0 37 (C1) n - 1
REM
REM in /home/bkarasulu/work/CARBON/AIRSS/Generating-Clusters/ReaxFF-fromJPCA2015/Units_Real/with-SteepDescent/Higher-Symm
REM
REM
REM
REM
REM
REM ./C.cell (1df0a924f5614ab8850e4351716899ee)
REM
REM compiler GCC version 9.2.1 20190827 (Red Hat 9.2.1-1)
REM options -cpp -mtune=generic -march=x86-64 -g -O0 -fpre-include=/usr/include/finclude/math-vector-fortran.h
REM seed 1386178593 -431848693 -38464382 1205471472 598262990 1420613017 1397767305 1887022393 -355015086 -941624086 -1533539224 619135484 947353807 963209667 -1662837123 -2136306693 -1952735980 -1359697936 -870568448 -1560496332 -611387454 103820952 -2007884621 1698844501 -588734581 1118110189 -238624959 -632684589 271562190 -1566456275 1105496557 -868013675 -2061384398
REM
CELL 1.54180   50.00000   50.00000   50.00000   90.00000   90.00000   90.00000
LATT -1
SFAC C  
C      1  0.5354570000000  0.4942840000000  0.4750230000000 1.0
C      1  0.5352190000000  0.4939510000000  0.5275290000000 1.0
C      1  0.5203830000000  0.5709660000000  0.5157750000000 1.0
C      1  0.5202470000000  0.5713000000000  0.4858370000000 1.0
C      1  0.4757350000000  0.4400600000000  0.5152690000000 1.0
C      1  0.4758530000000  0.4401750000000  0.4864090000000 1.0
C      1  0.5138410000000  0.4591270000000  0.4816900000000 1.0
C      1  0.5137020000000  0.4589750000000  0.5203150000000 1.0
C      1  0.4539610000000  0.4968430000000  0.4719320000000 1.0
C      1  0.4536650000000  0.4965610000000  0.5301660000000 1.0
C      1  0.4824480000000  0.5366830000000  0.4703930000000 1.0
C      1  0.4822670000000  0.5367390000000  0.5315510000000 1.0
C      1  0.5494150000000  0.5713740000000  0.5140280000000 1.0
C      1  0.5490050000000  0.5712190000000  0.4875960000000 1.0
C      1  0.4602980000000  0.4955760000000  0.5589690000000 1.0
C      1  0.4606020000000  0.4958450000000  0.4431200000000 1.0
C      1  0.5156860000000  0.4842870000000  0.4398140000000 1.0
C      1  0.5152420000000  0.4835200000000  0.5625560000000 1.0
C      1  0.5287550000000  0.4674520000000  0.4608980000000 1.0
C      1  0.5285350000000  0.4670450000000  0.5413060000000 1.0
C      1  0.5067880000000  0.5480180000000  0.5256340000000 1.0
C      1  0.5034420000000  0.5550020000000  0.4694540000000 1.0
C      1  0.5235790000000  0.5088190000000  0.5505100000000 1.0
C      1  0.5240230000000  0.5094810000000  0.4521910000000 1.0
C      1  0.4645660000000  0.5202990000000  0.4865780000000 1.0
C      1  0.4641840000000  0.5202030000000  0.5157360000000 1.0
C      1  0.4658450000000  0.4700550000000  0.4861000000000 1.0
C      1  0.4657330000000  0.4699410000000  0.5157930000000 1.0
C      1  0.5056100000000  0.5316700000000  0.4541970000000 1.0
C      1  0.5056510000000  0.5312550000000  0.5476440000000 1.0
C      1  0.5008260000000  0.4407710000000  0.5278960000000 1.0
C      1  0.5009930000000  0.4409890000000  0.4738790000000 1.0
C      1  0.4933350000000  0.4801890000000  0.4792110000000 1.0
C      1  0.4931710000000  0.4800260000000  0.5228930000000 1.0
C      1  0.4877250000000  0.4833600000000  0.5521250000000 1.0
C      1  0.4880550000000  0.4837120000000  0.4499610000000 1.0
C      1  0.5232670000000  0.4951480000000  0.5012180000000 1.0
END
