TITL C-2441163-1170-518 0.0236947418395927 125000 -8505.68478500281 0 0 63 (C1) n - 1
REM
REM in /home/bkarasulu/work/CARBON/AIRSS/Generating-Clusters/ReaxFF-fromJPCA2015/Units_Real/with-SteepDescent/Higher-Symm
REM
REM
REM
REM
REM
REM ./C.cell (1df0a924f5614ab8850e4351716899ee)
REM
REM compiler GCC version 9.2.1 20190827 (Red Hat 9.2.1-1)
REM options -cpp -mtune=generic -march=x86-64 -g -O0 -fpre-include=/usr/include/finclude/math-vector-fortran.h
REM seed -1040876041 1581781489 641196428 -1838301808 1925500851 1539015974 -591052344 1647772586 981786498 1324508513 416762491 1424081996 -313241029 -1076170016 -735039097 677701652 306416181 1913326233 1083103781 -1576838919 -1961193438 322603480 2127787884 772668135 1875972600 1916859431 302251683 -625837138 -819490776 -1885513307 1974025911 -1880354989 -74236464
REM
CELL 1.54180   50.00000   50.00000   50.00000   90.00000   90.00000   90.00000
LATT -1
SFAC C  
C      1  0.4564690000000  0.5405280000000  0.4716130000000 1.0
C      1  0.5470430000000  0.5444490000000  0.4761090000000 1.0
C      1  0.4963120000000  0.5437270000000  0.5528770000000 1.0
C      1  0.4334010000000  0.5081520000000  0.5372020000000 1.0
C      1  0.5033910000000  0.5079980000000  0.4279900000000 1.0
C      1  0.5616840000000  0.5089900000000  0.5390630000000 1.0
C      1  0.5657010000000  0.5233680000000  0.4856060000000 1.0
C      1  0.4790260000000  0.5230690000000  0.5648570000000 1.0
C      1  0.4544580000000  0.5185820000000  0.4516340000000 1.0
C      1  0.5262620000000  0.4553070000000  0.4882160000000 1.0
C      1  0.4975350000000  0.4563690000000  0.5337060000000 1.0
C      1  0.4738580000000  0.4479900000000  0.4838460000000 1.0
C      1  0.5165400000000  0.5486150000000  0.4484450000000 1.0
C      1  0.5373170000000  0.5487880000000  0.5406520000000 1.0
C      1  0.4460390000000  0.5492590000000  0.5124220000000 1.0
C      1  0.5551490000000  0.4831510000000  0.5524810000000 1.0
C      1  0.4335690000000  0.4824170000000  0.5245320000000 1.0
C      1  0.5167250000000  0.4813060000000  0.4261750000000 1.0
C      1  0.4746950000000  0.4566180000000  0.4562300000000 1.0
C      1  0.5515530000000  0.4560640000000  0.5017250000000 1.0
C      1  0.4700950000000  0.4580840000000  0.5415200000000 1.0
C      1  0.4449630000000  0.5066370000000  0.4937090000000 1.0
C      1  0.5381170000000  0.5016180000000  0.4566890000000 1.0
C      1  0.5173340000000  0.5020560000000  0.5547940000000 1.0
C      1  0.5165910000000  0.4853060000000  0.4795470000000 1.0
C      1  0.5102910000000  0.4869380000000  0.5261980000000 1.0
C      1  0.4720990000000  0.4959000000000  0.4971280000000 1.0
C      1  0.5544670000000  0.5507610000000  0.5176950000000 1.0
C      1  0.4574580000000  0.5507000000000  0.5382980000000 1.0
C      1  0.4878510000000  0.5487430000000  0.4444730000000 1.0
C      1  0.5612830000000  0.4973350000000  0.4728160000000 1.0
C      1  0.4919430000000  0.4969490000000  0.5670910000000 1.0
C      1  0.4459180000000  0.4904340000000  0.4566180000000 1.0
C      1  0.4322390000000  0.5240940000000  0.5127210000000 1.0
C      1  0.5249880000000  0.5229030000000  0.4385080000000 1.0
C      1  0.5417690000000  0.5232700000000  0.5531440000000 1.0
C      1  0.5208980000000  0.4559110000000  0.4388020000000 1.0
C      1  0.5415410000000  0.4559690000000  0.5499820000000 1.0
C      1  0.4386140000000  0.4628160000000  0.5059880000000 1.0
C      1  0.5359530000000  0.5604190000000  0.4974560000000 1.0
C      1  0.4844810000000  0.5603920000000  0.5329290000000 1.0
C      1  0.4788130000000  0.5586340000000  0.4702190000000 1.0
C      1  0.5183570000000  0.5484670000000  0.4774610000000 1.0
C      1  0.5109780000000  0.5485730000000  0.5284400000000 1.0
C      1  0.4700090000000  0.5477520000000  0.4961700000000 1.0
C      1  0.4628610000000  0.4434920000000  0.5132690000000 1.0
C      1  0.4986600000000  0.4413390000000  0.4513530000000 1.0
C      1  0.5394280000000  0.4440960000000  0.5247240000000 1.0
C      1  0.5552760000000  0.4857030000000  0.4991540000000 1.0
C      1  0.4719980000000  0.4864560000000  0.5479270000000 1.0
C      1  0.4738240000000  0.4830170000000  0.4522330000000 1.0
C      1  0.4785410000000  0.5231450000000  0.4351440000000 1.0
C      1  0.5680550000000  0.5254880000000  0.5145780000000 1.0
C      1  0.4530260000000  0.5257570000000  0.5520480000000 1.0
C      1  0.4342100000000  0.4816300000000  0.4828070000000 1.0
C      1  0.5409220000000  0.4774850000000  0.4427090000000 1.0
C      1  0.5293570000000  0.4795400000000  0.5654010000000 1.0
C      1  0.4829800000000  0.4961300000000  0.5227810000000 1.0
C      1  0.4887980000000  0.4930030000000  0.4747760000000 1.0
C      1  0.5283380000000  0.4943980000000  0.5044620000000 1.0
C      1  0.4925220000000  0.4336700000000  0.5177550000000 1.0
C      1  0.4945990000000  0.4293330000000  0.4774820000000 1.0
C      1  0.5128270000000  0.4309090000000  0.4976220000000 1.0
END
