TITL C-2441166-8118-50 0.137381342218222 125000 -15117.1556945172 0 0 124 (C1) n - 1
REM
REM in /home/bkarasulu/work/CARBON/AIRSS/Generating-Clusters/ReaxFF-fromJPCA2015/Units_Real/with-SteepDescent/Higher-Symm
REM
REM
REM
REM
REM
REM ./C.cell (1df0a924f5614ab8850e4351716899ee)
REM
REM compiler GCC version 9.2.1 20190827 (Red Hat 9.2.1-1)
REM options -cpp -mtune=generic -march=x86-64 -g -O0 -fpre-include=/usr/include/finclude/math-vector-fortran.h
REM seed 1700234352 211771213 -840487843 1626873500 -826073088 1534196938 756945441 -1791976989 -1719131723 1364975844 -1538646579 -1850035333 1112942912 -1165589846 202704090 1534817657 -636772592 1066204798 -524506303 150899975 1854268835 -679375495 959354119 -1765563004 554963930 2034598844 1650083129 -1945611588 1868031906 -1822466915 -1566633338 -7121895 1212798820
REM
CELL 1.54180   50.00000   50.00000   50.00000   90.00000   90.00000   90.00000
LATT -1
SFAC C  
C      1  0.5127350000000  0.4109090000000  0.5170370000000 1.0
C      1  0.5694130000000  0.5557890000000  0.5172830000000 1.0
C      1  0.4162510000000  0.5325120000000  0.5174150000000 1.0
C      1  0.4883990000000  0.4079790000000  0.4808590000000 1.0
C      1  0.4268080000000  0.5579800000000  0.4824170000000 1.0
C      1  0.5876610000000  0.5364720000000  0.4808590000000 1.0
C      1  0.4876060000000  0.4223380000000  0.5229800000000 1.0
C      1  0.5748690000000  0.5293180000000  0.5262400000000 1.0
C      1  0.4377400000000  0.5487880000000  0.5273180000000 1.0
C      1  0.5136800000000  0.4172600000000  0.4712330000000 1.0
C      1  0.4236790000000  0.5319530000000  0.4717020000000 1.0
C      1  0.5656610000000  0.5518460000000  0.4709040000000 1.0
C      1  0.5360230000000  0.5841190000000  0.5040920000000 1.0
C      1  0.4104350000000  0.4855200000000  0.5024130000000 1.0
C      1  0.5547520000000  0.4285270000000  0.5012730000000 1.0
C      1  0.4657700000000  0.5820280000000  0.4980220000000 1.0
C      1  0.5872890000000  0.4893140000000  0.4959270000000 1.0
C      1  0.4502300000000  0.4315830000000  0.4954670000000 1.0
C      1  0.5031250000000  0.5300820000000  0.5867680000000 1.0
C      1  0.4695720000000  0.4882410000000  0.5907780000000 1.0
C      1  0.5259610000000  0.4831830000000  0.5895210000000 1.0
C      1  0.4961020000000  0.5311010000000  0.4118300000000 1.0
C      1  0.5289130000000  0.4880750000000  0.4106420000000 1.0
C      1  0.4728930000000  0.4777540000000  0.4123360000000 1.0
C      1  0.5711920000000  0.4346030000000  0.4788600000000 1.0
C      1  0.5227160000000  0.5912790000000  0.4787270000000 1.0
C      1  0.4145160000000  0.4703640000000  0.4773440000000 1.0
C      1  0.4325540000000  0.4347430000000  0.5181040000000 1.0
C      1  0.4778780000000  0.5944120000000  0.5210620000000 1.0
C      1  0.5913400000000  0.4734310000000  0.5215780000000 1.0
C      1  0.5001660000000  0.5441690000000  0.5628170000000 1.0
C      1  0.4624760000000  0.4781590000000  0.5641700000000 1.0
C      1  0.5375220000000  0.4764210000000  0.5639410000000 1.0
C      1  0.5006290000000  0.5430330000000  0.4380780000000 1.0
C      1  0.5383820000000  0.4767990000000  0.4368280000000 1.0
C      1  0.4528990000000  0.4720220000000  0.4423310000000 1.0
C      1  0.4744050000000  0.4727850000000  0.4626560000000 1.0
C      1  0.5293260000000  0.4891070000000  0.4615010000000 1.0
C      1  0.4943730000000  0.5251250000000  0.4587580000000 1.0
C      1  0.5189570000000  0.4777520000000  0.5425380000000 1.0
C      1  0.4742000000000  0.4952190000000  0.5442800000000 1.0
C      1  0.5073880000000  0.5318480000000  0.5377480000000 1.0
C      1  0.4889770000000  0.4334420000000  0.4318840000000 1.0
C      1  0.5635170000000  0.5218510000000  0.4313290000000 1.0
C      1  0.4499940000000  0.5473520000000  0.4306810000000 1.0
C      1  0.5138190000000  0.4316470000000  0.5676790000000 1.0
C      1  0.4371350000000  0.5203060000000  0.5656620000000 1.0
C      1  0.5525820000000  0.5469650000000  0.5683690000000 1.0
C      1  0.4177720000000  0.5036710000000  0.5507630000000 1.0
C      1  0.5365050000000  0.4295610000000  0.5491460000000 1.0
C      1  0.5430920000000  0.5700860000000  0.5522800000000 1.0
C      1  0.5807400000000  0.5046020000000  0.4471820000000 1.0
C      1  0.4655520000000  0.4235090000000  0.4462300000000 1.0
C      1  0.4598850000000  0.5676240000000  0.4491650000000 1.0
C      1  0.5237320000000  0.5112630000000  0.5880200000000 1.0
C      1  0.4808630000000  0.5149110000000  0.5871300000000 1.0
C      1  0.4986340000000  0.4752130000000  0.5892440000000 1.0
C      1  0.4755670000000  0.5075540000000  0.4152630000000 1.0
C      1  0.5185180000000  0.5149730000000  0.4131490000000 1.0
C      1  0.5024750000000  0.4760180000000  0.4175220000000 1.0
C      1  0.5312630000000  0.4018760000000  0.5396710000000 1.0
C      1  0.5697810000000  0.5762460000000  0.5388040000000 1.0
C      1  0.3977190000000  0.5229850000000  0.5384210000000 1.0
C      1  0.4707520000000  0.3997870000000  0.4605780000000 1.0
C      1  0.4340090000000  0.5771520000000  0.4589980000000 1.0
C      1  0.6022820000000  0.5216420000000  0.4588550000000 1.0
C      1  0.5720050000000  0.4872930000000  0.4709440000000 1.0
C      1  0.4802080000000  0.5693360000000  0.4750550000000 1.0
C      1  0.4480180000000  0.4381040000000  0.4677690000000 1.0
C      1  0.4181720000000  0.4824980000000  0.5298830000000 1.0
C      1  0.5253500000000  0.5766150000000  0.5298600000000 1.0
C      1  0.5517850000000  0.4463970000000  0.5248910000000 1.0
C      1  0.5484990000000  0.5597760000000  0.4916550000000 1.0
C      1  0.4204140000000  0.5117340000000  0.4914160000000 1.0
C      1  0.5278340000000  0.4212520000000  0.4951010000000 1.0
C      1  0.4467380000000  0.5614940000000  0.5038490000000 1.0
C      1  0.5816110000000  0.5164160000000  0.5024950000000 1.0
C      1  0.4788350000000  0.4319900000000  0.4977700000000 1.0
C      1  0.5055930000000  0.4491490000000  0.5874420000000 1.0
C      1  0.5429480000000  0.5308880000000  0.5882100000000 1.0
C      1  0.4536670000000  0.5141690000000  0.5878390000000 1.0
C      1  0.4890870000000  0.4526800000000  0.4119700000000 1.0
C      1  0.4611090000000  0.5306550000000  0.4107110000000 1.0
C      1  0.5454360000000  0.5142740000000  0.4117180000000 1.0
C      1  0.5325100000000  0.5213480000000  0.5305820000000 1.0
C      1  0.4621010000000  0.5116340000000  0.5233740000000 1.0
C      1  0.5019740000000  0.4596900000000  0.5307510000000 1.0
C      1  0.4694070000000  0.5214000000000  0.4689810000000 1.0
C      1  0.5391960000000  0.5139480000000  0.4706610000000 1.0
C      1  0.4935800000000  0.4558450000000  0.4756620000000 1.0
C      1  0.5644930000000  0.4855730000000  0.5278560000000 1.0
C      1  0.4795740000000  0.5715720000000  0.5365750000000 1.0
C      1  0.4497130000000  0.4500570000000  0.5346590000000 1.0
C      1  0.4295310000000  0.4934040000000  0.4698690000000 1.0
C      1  0.5238120000000  0.5613500000000  0.4736610000000 1.0
C      1  0.5510910000000  0.4461580000000  0.4639680000000 1.0
C      1  0.5598970000000  0.4920180000000  0.5555550000000 1.0
C      1  0.4738340000000  0.5556230000000  0.5590530000000 1.0
C      1  0.4642490000000  0.4506340000000  0.5578020000000 1.0
C      1  0.4393620000000  0.4974720000000  0.4445790000000 1.0
C      1  0.5252360000000  0.5536060000000  0.4462290000000 1.0
C      1  0.5356460000000  0.4491800000000  0.4417170000000 1.0
C      1  0.4892570000000  0.4388420000000  0.5474840000000 1.0
C      1  0.5557800000000  0.5211030000000  0.5473460000000 1.0
C      1  0.4511020000000  0.5396000000000  0.5506280000000 1.0
C      1  0.5100650000000  0.4376110000000  0.4509560000000 1.0
C      1  0.4446030000000  0.5250340000000  0.4525890000000 1.0
C      1  0.5493170000000  0.5370740000000  0.4516520000000 1.0
C      1  0.4848590000000  0.5314800000000  0.5174070000000 1.0
C      1  0.4857550000000  0.4803330000000  0.5185410000000 1.0
C      1  0.5271030000000  0.4952060000000  0.5194070000000 1.0
C      1  0.5122620000000  0.5211980000000  0.4827620000000 1.0
C      1  0.5152810000000  0.4746500000000  0.4831010000000 1.0
C      1  0.4693080000000  0.4950010000000  0.4798600000000 1.0
C      1  0.4305270000000  0.4565190000000  0.4570650000000 1.0
C      1  0.5752050000000  0.4589290000000  0.4644550000000 1.0
C      1  0.4978980000000  0.5919530000000  0.4633110000000 1.0
C      1  0.5813610000000  0.4505680000000  0.5359120000000 1.0
C      1  0.4241090000000  0.4558000000000  0.5356870000000 1.0
C      1  0.5006440000000  0.5877150000000  0.5361590000000 1.0
C      1  0.5452050000000  0.4735290000000  0.5100540000000 1.0
C      1  0.4613060000000  0.4881820000000  0.5062150000000 1.0
C      1  0.4952360000000  0.5454570000000  0.4945870000000 1.0
C      1  0.5061140000000  0.4958330000000  0.5007090000000 1.0
END
