TITL C-2441162-9305-59 0.064778572683301 125000 -22208.3793446065 0 0 160 (C1) n - 1
REM
REM in /home/bkarasulu/work/CARBON/AIRSS/Generating-Clusters/ReaxFF-fromJPCA2015/Units_Real/with-SteepDescent/Higher-Symm
REM
REM
REM
REM
REM
REM ./C.cell (1df0a924f5614ab8850e4351716899ee)
REM
REM compiler GCC version 9.2.1 20190827 (Red Hat 9.2.1-1)
REM options -cpp -mtune=generic -march=x86-64 -g -O0 -fpre-include=/usr/include/finclude/math-vector-fortran.h
REM seed 1358549306 -636000047 -1621555032 -1864076855 -172744790 -1079699294 -293453399 1647996939 -635684644 -1012383541 -1854930611 497528090 458744693 -1426337600 -1972417671 -1025432870 273663353 933186549 -567928326 871817902 -1169428513 125133861 -1038273422 817955019 -210081157 -26083692 -271091702 1458331140 -1556195920 -266335159 -1485574062 960020697 1320374857
REM
CELL 1.54180   50.00000   50.00000   50.00000   90.00000   90.00000   90.00000
LATT -1
SFAC C  
C      1  0.5842720000000  0.5165280000000  0.4411930000000 1.0
C      1  0.5094080000000  0.5169720000000  0.6036180000000 1.0
C      1  0.4047000000000  0.5159740000000  0.4565680000000 1.0
C      1  0.5857440000000  0.5161560000000  0.5549350000000 1.0
C      1  0.5087470000000  0.5170090000000  0.3960880000000 1.0
C      1  0.4080210000000  0.5152670000000  0.5466470000000 1.0
C      1  0.4335520000000  0.4582100000000  0.5659480000000 1.0
C      1  0.4652130000000  0.4592880000000  0.4084740000000 1.0
C      1  0.5892340000000  0.4588200000000  0.5257400000000 1.0
C      1  0.4375740000000  0.4545830000000  0.4194210000000 1.0
C      1  0.4661630000000  0.4594720000000  0.5880960000000 1.0
C      1  0.5937700000000  0.4573390000000  0.4848270000000 1.0
C      1  0.4995940000000  0.4702920000000  0.4777950000000 1.0
C      1  0.5233800000000  0.4813940000000  0.5125640000000 1.0
C      1  0.4718680000000  0.4828960000000  0.5119590000000 1.0
C      1  0.4991790000000  0.4830290000000  0.5265440000000 1.0
C      1  0.5254190000000  0.4832600000000  0.4831620000000 1.0
C      1  0.4759830000000  0.4792720000000  0.4859100000000 1.0
C      1  0.5219610000000  0.5468840000000  0.5671340000000 1.0
C      1  0.4306180000000  0.5469210000000  0.4847100000000 1.0
C      1  0.5492710000000  0.5547970000000  0.4419850000000 1.0
C      1  0.5247930000000  0.5545640000000  0.4279270000000 1.0
C      1  0.4312980000000  0.5460530000000  0.5163180000000 1.0
C      1  0.5481900000000  0.5467400000000  0.5512490000000 1.0
C      1  0.5382120000000  0.4325350000000  0.5153290000000 1.0
C      1  0.4707830000000  0.4318550000000  0.5211890000000 1.0
C      1  0.4933280000000  0.4309490000000  0.4619440000000 1.0
C      1  0.5313520000000  0.4344610000000  0.4875240000000 1.0
C      1  0.4688930000000  0.4335240000000  0.4766460000000 1.0
C      1  0.4983790000000  0.4353760000000  0.5307240000000 1.0
C      1  0.5924180000000  0.4757630000000  0.5491370000000 1.0
C      1  0.4137950000000  0.4760240000000  0.5545680000000 1.0
C      1  0.4995920000000  0.4909490000000  0.3934440000000 1.0
C      1  0.5905580000000  0.4901910000000  0.4473720000000 1.0
C      1  0.4080140000000  0.4902510000000  0.4486310000000 1.0
C      1  0.4997830000000  0.4912750000000  0.6048040000000 1.0
C      1  0.5426700000000  0.4922360000000  0.3998750000000 1.0
C      1  0.5674280000000  0.4917960000000  0.5870020000000 1.0
C      1  0.3930710000000  0.4915450000000  0.5146870000000 1.0
C      1  0.5439310000000  0.4908650000000  0.5990500000000 1.0
C      1  0.5650330000000  0.4913180000000  0.4134950000000 1.0
C      1  0.3910430000000  0.4924560000000  0.4885700000000 1.0
C      1  0.5642100000000  0.4262980000000  0.5451340000000 1.0
C      1  0.4316490000000  0.4266070000000  0.5321180000000 1.0
C      1  0.5047180000000  0.4287270000000  0.4227110000000 1.0
C      1  0.5611590000000  0.4288900000000  0.4603030000000 1.0
C      1  0.4302530000000  0.4283170000000  0.4642010000000 1.0
C      1  0.5021840000000  0.4286800000000  0.5728190000000 1.0
C      1  0.5121200000000  0.4151340000000  0.5496520000000 1.0
C      1  0.4475370000000  0.4142370000000  0.4831000000000 1.0
C      1  0.5369760000000  0.4143270000000  0.4622410000000 1.0
C      1  0.5125900000000  0.4132700000000  0.4461480000000 1.0
C      1  0.4495470000000  0.4132560000000  0.5133030000000 1.0
C      1  0.5392000000000  0.4131050000000  0.5375270000000 1.0
C      1  0.4745110000000  0.6069410000000  0.4854130000000 1.0
C      1  0.5244780000000  0.6063740000000  0.4858050000000 1.0
C      1  0.4997540000000  0.6074660000000  0.5287650000000 1.0
C      1  0.4747940000000  0.6067360000000  0.5143060000000 1.0
C      1  0.5248880000000  0.6076710000000  0.5144780000000 1.0
C      1  0.4994700000000  0.6064880000000  0.4712560000000 1.0
C      1  0.4982830000000  0.4624940000000  0.5462540000000 1.0
C      1  0.4582100000000  0.4613470000000  0.4737820000000 1.0
C      1  0.5431900000000  0.4612170000000  0.4794190000000 1.0
C      1  0.4971980000000  0.4578350000000  0.4526860000000 1.0
C      1  0.4605100000000  0.4583320000000  0.5238880000000 1.0
C      1  0.5402830000000  0.4604810000000  0.5231890000000 1.0
C      1  0.4756570000000  0.5263360000000  0.4860350000000 1.0
C      1  0.5249660000000  0.5266460000000  0.4852210000000 1.0
C      1  0.5005560000000  0.5265890000000  0.5274510000000 1.0
C      1  0.4762330000000  0.5278310000000  0.5137740000000 1.0
C      1  0.5247830000000  0.5268260000000  0.5134220000000 1.0
C      1  0.4994960000000  0.5247690000000  0.4712030000000 1.0
C      1  0.4551000000000  0.4779720000000  0.4499930000000 1.0
C      1  0.5676480000000  0.4733040000000  0.4884100000000 1.0
C      1  0.4783840000000  0.4735870000000  0.5645020000000 1.0
C      1  0.4549280000000  0.4700970000000  0.5488220000000 1.0
C      1  0.5651880000000  0.4749040000000  0.5177800000000 1.0
C      1  0.4791110000000  0.4721950000000  0.4361270000000 1.0
C      1  0.4623900000000  0.5316850000000  0.6003610000000 1.0
C      1  0.4353000000000  0.5306340000000  0.4158790000000 1.0
C      1  0.6046900000000  0.5303580000000  0.4813200000000 1.0
C      1  0.4602650000000  0.5304850000000  0.4004870000000 1.0
C      1  0.4370360000000  0.5362020000000  0.5862960000000 1.0
C      1  0.6062280000000  0.5356790000000  0.5101850000000 1.0
C      1  0.5267320000000  0.4478290000000  0.4240780000000 1.0
C      1  0.5519030000000  0.4456270000000  0.5634970000000 1.0
C      1  0.4196710000000  0.4463950000000  0.5131910000000 1.0
C      1  0.5256680000000  0.4463600000000  0.5756860000000 1.0
C      1  0.5516260000000  0.4473510000000  0.4392950000000 1.0
C      1  0.4194160000000  0.4467940000000  0.4843630000000 1.0
C      1  0.4696670000000  0.5770550000000  0.5146520000000 1.0
C      1  0.5012020000000  0.5765340000000  0.4676060000000 1.0
C      1  0.5275010000000  0.5780320000000  0.5191090000000 1.0
C      1  0.4695300000000  0.5774140000000  0.4853320000000 1.0
C      1  0.5029790000000  0.5779970000000  0.5332980000000 1.0
C      1  0.5265820000000  0.5763740000000  0.4822810000000 1.0
C      1  0.5769840000000  0.5378660000000  0.5153240000000 1.0
C      1  0.4495960000000  0.5383590000000  0.5592210000000 1.0
C      1  0.4760100000000  0.5350470000000  0.4260410000000 1.0
C      1  0.5751770000000  0.5363980000000  0.4812380000000 1.0
C      1  0.4480550000000  0.5361930000000  0.4419360000000 1.0
C      1  0.4763070000000  0.5369380000000  0.5739260000000 1.0
C      1  0.4456440000000  0.5690670000000  0.4727760000000 1.0
C      1  0.5502720000000  0.5693750000000  0.4667090000000 1.0
C      1  0.5044430000000  0.5696100000000  0.5605950000000 1.0
C      1  0.4455030000000  0.5688910000000  0.5283420000000 1.0
C      1  0.5505660000000  0.5692500000000  0.5328950000000 1.0
C      1  0.5026790000000  0.5688200000000  0.4396270000000 1.0
C      1  0.4141010000000  0.4793610000000  0.4755520000000 1.0
C      1  0.5635960000000  0.4778250000000  0.4391560000000 1.0
C      1  0.5210730000000  0.4780420000000  0.5855030000000 1.0
C      1  0.4152400000000  0.4759690000000  0.5254120000000 1.0
C      1  0.5653240000000  0.4758990000000  0.5621130000000 1.0
C      1  0.5204720000000  0.4788590000000  0.4138310000000 1.0
C      1  0.5183150000000  0.4994920000000  0.4381020000000 1.0
C      1  0.5446990000000  0.4966520000000  0.5453010000000 1.0
C      1  0.4409450000000  0.4971600000000  0.5145590000000 1.0
C      1  0.5211070000000  0.4982690000000  0.5605430000000 1.0
C      1  0.5423070000000  0.4986250000000  0.4557620000000 1.0
C      1  0.4359750000000  0.4987430000000  0.4864240000000 1.0
C      1  0.4713280000000  0.4337050000000  0.5748130000000 1.0
C      1  0.4479420000000  0.4342560000000  0.4368050000000 1.0
C      1  0.5788620000000  0.4322100000000  0.4869760000000 1.0
C      1  0.4735430000000  0.4324870000000  0.4221330000000 1.0
C      1  0.4459350000000  0.4322830000000  0.5594120000000 1.0
C      1  0.5786960000000  0.4331790000000  0.5166610000000 1.0
C      1  0.5681470000000  0.5351520000000  0.4290440000000 1.0
C      1  0.5285330000000  0.5346450000000  0.5948450000000 1.0
C      1  0.4038190000000  0.5347750000000  0.4762320000000 1.0
C      1  0.5693580000000  0.5325780000000  0.5695140000000 1.0
C      1  0.5272920000000  0.5353690000000  0.4049540000000 1.0
C      1  0.4046010000000  0.5316730000000  0.5254270000000 1.0
C      1  0.6047270000000  0.4819780000000  0.4717680000000 1.0
C      1  0.4716840000000  0.4836630000000  0.6037980000000 1.0
C      1  0.4289460000000  0.4823460000000  0.4293680000000 1.0
C      1  0.6005610000000  0.5010690000000  0.5374460000000 1.0
C      1  0.4720540000000  0.4830520000000  0.3923740000000 1.0
C      1  0.4203760000000  0.5003600000000  0.5661000000000 1.0
C      1  0.5500440000000  0.5212050000000  0.4723570000000 1.0
C      1  0.5029910000000  0.5217350000000  0.5568250000000 1.0
C      1  0.4488590000000  0.5216960000000  0.4734810000000 1.0
C      1  0.5493490000000  0.5219140000000  0.5294880000000 1.0
C      1  0.4977670000000  0.5175670000000  0.4432690000000 1.0
C      1  0.4502020000000  0.5236550000000  0.5270870000000 1.0
C      1  0.4307240000000  0.5030620000000  0.4077360000000 1.0
C      1  0.6152090000000  0.5040410000000  0.4858030000000 1.0
C      1  0.4536820000000  0.5048890000000  0.6063340000000 1.0
C      1  0.4288820000000  0.5092150000000  0.5931340000000 1.0
C      1  0.6175940000000  0.5091090000000  0.5139400000000 1.0
C      1  0.4538880000000  0.5039660000000  0.3913550000000 1.0
C      1  0.4763000000000  0.5644450000000  0.4305990000000 1.0
C      1  0.5714180000000  0.5668500000000  0.5136860000000 1.0
C      1  0.4524920000000  0.5676370000000  0.5557370000000 1.0
C      1  0.4778770000000  0.5665620000000  0.5699220000000 1.0
C      1  0.5718710000000  0.5652070000000  0.4845880000000 1.0
C      1  0.4512110000000  0.5656650000000  0.4450330000000 1.0
C      1  0.3894980000000  0.5203140000000  0.5008820000000 1.0
C      1  0.5550750000000  0.5204560000000  0.4045080000000 1.0
C      1  0.5560580000000  0.5209650000000  0.5948690000000 1.0
C      1  0.5032730000000  0.4432930000000  0.4981590000000 1.0
END
