TITL C-2441161-5029-549 0.0505086662879724 125000 -26672.1272060801 0 0 186 (C1) n - 1
REM
REM in /home/bkarasulu/work/CARBON/AIRSS/Generating-Clusters/ReaxFF-fromJPCA2015/Units_Real/with-SteepDescent/Higher-Symm
REM
REM
REM
REM
REM
REM ./C.cell (1df0a924f5614ab8850e4351716899ee)
REM
REM compiler GCC version 9.2.1 20190827 (Red Hat 9.2.1-1)
REM options -cpp -mtune=generic -march=x86-64 -g -O0 -fpre-include=/usr/include/finclude/math-vector-fortran.h
REM seed 1617235939 -152988 1205356359 -484133193 1087298242 173313284 -427278801 1873106957 776428995 -1876772794 -89012801 -362677831 415489659 -735410990 -429487897 1026794715 1646166598 -1831160534 1799750928 241081084 458614748 -7461396 1588353856 -130201019 -2067866935 -1956557066 731957010 2115368906 -270896680 -1594504863 -2147307458 -1888797244 1294927523
REM
CELL 1.54180   50.00000   50.00000   50.00000   90.00000   90.00000   90.00000
LATT -1
SFAC C  
C      1  0.5237640000000  0.5101100000000  0.4639560000000 1.0
C      1  0.5205850000000  0.5101730000000  0.5496710000000 1.0
C      1  0.5161890000000  0.5121670000000  0.6240930000000 1.0
C      1  0.5117490000000  0.5086650000000  0.3810880000000 1.0
C      1  0.4322490000000  0.4888740000000  0.4628150000000 1.0
C      1  0.4335530000000  0.4741620000000  0.5390530000000 1.0
C      1  0.5274670000000  0.4193780000000  0.5720640000000 1.0
C      1  0.5250920000000  0.4241810000000  0.4285420000000 1.0
C      1  0.4247260000000  0.5214320000000  0.5939680000000 1.0
C      1  0.4272620000000  0.5212750000000  0.4048000000000 1.0
C      1  0.3878810000000  0.4887810000000  0.5247730000000 1.0
C      1  0.3854140000000  0.4894650000000  0.4711760000000 1.0
C      1  0.4561500000000  0.4504650000000  0.4723310000000 1.0
C      1  0.4558050000000  0.4612630000000  0.5254430000000 1.0
C      1  0.4919360000000  0.4751510000000  0.6052290000000 1.0
C      1  0.4786050000000  0.4722570000000  0.3962940000000 1.0
C      1  0.5421600000000  0.5197650000000  0.6164680000000 1.0
C      1  0.5393770000000  0.5088220000000  0.3890830000000 1.0
C      1  0.4937360000000  0.5747610000000  0.5237500000000 1.0
C      1  0.4900330000000  0.5732320000000  0.4779640000000 1.0
C      1  0.5675920000000  0.5319900000000  0.5875450000000 1.0
C      1  0.5665950000000  0.5283830000000  0.4228460000000 1.0
C      1  0.5500020000000  0.4279430000000  0.5228820000000 1.0
C      1  0.5520430000000  0.4263090000000  0.4744730000000 1.0
C      1  0.5457350000000  0.3973800000000  0.4742770000000 1.0
C      1  0.5471230000000  0.3981280000000  0.5221580000000 1.0
C      1  0.5193880000000  0.4696060000000  0.4642340000000 1.0
C      1  0.5121200000000  0.4735070000000  0.5176750000000 1.0
C      1  0.5047320000000  0.5663800000000  0.5655090000000 1.0
C      1  0.5059970000000  0.5700680000000  0.4337880000000 1.0
C      1  0.5393590000000  0.4656340000000  0.5667410000000 1.0
C      1  0.5551250000000  0.4628960000000  0.4142680000000 1.0
C      1  0.5498450000000  0.4379280000000  0.5667450000000 1.0
C      1  0.5520320000000  0.4376040000000  0.4287420000000 1.0
C      1  0.5993650000000  0.5187140000000  0.4548300000000 1.0
C      1  0.5888540000000  0.5202050000000  0.5428280000000 1.0
C      1  0.4905440000000  0.5940100000000  0.4388790000000 1.0
C      1  0.4890430000000  0.5905890000000  0.5611720000000 1.0
C      1  0.4573690000000  0.4838800000000  0.4130800000000 1.0
C      1  0.4694460000000  0.4890520000000  0.5895560000000 1.0
C      1  0.4937320000000  0.5510870000000  0.5398850000000 1.0
C      1  0.4951990000000  0.5531160000000  0.4580860000000 1.0
C      1  0.4883030000000  0.5247130000000  0.3952600000000 1.0
C      1  0.4912870000000  0.5285680000000  0.6169310000000 1.0
C      1  0.5094610000000  0.4416000000000  0.4113720000000 1.0
C      1  0.5056040000000  0.4390090000000  0.5790330000000 1.0
C      1  0.5441540000000  0.5456870000000  0.5242510000000 1.0
C      1  0.5403400000000  0.5545980000000  0.4723720000000 1.0
C      1  0.5441880000000  0.4781550000000  0.5926480000000 1.0
C      1  0.5261730000000  0.4634030000000  0.4039960000000 1.0
C      1  0.5299670000000  0.5609060000000  0.4206360000000 1.0
C      1  0.5292020000000  0.5554290000000  0.5741640000000 1.0
C      1  0.5949830000000  0.5661280000000  0.5373400000000 1.0
C      1  0.5925030000000  0.5657130000000  0.4655630000000 1.0
C      1  0.5799050000000  0.5604260000000  0.4918900000000 1.0
C      1  0.5799360000000  0.5780120000000  0.5150290000000 1.0
C      1  0.5097740000000  0.4182030000000  0.4531080000000 1.0
C      1  0.5110440000000  0.4117070000000  0.5479070000000 1.0
C      1  0.5393990000000  0.4907450000000  0.4485100000000 1.0
C      1  0.5316990000000  0.4845580000000  0.5410540000000 1.0
C      1  0.3950170000000  0.5171560000000  0.4664040000000 1.0
C      1  0.4053340000000  0.5126840000000  0.5325670000000 1.0
C      1  0.4619770000000  0.4084010000000  0.4710200000000 1.0
C      1  0.4515010000000  0.4120200000000  0.5238030000000 1.0
C      1  0.5306130000000  0.6032450000000  0.4729310000000 1.0
C      1  0.5330130000000  0.6000840000000  0.5281740000000 1.0
C      1  0.4252190000000  0.4953180000000  0.5796400000000 1.0
C      1  0.4201930000000  0.4987980000000  0.4220710000000 1.0
C      1  0.5014970000000  0.6036250000000  0.4656520000000 1.0
C      1  0.5044550000000  0.5990400000000  0.5363280000000 1.0
C      1  0.3957790000000  0.4600150000000  0.5226880000000 1.0
C      1  0.3995670000000  0.4621600000000  0.4670680000000 1.0
C      1  0.5634790000000  0.4900070000000  0.4622350000000 1.0
C      1  0.5591050000000  0.4896930000000  0.5261040000000 1.0
C      1  0.5710430000000  0.5740770000000  0.4464760000000 1.0
C      1  0.5726140000000  0.5732410000000  0.5557790000000 1.0
C      1  0.5580310000000  0.5575390000000  0.5754840000000 1.0
C      1  0.5587990000000  0.5570100000000  0.4264170000000 1.0
C      1  0.4448370000000  0.5370130000000  0.5483880000000 1.0
C      1  0.4419140000000  0.5420920000000  0.4495770000000 1.0
C      1  0.5777030000000  0.5128800000000  0.4717340000000 1.0
C      1  0.5665010000000  0.5203830000000  0.5230510000000 1.0
C      1  0.4687100000000  0.4840840000000  0.4395880000000 1.0
C      1  0.4754040000000  0.4855590000000  0.5611840000000 1.0
C      1  0.4545110000000  0.4358680000000  0.5642310000000 1.0
C      1  0.4566030000000  0.4260510000000  0.4344210000000 1.0
C      1  0.4633150000000  0.5835410000000  0.4351120000000 1.0
C      1  0.4608600000000  0.5803130000000  0.5625910000000 1.0
C      1  0.4794590000000  0.4445600000000  0.4044810000000 1.0
C      1  0.4841560000000  0.4484170000000  0.5975140000000 1.0
C      1  0.5017950000000  0.4471550000000  0.4568280000000 1.0
C      1  0.4969280000000  0.4376030000000  0.5516310000000 1.0
C      1  0.5169920000000  0.3979750000000  0.4729230000000 1.0
C      1  0.5187110000000  0.3942870000000  0.5257000000000 1.0
C      1  0.5877290000000  0.5089690000000  0.4279650000000 1.0
C      1  0.5821730000000  0.5117830000000  0.5713680000000 1.0
C      1  0.4487270000000  0.5702050000000  0.4563070000000 1.0
C      1  0.4429470000000  0.5660220000000  0.5429680000000 1.0
C      1  0.4547280000000  0.4484840000000  0.5902440000000 1.0
C      1  0.4520890000000  0.4419340000000  0.4139890000000 1.0
C      1  0.5758520000000  0.4825190000000  0.4224760000000 1.0
C      1  0.5679790000000  0.4890880000000  0.5811880000000 1.0
C      1  0.4754260000000  0.4594060000000  0.4531480000000 1.0
C      1  0.4740510000000  0.4553870000000  0.5482730000000 1.0
C      1  0.4410870000000  0.5414770000000  0.5783800000000 1.0
C      1  0.4408130000000  0.5443560000000  0.4198280000000 1.0
C      1  0.5206910000000  0.5384740000000  0.4580290000000 1.0
C      1  0.5177340000000  0.5320840000000  0.5326980000000 1.0
C      1  0.4356620000000  0.4270780000000  0.5443860000000 1.0
C      1  0.4424360000000  0.4271670000000  0.4590240000000 1.0
C      1  0.5202840000000  0.5241830000000  0.5740230000000 1.0
C      1  0.5207380000000  0.5327890000000  0.4275850000000 1.0
C      1  0.4431700000000  0.4758450000000  0.5929220000000 1.0
C      1  0.4321450000000  0.4692710000000  0.4207540000000 1.0
C      1  0.5428260000000  0.5109270000000  0.4206920000000 1.0
C      1  0.5436690000000  0.5198420000000  0.5900170000000 1.0
C      1  0.4754150000000  0.5491440000000  0.3969220000000 1.0
C      1  0.4818840000000  0.5526240000000  0.6016630000000 1.0
C      1  0.4164190000000  0.4501580000000  0.5404610000000 1.0
C      1  0.4239390000000  0.4635130000000  0.4504730000000 1.0
C      1  0.5816440000000  0.4665440000000  0.5339120000000 1.0
C      1  0.5790720000000  0.4658960000000  0.4606330000000 1.0
C      1  0.6055700000000  0.5399770000000  0.5302690000000 1.0
C      1  0.6092160000000  0.5422590000000  0.4687500000000 1.0
C      1  0.4706670000000  0.5327010000000  0.5343210000000 1.0
C      1  0.4687590000000  0.5328370000000  0.4652720000000 1.0
C      1  0.5540150000000  0.5771700000000  0.5320850000000 1.0
C      1  0.5471540000000  0.5810610000000  0.4626620000000 1.0
C      1  0.4579140000000  0.5668430000000  0.4104620000000 1.0
C      1  0.4587490000000  0.5636970000000  0.5864760000000 1.0
C      1  0.4815670000000  0.5076140000000  0.4470750000000 1.0
C      1  0.4790210000000  0.5052610000000  0.5417850000000 1.0
C      1  0.4541600000000  0.3831290000000  0.5191880000000 1.0
C      1  0.4583940000000  0.3798840000000  0.4778760000000 1.0
C      1  0.5183110000000  0.4869650000000  0.6091310000000 1.0
C      1  0.5064890000000  0.4815350000000  0.3917660000000 1.0
C      1  0.4778340000000  0.4936160000000  0.5147680000000 1.0
C      1  0.4992120000000  0.4948580000000  0.4686460000000 1.0
C      1  0.4200690000000  0.5134950000000  0.4505930000000 1.0
C      1  0.4268220000000  0.5017690000000  0.5496200000000 1.0
C      1  0.5668000000000  0.4403080000000  0.5431990000000 1.0
C      1  0.5666270000000  0.4401050000000  0.4532870000000 1.0
C      1  0.4926250000000  0.5291660000000  0.5889830000000 1.0
C      1  0.4927320000000  0.5225570000000  0.4237600000000 1.0
C      1  0.4170890000000  0.5836340000000  0.5030580000000 1.0
C      1  0.4069330000000  0.5371680000000  0.5168250000000 1.0
C      1  0.4029980000000  0.5654380000000  0.4868370000000 1.0
C      1  0.4195220000000  0.5639250000000  0.5247020000000 1.0
C      1  0.5382550000000  0.5147820000000  0.4922710000000 1.0
C      1  0.5088480000000  0.6231350000000  0.5044050000000 1.0
C      1  0.4537400000000  0.4637580000000  0.4973600000000 1.0
C      1  0.4631720000000  0.5349940000000  0.4938700000000 1.0
C      1  0.4615590000000  0.6146510000000  0.4938700000000 1.0
C      1  0.6131190000000  0.5318790000000  0.5002730000000 1.0
C      1  0.4647270000000  0.4203700000000  0.4987020000000 1.0
C      1  0.5856290000000  0.4076350000000  0.4999810000000 1.0
C      1  0.5334660000000  0.4673970000000  0.4941600000000 1.0
C      1  0.3967260000000  0.4494970000000  0.4936400000000 1.0
C      1  0.5014620000000  0.4500400000000  0.5117150000000 1.0
C      1  0.3964340000000  0.5386430000000  0.4881730000000 1.0
C      1  0.5575900000000  0.4797960000000  0.4998810000000 1.0
C      1  0.5136230000000  0.5197850000000  0.5059470000000 1.0
C      1  0.5062520000000  0.5670020000000  0.4999360000000 1.0
C      1  0.5627290000000  0.3912490000000  0.4979500000000 1.0
C      1  0.4922640000000  0.4264010000000  0.5049990000000 1.0
C      1  0.4345200000000  0.3804390000000  0.4962160000000 1.0
C      1  0.4869750000000  0.6239830000000  0.4861510000000 1.0
C      1  0.4074070000000  0.4262200000000  0.4885480000000 1.0
C      1  0.3830500000000  0.4943120000000  0.4981980000000 1.0
C      1  0.4457640000000  0.5931150000000  0.4964740000000 1.0
C      1  0.5787880000000  0.5295330000000  0.4960620000000 1.0
C      1  0.5811460000000  0.4671750000000  0.4898070000000 1.0
C      1  0.4543470000000  0.5096320000000  0.5042940000000 1.0
C      1  0.5347760000000  0.6125940000000  0.5013580000000 1.0
C      1  0.6264980000000  0.4785830000000  0.5018830000000 1.0
C      1  0.5317960000000  0.5560970000000  0.4995900000000 1.0
C      1  0.4603150000000  0.5696500000000  0.4834890000000 1.0
C      1  0.4946620000000  0.5032070000000  0.4956420000000 1.0
C      1  0.6013830000000  0.4581870000000  0.5090680000000 1.0
C      1  0.6051260000000  0.4262480000000  0.5030160000000 1.0
C      1  0.5424000000000  0.4401850000000  0.4978160000000 1.0
C      1  0.4187970000000  0.4034320000000  0.4915950000000 1.0
C      1  0.4761600000000  0.3771700000000  0.5007770000000 1.0
C      1  0.6209540000000  0.5051210000000  0.5007370000000 1.0
C      1  0.4424460000000  0.4886190000000  0.4888690000000 1.0
C      1  0.5023170000000  0.3942720000000  0.5000880000000 1.0
END
