TITL C-2441163-1170-168 0.114075180777227 125000 -22171.2104153919 0 0 167 (C1) n - 1
REM
REM in /home/bkarasulu/work/CARBON/AIRSS/Generating-Clusters/ReaxFF-fromJPCA2015/Units_Real/with-SteepDescent/Higher-Symm
REM
REM
REM
REM
REM
REM ./C.cell (1df0a924f5614ab8850e4351716899ee)
REM
REM compiler GCC version 9.2.1 20190827 (Red Hat 9.2.1-1)
REM options -cpp -mtune=generic -march=x86-64 -g -O0 -fpre-include=/usr/include/finclude/math-vector-fortran.h
REM seed 67681314 -1670110526 436325448 -675975277 1643352826 -470790156 880853843 1912210854 1032011714 893719267 1164907093 747125213 -605242283 -1730796413 167797870 -1683747368 -147368106 -353393189 992750502 971607611 444369960 -344179552 -953797362 209770007 1627872169 1944251763 372027647 -1920428330 467081523 1659753772 -786350156 1766574094 1921150764
REM
CELL 1.54180   50.00000   50.00000   50.00000   90.00000   90.00000   90.00000
LATT -1
SFAC C  
C      1  0.4762400000000  0.5420790000000  0.5176960000000 1.0
C      1  0.5171300000000  0.4390730000000  0.4138160000000 1.0
C      1  0.4263220000000  0.5298510000000  0.5691130000000 1.0
C      1  0.4782090000000  0.4891040000000  0.6024750000000 1.0
C      1  0.5635990000000  0.5643560000000  0.4571220000000 1.0
C      1  0.5154130000000  0.4744160000000  0.5891920000000 1.0
C      1  0.5768710000000  0.4912880000000  0.5119070000000 1.0
C      1  0.4491480000000  0.5328760000000  0.5900110000000 1.0
C      1  0.5073320000000  0.3992890000000  0.5369120000000 1.0
C      1  0.4615600000000  0.4129050000000  0.5303770000000 1.0
C      1  0.4556760000000  0.6128540000000  0.5110810000000 1.0
C      1  0.4289370000000  0.5506210000000  0.4568180000000 1.0
C      1  0.4758910000000  0.4747390000000  0.3979670000000 1.0
C      1  0.4518490000000  0.4381160000000  0.5756420000000 1.0
C      1  0.5798830000000  0.4205010000000  0.5150430000000 1.0
C      1  0.4118970000000  0.5055140000000  0.5637850000000 1.0
C      1  0.4639070000000  0.5482970000000  0.4224070000000 1.0
C      1  0.4731520000000  0.4980380000000  0.4587770000000 1.0
C      1  0.4998660000000  0.5179270000000  0.4325250000000 1.0
C      1  0.4664510000000  0.4131060000000  0.4582540000000 1.0
C      1  0.5263800000000  0.4759490000000  0.5095040000000 1.0
C      1  0.4847240000000  0.5589190000000  0.5708410000000 1.0
C      1  0.4283370000000  0.4812390000000  0.5171750000000 1.0
C      1  0.5146310000000  0.4949960000000  0.4238590000000 1.0
C      1  0.5107830000000  0.5444570000000  0.5656850000000 1.0
C      1  0.4786760000000  0.5749560000000  0.5279620000000 1.0
C      1  0.4398450000000  0.4642720000000  0.5830810000000 1.0
C      1  0.4879780000000  0.5389520000000  0.4891420000000 1.0
C      1  0.5630880000000  0.5240310000000  0.4328830000000 1.0
C      1  0.4316880000000  0.4337670000000  0.5035670000000 1.0
C      1  0.6038000000000  0.5265160000000  0.4859480000000 1.0
C      1  0.4882140000000  0.4978340000000  0.5192250000000 1.0
C      1  0.4585590000000  0.5704010000000  0.5477890000000 1.0
C      1  0.4123950000000  0.5072140000000  0.4516610000000 1.0
C      1  0.5022980000000  0.5922420000000  0.4434180000000 1.0
C      1  0.5021320000000  0.5838070000000  0.5747140000000 1.0
C      1  0.5234110000000  0.4284770000000  0.4703440000000 1.0
C      1  0.5909680000000  0.4663610000000  0.4605530000000 1.0
C      1  0.5281610000000  0.5371690000000  0.4761510000000 1.0
C      1  0.4997950000000  0.5270760000000  0.6067670000000 1.0
C      1  0.4604810000000  0.4804000000000  0.4793970000000 1.0
C      1  0.4476770000000  0.5311350000000  0.5162520000000 1.0
C      1  0.5741620000000  0.4897050000000  0.4654710000000 1.0
C      1  0.4847620000000  0.4147780000000  0.4361290000000 1.0
C      1  0.5632520000000  0.5181390000000  0.5648960000000 1.0
C      1  0.5237990000000  0.4935260000000  0.3970120000000 1.0
C      1  0.5382960000000  0.5765770000000  0.5183470000000 1.0
C      1  0.5303520000000  0.5890150000000  0.5662170000000 1.0
C      1  0.5495980000000  0.4138520000000  0.5150940000000 1.0
C      1  0.5717770000000  0.4789270000000  0.5603070000000 1.0
C      1  0.4759900000000  0.5436190000000  0.5947000000000 1.0
C      1  0.4781850000000  0.4359800000000  0.5881070000000 1.0
C      1  0.5674410000000  0.4320500000000  0.4684150000000 1.0
C      1  0.5219830000000  0.6003960000000  0.5136960000000 1.0
C      1  0.4928010000000  0.5934980000000  0.5486160000000 1.0
C      1  0.5488730000000  0.5841270000000  0.4707540000000 1.0
C      1  0.4995240000000  0.4473460000000  0.4825980000000 1.0
C      1  0.5189980000000  0.6040210000000  0.5425340000000 1.0
C      1  0.5589660000000  0.4445770000000  0.4433090000000 1.0
C      1  0.4710540000000  0.5946380000000  0.5003740000000 1.0
C      1  0.5875080000000  0.4476930000000  0.4828190000000 1.0
C      1  0.4741290000000  0.5823280000000  0.4432500000000 1.0
C      1  0.3998130000000  0.5206100000000  0.4765150000000 1.0
C      1  0.5213800000000  0.5535520000000  0.5186140000000 1.0
C      1  0.4274540000000  0.4824970000000  0.4475490000000 1.0
C      1  0.5677880000000  0.5079870000000  0.4108470000000 1.0
C      1  0.4321940000000  0.4547620000000  0.4593000000000 1.0
C      1  0.5311600000000  0.5546850000000  0.4180610000000 1.0
C      1  0.5146840000000  0.4741620000000  0.4417840000000 1.0
C      1  0.4755000000000  0.4325240000000  0.4160350000000 1.0
C      1  0.6105080000000  0.5208490000000  0.4578000000000 1.0
C      1  0.4164470000000  0.4772060000000  0.5716080000000 1.0
C      1  0.4126650000000  0.4781820000000  0.4923390000000 1.0
C      1  0.4505330000000  0.4695810000000  0.4103600000000 1.0
C      1  0.5791160000000  0.4624050000000  0.4342620000000 1.0
C      1  0.4847930000000  0.5195760000000  0.5372530000000 1.0
C      1  0.4769040000000  0.4347670000000  0.5181560000000 1.0
C      1  0.4451670000000  0.4311610000000  0.4475830000000 1.0
C      1  0.4956330000000  0.4189530000000  0.5722180000000 1.0
C      1  0.4596630000000  0.5031260000000  0.5541690000000 1.0
C      1  0.5630150000000  0.4573110000000  0.5763120000000 1.0
C      1  0.5345870000000  0.4535590000000  0.5828370000000 1.0
C      1  0.5589930000000  0.5806400000000  0.4983640000000 1.0
C      1  0.5520070000000  0.5704510000000  0.5710190000000 1.0
C      1  0.4889880000000  0.4633710000000  0.5914890000000 1.0
C      1  0.5704220000000  0.4503340000000  0.5490310000000 1.0
C      1  0.4486890000000  0.5178380000000  0.4911700000000 1.0
C      1  0.4423640000000  0.5067360000000  0.5314270000000 1.0
C      1  0.5814730000000  0.5640640000000  0.5044420000000 1.0
C      1  0.5184570000000  0.4361970000000  0.5649640000000 1.0
C      1  0.5521890000000  0.5370950000000  0.5464480000000 1.0
C      1  0.4835170000000  0.5555540000000  0.4420350000000 1.0
C      1  0.5327390000000  0.5289500000000  0.5278760000000 1.0
C      1  0.4800130000000  0.5042480000000  0.3951480000000 1.0
C      1  0.5263640000000  0.5317090000000  0.6029640000000 1.0
C      1  0.5658810000000  0.5626610000000  0.5463080000000 1.0
C      1  0.5128850000000  0.4139300000000  0.4295960000000 1.0
C      1  0.5103460000000  0.5555490000000  0.4913420000000 1.0
C      1  0.5545920000000  0.5346330000000  0.4835980000000 1.0
C      1  0.4971150000000  0.5144360000000  0.4647980000000 1.0
C      1  0.5060430000000  0.4980280000000  0.6074670000000 1.0
C      1  0.5352880000000  0.5482010000000  0.5828050000000 1.0
C      1  0.5729520000000  0.4806160000000  0.4123800000000 1.0
C      1  0.4595560000000  0.4749580000000  0.5640770000000 1.0
C      1  0.3971570000000  0.5015980000000  0.4960350000000 1.0
C      1  0.5242690000000  0.4985190000000  0.5479170000000 1.0
C      1  0.4493980000000  0.4424640000000  0.4213790000000 1.0
C      1  0.4174980000000  0.4502430000000  0.4841410000000 1.0
C      1  0.5477580000000  0.4870420000000  0.4746390000000 1.0
C      1  0.5062510000000  0.5157020000000  0.3890350000000 1.0
C      1  0.5884270000000  0.5535200000000  0.5301780000000 1.0
C      1  0.4429760000000  0.4946670000000  0.4251310000000 1.0
C      1  0.4168860000000  0.4587560000000  0.5495790000000 1.0
C      1  0.4019000000000  0.5304840000000  0.5256730000000 1.0
C      1  0.4671910000000  0.4978120000000  0.5005880000000 1.0
C      1  0.5987870000000  0.5254580000000  0.5348610000000 1.0
C      1  0.4728440000000  0.4562660000000  0.4680420000000 1.0
C      1  0.5056230000000  0.5191780000000  0.5563090000000 1.0
C      1  0.4718980000000  0.5503420000000  0.4696270000000 1.0
C      1  0.4832040000000  0.4032370000000  0.5493370000000 1.0
C      1  0.4381730000000  0.4549880000000  0.5241670000000 1.0
C      1  0.5993400000000  0.5092100000000  0.5097300000000 1.0
C      1  0.5253250000000  0.4074330000000  0.4537440000000 1.0
C      1  0.5471290000000  0.4570450000000  0.5082830000000 1.0
C      1  0.4654840000000  0.4526580000000  0.5537440000000 1.0
C      1  0.4176830000000  0.5457680000000  0.5463850000000 1.0
C      1  0.5059140000000  0.5902330000000  0.4911890000000 1.0
C      1  0.5152750000000  0.4473030000000  0.5378270000000 1.0
C      1  0.5947190000000  0.4370140000000  0.5338660000000 1.0
C      1  0.5323320000000  0.4516820000000  0.4337790000000 1.0
C      1  0.4258160000000  0.5624270000000  0.5029150000000 1.0
C      1  0.5888850000000  0.5095920000000  0.5561600000000 1.0
C      1  0.4332090000000  0.5725800000000  0.4764260000000 1.0
C      1  0.5135660000000  0.5667700000000  0.4368290000000 1.0
C      1  0.5786260000000  0.5480440000000  0.4801310000000 1.0
C      1  0.5115480000000  0.5350330000000  0.4101220000000 1.0
C      1  0.4493110000000  0.4099670000000  0.5038500000000 1.0
C      1  0.5033200000000  0.4772610000000  0.5344650000000 1.0
C      1  0.5480380000000  0.4956320000000  0.5015940000000 1.0
C      1  0.5094120000000  0.4730940000000  0.4874600000000 1.0
C      1  0.5000230000000  0.4054880000000  0.4968380000000 1.0
C      1  0.5374280000000  0.5204080000000  0.4998640000000 1.0
C      1  0.5747610000000  0.4636670000000  0.5050160000000 1.0
C      1  0.5022070000000  0.4324630000000  0.5084010000000 1.0
C      1  0.4596180000000  0.5065270000000  0.5879750000000 1.0
C      1  0.4035940000000  0.4762930000000  0.5315910000000 1.0
C      1  0.4724350000000  0.4048630000000  0.4857820000000 1.0
C      1  0.4341050000000  0.5659210000000  0.5338230000000 1.0
C      1  0.4683260000000  0.4591070000000  0.5265340000000 1.0
C      1  0.5205550000000  0.5953410000000  0.4663810000000 1.0
C      1  0.5524490000000  0.4910920000000  0.3955160000000 1.0
C      1  0.5475510000000  0.4175410000000  0.4836940000000 1.0
C      1  0.5804490000000  0.5152030000000  0.4537420000000 1.0
C      1  0.4606810000000  0.5817150000000  0.4705710000000 1.0
C      1  0.3968110000000  0.5039540000000  0.5378220000000 1.0
C      1  0.5446050000000  0.4419750000000  0.5314880000000 1.0
C      1  0.4698930000000  0.5190550000000  0.4182630000000 1.0
C      1  0.4052540000000  0.5415170000000  0.4988250000000 1.0
C      1  0.4351250000000  0.5465390000000  0.4286270000000 1.0
C      1  0.4825880000000  0.4728510000000  0.4466780000000 1.0
C      1  0.5550820000000  0.5506840000000  0.4335490000000 1.0
C      1  0.5202240000000  0.4892970000000  0.4671410000000 1.0
C      1  0.4497900000000  0.5306680000000  0.4654910000000 1.0
C      1  0.4236050000000  0.5195840000000  0.4277280000000 1.0
C      1  0.5474690000000  0.4936150000000  0.5652650000000 1.0
C      1  0.4930220000000  0.4507170000000  0.4022130000000 1.0
C      1  0.5224950000000  0.3973310000000  0.5142090000000 1.0
END
