TITL C-2441159-1093-1431 0.00602920427655872 125000 -10670.7344189807 0 0 76 (C1) n - 1
REM
REM in /home/bkarasulu/work/CARBON/AIRSS/Generating-Clusters/ReaxFF-fromJPCA2015/Units_Real/with-SteepDescent/Higher-Symm
REM
REM
REM
REM
REM
REM ./C.cell (1df0a924f5614ab8850e4351716899ee)
REM
REM compiler GCC version 9.2.1 20190827 (Red Hat 9.2.1-1)
REM options -cpp -mtune=generic -march=x86-64 -g -O0 -fpre-include=/usr/include/finclude/math-vector-fortran.h
REM seed 157896850 -598565160 -2009136044 -42207868 1421530280 1842403174 -1940377124 449124556 -346191873 -1024445034 -1230348690 1164791773 -1012533302 -530699914 -1433326031 -131102846 1589199089 1207075504 245973019 244244149 -1065037745 -1350684219 1173299009 -636266006 -567957794 1480422405 -258455596 1826519418 -1344354197 683782148 -946094538 -1917300148 326826917
REM
CELL 1.54180   50.00000   50.00000   50.00000   90.00000   90.00000   90.00000
LATT -1
SFAC C  
C      1  0.4721310000000  0.4523380000000  0.5550340000000 1.0
C      1  0.4777510000000  0.5504620000000  0.5428120000000 1.0
C      1  0.4717880000000  0.5298820000000  0.4343490000000 1.0
C      1  0.4783510000000  0.4465870000000  0.4582350000000 1.0
C      1  0.5218550000000  0.4587320000000  0.5450600000000 1.0
C      1  0.5254610000000  0.5538720000000  0.5442610000000 1.0
C      1  0.5259950000000  0.5515570000000  0.4468340000000 1.0
C      1  0.5260980000000  0.4467790000000  0.4545240000000 1.0
C      1  0.4878020000000  0.4192490000000  0.4652580000000 1.0
C      1  0.4765780000000  0.4599160000000  0.5817200000000 1.0
C      1  0.4848110000000  0.5777170000000  0.5366680000000 1.0
C      1  0.4956250000000  0.5265030000000  0.4181230000000 1.0
C      1  0.5178470000000  0.4212000000000  0.4626760000000 1.0
C      1  0.5033790000000  0.4711290000000  0.5878210000000 1.0
C      1  0.5153650000000  0.5791960000000  0.5362830000000 1.0
C      1  0.5204520000000  0.5420500000000  0.4212100000000 1.0
C      1  0.4876670000000  0.5040210000000  0.5280090000000 1.0
C      1  0.4892620000000  0.5278570000000  0.5118040000000 1.0
C      1  0.4865620000000  0.4939010000000  0.4725880000000 1.0
C      1  0.4876850000000  0.4698800000000  0.4880140000000 1.0
C      1  0.5124470000000  0.4867410000000  0.5285400000000 1.0
C      1  0.5133740000000  0.5268080000000  0.4943350000000 1.0
C      1  0.5115170000000  0.5085440000000  0.4727530000000 1.0
C      1  0.5136590000000  0.4734580000000  0.5019040000000 1.0
C      1  0.5824090000000  0.4780950000000  0.5003550000000 1.0
C      1  0.5830250000000  0.5017500000000  0.5197690000000 1.0
C      1  0.5826750000000  0.5223770000000  0.4971660000000 1.0
C      1  0.5822920000000  0.4987310000000  0.4776000000000 1.0
C      1  0.4173360000000  0.4793830000000  0.5029650000000 1.0
C      1  0.4185530000000  0.5021080000000  0.5235310000000 1.0
C      1  0.4184360000000  0.5211280000000  0.4994890000000 1.0
C      1  0.4172530000000  0.4984450000000  0.4782440000000 1.0
C      1  0.4772310000000  0.5518950000000  0.4474540000000 1.0
C      1  0.4723000000000  0.4289550000000  0.4412520000000 1.0
C      1  0.4709630000000  0.4335070000000  0.5716590000000 1.0
C      1  0.4723190000000  0.5673680000000  0.5607310000000 1.0
C      1  0.5261340000000  0.5694560000000  0.4284570000000 1.0
C      1  0.5292230000000  0.4285810000000  0.4367660000000 1.0
C      1  0.5198420000000  0.4556200000000  0.5712150000000 1.0
C      1  0.5283480000000  0.5721980000000  0.5618480000000 1.0
C      1  0.5602400000000  0.5383870000000  0.4957820000000 1.0
C      1  0.5590740000000  0.4980990000000  0.4629200000000 1.0
C      1  0.5599600000000  0.4620800000000  0.5012780000000 1.0
C      1  0.5601260000000  0.5031370000000  0.5347850000000 1.0
C      1  0.4416900000000  0.5353020000000  0.4988170000000 1.0
C      1  0.4384300000000  0.4982490000000  0.4617240000000 1.0
C      1  0.4397430000000  0.4640660000000  0.5033960000000 1.0
C      1  0.4409700000000  0.5029450000000  0.5393970000000 1.0
C      1  0.5350370000000  0.5485930000000  0.4950890000000 1.0
C      1  0.5340910000000  0.4989150000000  0.4521450000000 1.0
C      1  0.5344850000000  0.4520340000000  0.5005390000000 1.0
C      1  0.5362320000000  0.5029340000000  0.5460820000000 1.0
C      1  0.4657780000000  0.5459230000000  0.4997240000000 1.0
C      1  0.4648290000000  0.5002270000000  0.4483820000000 1.0
C      1  0.4634020000000  0.4522950000000  0.5022550000000 1.0
C      1  0.4669160000000  0.5025470000000  0.5498780000000 1.0
C      1  0.5267060000000  0.5149020000000  0.5709700000000 1.0
C      1  0.5241900000000  0.5753870000000  0.4861630000000 1.0
C      1  0.5236160000000  0.4852520000000  0.4281690000000 1.0
C      1  0.5205730000000  0.4268060000000  0.5118250000000 1.0
C      1  0.4795370000000  0.5139450000000  0.5746350000000 1.0
C      1  0.4750810000000  0.5727290000000  0.4888090000000 1.0
C      1  0.4757820000000  0.4827860000000  0.4257380000000 1.0
C      1  0.4739710000000  0.4276420000000  0.5143810000000 1.0
C      1  0.5199240000000  0.5443240000000  0.5716560000000 1.0
C      1  0.5162700000000  0.5781500000000  0.4568440000000 1.0
C      1  0.5182770000000  0.4559220000000  0.4274490000000 1.0
C      1  0.5152040000000  0.4311030000000  0.5399170000000 1.0
C      1  0.4850070000000  0.5431340000000  0.5730140000000 1.0
C      1  0.4838740000000  0.5744220000000  0.4608370000000 1.0
C      1  0.4828040000000  0.4543000000000  0.4283650000000 1.0
C      1  0.4829280000000  0.4267160000000  0.5439950000000 1.0
C      1  0.5040810000000  0.5009970000000  0.5829420000000 1.0
C      1  0.5000500000000  0.5809960000000  0.4999760000000 1.0
C      1  0.4993270000000  0.4969040000000  0.4168230000000 1.0
C      1  0.4959450000000  0.4198740000000  0.4979880000000 1.0
END
