TITL C-2441161-5029-1359 0.174291263777369 125000 -24100.0781100204 0 0 195 (C1) n - 1
REM
REM in /home/bkarasulu/work/CARBON/AIRSS/Generating-Clusters/ReaxFF-fromJPCA2015/Units_Real/with-SteepDescent/Higher-Symm
REM
REM
REM
REM
REM
REM ./C.cell (1df0a924f5614ab8850e4351716899ee)
REM
REM compiler GCC version 9.2.1 20190827 (Red Hat 9.2.1-1)
REM options -cpp -mtune=generic -march=x86-64 -g -O0 -fpre-include=/usr/include/finclude/math-vector-fortran.h
REM seed 1027154897 -1991320174 -1096584362 -633766114 866277502 -486523234 659557338 769705696 2063885490 1204924500 1067125563 -1594025087 -1472374509 388871819 -939425440 108919734 463586292 1470719867 2038163801 -1391509948 83355757 2034995090 -1704883225 780669175 687069952 -1818580657 236604557 1446886033 -1678959994 -104714481 1279131165 978339897 2092124378
REM
CELL 1.54180   50.00000   50.00000   50.00000   90.00000   90.00000   90.00000
LATT -1
SFAC C  
C      1  0.5520540000000  0.4619300000000  0.5978510000000 1.0
C      1  0.6084710000000  0.4655200000000  0.4811690000000 1.0
C      1  0.5159140000000  0.4613950000000  0.3921180000000 1.0
C      1  0.4020460000000  0.4626370000000  0.4529780000000 1.0
C      1  0.4247010000000  0.4614390000000  0.5797600000000 1.0
C      1  0.4485340000000  0.4625330000000  0.5972020000000 1.0
C      1  0.3926140000000  0.4654180000000  0.4807930000000 1.0
C      1  0.4862440000000  0.4628340000000  0.3903870000000 1.0
C      1  0.5983400000000  0.4627710000000  0.4532600000000 1.0
C      1  0.5741230000000  0.4606100000000  0.5794590000000 1.0
C      1  0.5422090000000  0.4429370000000  0.4711890000000 1.0
C      1  0.4897930000000  0.4325130000000  0.4693750000000 1.0
C      1  0.4498550000000  0.4446530000000  0.5013090000000 1.0
C      1  0.4864480000000  0.4425250000000  0.5399490000000 1.0
C      1  0.5341320000000  0.4448560000000  0.5257930000000 1.0
C      1  0.4582850000000  0.4417330000000  0.4727020000000 1.0
C      1  0.5140210000000  0.4471180000000  0.4635870000000 1.0
C      1  0.5509230000000  0.4418410000000  0.5017410000000 1.0
C      1  0.5105740000000  0.4302150000000  0.5312080000000 1.0
C      1  0.4692950000000  0.4327450000000  0.5198240000000 1.0
C      1  0.5695930000000  0.4314400000000  0.5737820000000 1.0
C      1  0.5923570000000  0.4339220000000  0.4566370000000 1.0
C      1  0.4865330000000  0.4334220000000  0.3977870000000 1.0
C      1  0.3985640000000  0.4355650000000  0.4835630000000 1.0
C      1  0.4521450000000  0.4330740000000  0.5919560000000 1.0
C      1  0.4283730000000  0.4324230000000  0.5748670000000 1.0
C      1  0.4077690000000  0.4339030000000  0.4564710000000 1.0
C      1  0.5157140000000  0.4316870000000  0.3990260000000 1.0
C      1  0.6020780000000  0.4354680000000  0.4837040000000 1.0
C      1  0.5463670000000  0.4325390000000  0.5920160000000 1.0
C      1  0.5511310000000  0.5854910000000  0.4654380000000 1.0
C      1  0.4794310000000  0.5830360000000  0.4401310000000 1.0
C      1  0.4310180000000  0.5913870000000  0.5058220000000 1.0
C      1  0.4800500000000  0.5838720000000  0.5593470000000 1.0
C      1  0.5528880000000  0.5845590000000  0.5306880000000 1.0
C      1  0.4487320000000  0.5851690000000  0.4656390000000 1.0
C      1  0.5200800000000  0.5824430000000  0.4403880000000 1.0
C      1  0.5686040000000  0.5913820000000  0.5056270000000 1.0
C      1  0.5203600000000  0.5825620000000  0.5585930000000 1.0
C      1  0.4469550000000  0.5844650000000  0.5307530000000 1.0
C      1  0.3975160000000  0.4706220000000  0.5500040000000 1.0
C      1  0.5166460000000  0.4729540000000  0.6109970000000 1.0
C      1  0.6112670000000  0.4730570000000  0.5217990000000 1.0
C      1  0.5545730000000  0.4701120000000  0.4011360000000 1.0
C      1  0.4200400000000  0.4722400000000  0.4192120000000 1.0
C      1  0.6011530000000  0.4706340000000  0.5501550000000 1.0
C      1  0.4869740000000  0.4697870000000  0.6104010000000 1.0
C      1  0.3887420000000  0.4718900000000  0.5211060000000 1.0
C      1  0.4437030000000  0.4722820000000  0.4017670000000 1.0
C      1  0.5794690000000  0.4706900000000  0.4178650000000 1.0
C      1  0.5156560000000  0.5597700000000  0.4589490000000 1.0
C      1  0.4661210000000  0.5673930000000  0.4780880000000 1.0
C      1  0.4654710000000  0.5628560000000  0.5241880000000 1.0
C      1  0.5142350000000  0.5597250000000  0.5412940000000 1.0
C      1  0.5390230000000  0.5508190000000  0.4996510000000 1.0
C      1  0.4839400000000  0.5603090000000  0.4589070000000 1.0
C      1  0.5342470000000  0.5668970000000  0.4778780000000 1.0
C      1  0.5353010000000  0.5621940000000  0.5244470000000 1.0
C      1  0.4861840000000  0.5616420000000  0.5411400000000 1.0
C      1  0.4621440000000  0.5511820000000  0.4996400000000 1.0
C      1  0.4235390000000  0.5723410000000  0.4599740000000 1.0
C      1  0.4374160000000  0.5715400000000  0.5582390000000 1.0
C      1  0.5403030000000  0.5727350000000  0.5770690000000 1.0
C      1  0.5826120000000  0.5727260000000  0.4894820000000 1.0
C      1  0.5153030000000  0.5710660000000  0.4145780000000 1.0
C      1  0.5758850000000  0.5719210000000  0.4597440000000 1.0
C      1  0.5629450000000  0.5725600000000  0.5583440000000 1.0
C      1  0.4606780000000  0.5717950000000  0.5770620000000 1.0
C      1  0.4168010000000  0.5728440000000  0.4897290000000 1.0
C      1  0.4843560000000  0.5710700000000  0.4145780000000 1.0
C      1  0.4413980000000  0.5041670000000  0.4455010000000 1.0
C      1  0.4276500000000  0.5037400000000  0.5416250000000 1.0
C      1  0.5202990000000  0.5054530000000  0.5758400000000 1.0
C      1  0.5862390000000  0.5051170000000  0.5055750000000 1.0
C      1  0.5345560000000  0.5031290000000  0.4241950000000 1.0
C      1  0.5595190000000  0.5040040000000  0.4442210000000 1.0
C      1  0.5656650000000  0.5028320000000  0.5396520000000 1.0
C      1  0.4779440000000  0.5035030000000  0.5825120000000 1.0
C      1  0.4173920000000  0.5037700000000  0.5076560000000 1.0
C      1  0.4668290000000  0.5036390000000  0.4241430000000 1.0
C      1  0.5450520000000  0.4897700000000  0.5812950000000 1.0
C      1  0.5892900000000  0.4872910000000  0.4847200000000 1.0
C      1  0.5140420000000  0.4818680000000  0.4142240000000 1.0
C      1  0.4315850000000  0.4812400000000  0.4624430000000 1.0
C      1  0.4403920000000  0.4819650000000  0.5572210000000 1.0
C      1  0.4583900000000  0.4841090000000  0.5800990000000 1.0
C      1  0.4140890000000  0.4841450000000  0.4861320000000 1.0
C      1  0.4866420000000  0.4835260000000  0.4115670000000 1.0
C      1  0.5713440000000  0.4820690000000  0.4618520000000 1.0
C      1  0.5582770000000  0.4811040000000  0.5581130000000 1.0
C      1  0.3969070000000  0.5260880000000  0.4741150000000 1.0
C      1  0.4424690000000  0.5272730000000  0.5905150000000 1.0
C      1  0.5771040000000  0.5189570000000  0.5765990000000 1.0
C      1  0.5975750000000  0.5208350000000  0.4490900000000 1.0
C      1  0.4828070000000  0.5197120000000  0.3913460000000 1.0
C      1  0.6039460000000  0.5278840000000  0.4722270000000 1.0
C      1  0.5543510000000  0.5158690000000  0.5943260000000 1.0
C      1  0.4237750000000  0.5203500000000  0.5764490000000 1.0
C      1  0.4025720000000  0.5193610000000  0.4507330000000 1.0
C      1  0.5100760000000  0.5229960000000  0.3920730000000 1.0
C      1  0.4626330000000  0.6094100000000  0.4729670000000 1.0
C      1  0.4640880000000  0.6086160000000  0.5264920000000 1.0
C      1  0.5141410000000  0.6074980000000  0.5442900000000 1.0
C      1  0.5460590000000  0.6088920000000  0.5001080000000 1.0
C      1  0.5141900000000  0.6064560000000  0.4558160000000 1.0
C      1  0.5370700000000  0.6096220000000  0.4729730000000 1.0
C      1  0.5355770000000  0.6087400000000  0.5264720000000 1.0
C      1  0.4854620000000  0.6084750000000  0.5445370000000 1.0
C      1  0.4536830000000  0.6088350000000  0.5001450000000 1.0
C      1  0.4855080000000  0.6068630000000  0.4556790000000 1.0
C      1  0.4133930000000  0.5544200000000  0.5124430000000 1.0
C      1  0.4854620000000  0.5547790000000  0.5866330000000 1.0
C      1  0.5779850000000  0.5548030000000  0.5414290000000 1.0
C      1  0.5627010000000  0.5548900000000  0.4392550000000 1.0
C      1  0.4595570000000  0.5547470000000  0.4200340000000 1.0
C      1  0.5874150000000  0.5551280000000  0.5123110000000 1.0
C      1  0.5152280000000  0.5553820000000  0.5875790000000 1.0
C      1  0.4233720000000  0.5534970000000  0.5410940000000 1.0
C      1  0.4366200000000  0.5554170000000  0.4394920000000 1.0
C      1  0.5399180000000  0.5545840000000  0.4197430000000 1.0
C      1  0.5640260000000  0.4501550000000  0.4339830000000 1.0
C      1  0.4581150000000  0.4520440000000  0.4200170000000 1.0
C      1  0.4120110000000  0.4541660000000  0.5157510000000 1.0
C      1  0.4883930000000  0.4510080000000  0.5883880000000 1.0
C      1  0.5806480000000  0.4498950000000  0.5400470000000 1.0
C      1  0.4359440000000  0.4498270000000  0.4333890000000 1.0
C      1  0.5418110000000  0.4517960000000  0.4213040000000 1.0
C      1  0.5889830000000  0.4543020000000  0.5161230000000 1.0
C      1  0.5151780000000  0.4550210000000  0.5808570000000 1.0
C      1  0.4188180000000  0.4504200000000  0.5405810000000 1.0
C      1  0.5360430000000  0.4696240000000  0.5410900000000 1.0
C      1  0.5470090000000  0.4713130000000  0.4723660000000 1.0
C      1  0.4820600000000  0.4763330000000  0.4537770000000 1.0
C      1  0.4526060000000  0.4733190000000  0.5106650000000 1.0
C      1  0.4885920000000  0.4707640000000  0.5418340000000 1.0
C      1  0.4594140000000  0.4744760000000  0.5381290000000 1.0
C      1  0.4574390000000  0.4681470000000  0.4642630000000 1.0
C      1  0.5108120000000  0.4730110000000  0.4567360000000 1.0
C      1  0.5478270000000  0.4742140000000  0.5017920000000 1.0
C      1  0.5125390000000  0.4704960000000  0.5572760000000 1.0
C      1  0.4297880000000  0.5295370000000  0.4514270000000 1.0
C      1  0.4378420000000  0.5277480000000  0.5492950000000 1.0
C      1  0.5315720000000  0.5322750000000  0.5821290000000 1.0
C      1  0.5884640000000  0.5309380000000  0.4961310000000 1.0
C      1  0.5235180000000  0.5297300000000  0.4215920000000 1.0
C      1  0.5698490000000  0.5288430000000  0.4501890000000 1.0
C      1  0.5653460000000  0.5304150000000  0.5528950000000 1.0
C      1  0.4694340000000  0.5312610000000  0.5803140000000 1.0
C      1  0.4160840000000  0.5308760000000  0.4949710000000 1.0
C      1  0.4758980000000  0.5303230000000  0.4244950000000 1.0
C      1  0.4629640000000  0.5200170000000  0.5275450000000 1.0
C      1  0.5138190000000  0.5148190000000  0.5437600000000 1.0
C      1  0.5367720000000  0.5235960000000  0.4993420000000 1.0
C      1  0.5143250000000  0.5313060000000  0.4525920000000 1.0
C      1  0.4725190000000  0.5184570000000  0.4750630000000 1.0
C      1  0.5367160000000  0.5151140000000  0.5274870000000 1.0
C      1  0.4879290000000  0.5174990000000  0.5353010000000 1.0
C      1  0.4565280000000  0.5230890000000  0.4984870000000 1.0
C      1  0.4849690000000  0.5319600000000  0.4532980000000 1.0
C      1  0.5270890000000  0.5168460000000  0.4739200000000 1.0
C      1  0.4212440000000  0.4312570000000  0.5011140000000 1.0
C      1  0.4760380000000  0.4279100000000  0.5748620000000 1.0
C      1  0.5659700000000  0.4252020000000  0.5455050000000 1.0
C      1  0.5638600000000  0.4288350000000  0.4536550000000 1.0
C      1  0.4745690000000  0.4287620000000  0.4237300000000 1.0
C      1  0.5794590000000  0.4317790000000  0.5011130000000 1.0
C      1  0.5242130000000  0.4252110000000  0.5749890000000 1.0
C      1  0.4327120000000  0.4260650000000  0.5468480000000 1.0
C      1  0.4363880000000  0.4295220000000  0.4541050000000 1.0
C      1  0.5268430000000  0.4263250000000  0.4253320000000 1.0
C      1  0.4850340000000  0.4120640000000  0.4492190000000 1.0
C      1  0.4522770000000  0.4027840000000  0.4982720000000 1.0
C      1  0.4804230000000  0.4057320000000  0.5535640000000 1.0
C      1  0.5455430000000  0.4064860000000  0.5308410000000 1.0
C      1  0.5342740000000  0.4038850000000  0.4739440000000 1.0
C      1  0.5178880000000  0.4092350000000  0.4489860000000 1.0
C      1  0.5407400000000  0.4024480000000  0.5018040000000 1.0
C      1  0.5200510000000  0.4102020000000  0.5500040000000 1.0
C      1  0.4558820000000  0.4103380000000  0.5323880000000 1.0
C      1  0.4621480000000  0.4016040000000  0.4729210000000 1.0
C      1  0.4868660000000  0.5002140000000  0.6100570000000 1.0
C      1  0.5943870000000  0.5007800000000  0.5520470000000 1.0
C      1  0.5775270000000  0.5009300000000  0.4220850000000 1.0
C      1  0.4468240000000  0.5016960000000  0.4022790000000 1.0
C      1  0.3911930000000  0.5010800000000  0.5230600000000 1.0
C      1  0.5167010000000  0.5024340000000  0.6070560000000 1.0
C      1  0.4011970000000  0.5006980000000  0.5507900000000 1.0
C      1  0.4236910000000  0.5020000000000  0.4216120000000 1.0
C      1  0.5551610000000  0.4996330000000  0.4025980000000 1.0
C      1  0.6073690000000  0.5022210000000  0.5249770000000 1.0
C      1  0.4982390000000  0.4783420000000  0.5158950000000 1.0
C      1  0.5207090000000  0.4835740000000  0.5033370000000 1.0
C      1  0.4775510000000  0.4828150000000  0.5008150000000 1.0
C      1  0.4849610000000  0.4954230000000  0.4771080000000 1.0
C      1  0.5145750000000  0.4933930000000  0.4776250000000 1.0
END
