TITL C-2441167-4473-414 0.0183977860955861 125000 -15160.5730348123 0 0 106 (C1) n - 1
REM
REM in /home/bkarasulu/work/CARBON/AIRSS/Generating-Clusters/ReaxFF-fromJPCA2015/Units_Real/with-SteepDescent/Higher-Symm
REM
REM
REM
REM
REM
REM ./C.cell (1df0a924f5614ab8850e4351716899ee)
REM
REM compiler GCC version 9.2.1 20190827 (Red Hat 9.2.1-1)
REM options -cpp -mtune=generic -march=x86-64 -g -O0 -fpre-include=/usr/include/finclude/math-vector-fortran.h
REM seed 1507199319 -1979454452 2055769292 -717218285 -1280108847 -3456929 -1794879252 -1810949875 -816853664 -1243843168 -559944250 -429542624 2125502157 -1701086249 -453888299 1820593716 -1641753874 1830367190 1659478202 -621046014 -619086425 1293141453 641055554 -730533985 569400804 -903360408 -2140261656 1126386030 516598652 -1204621212 -1784001504 -1528401351 1198744198
REM
CELL 1.54180   50.00000   50.00000   50.00000   90.00000   90.00000   90.00000
LATT -1
SFAC C  
C      1  0.4528120000000  0.5689770000000  0.4877410000000 1.0
C      1  0.5266250000000  0.5820500000000  0.4869690000000 1.0
C      1  0.5824110000000  0.5320970000000  0.4887260000000 1.0
C      1  0.5754550000000  0.4552770000000  0.4861990000000 1.0
C      1  0.5129920000000  0.4137500000000  0.4892320000000 1.0
C      1  0.4418680000000  0.4397170000000  0.4883030000000 1.0
C      1  0.4104110000000  0.5163290000000  0.4692850000000 1.0
C      1  0.5206020000000  0.4281060000000  0.4612640000000 1.0
C      1  0.4564400000000  0.4368240000000  0.4609230000000 1.0
C      1  0.4215740000000  0.4961960000000  0.4501990000000 1.0
C      1  0.4483560000000  0.5543270000000  0.4614370000000 1.0
C      1  0.5132290000000  0.5756750000000  0.4589600000000 1.0
C      1  0.5701710000000  0.5383360000000  0.4591520000000 1.0
C      1  0.5721140000000  0.4710310000000  0.4594420000000 1.0
C      1  0.5074210000000  0.4650290000000  0.4196670000000 1.0
C      1  0.4786250000000  0.4717700000000  0.4200040000000 1.0
C      1  0.4680590000000  0.5001330000000  0.4156770000000 1.0
C      1  0.4804240000000  0.5267780000000  0.4213840000000 1.0
C      1  0.5102000000000  0.5322240000000  0.4201120000000 1.0
C      1  0.5326060000000  0.5127110000000  0.4213580000000 1.0
C      1  0.5314300000000  0.4835810000000  0.4206250000000 1.0
C      1  0.4758840000000  0.4216070000000  0.4724200000000 1.0
C      1  0.4210460000000  0.4768560000000  0.4700000000000 1.0
C      1  0.4228020000000  0.5418780000000  0.4668260000000 1.0
C      1  0.4888890000000  0.5812870000000  0.4698570000000 1.0
C      1  0.5574650000000  0.5598280000000  0.4695640000000 1.0
C      1  0.5784510000000  0.4975430000000  0.4633170000000 1.0
C      1  0.5436350000000  0.4342980000000  0.4703480000000 1.0
C      1  0.5577270000000  0.4848080000000  0.5736690000000 1.0
C      1  0.5158860000000  0.4406290000000  0.5709280000000 1.0
C      1  0.4693750000000  0.4433260000000  0.5752710000000 1.0
C      1  0.4441410000000  0.4902630000000  0.5759880000000 1.0
C      1  0.4557620000000  0.5476770000000  0.5755740000000 1.0
C      1  0.5006250000000  0.5606620000000  0.5761660000000 1.0
C      1  0.5471020000000  0.5366040000000  0.5743560000000 1.0
C      1  0.5138750000000  0.5311890000000  0.5324910000000 1.0
C      1  0.5358020000000  0.5066410000000  0.5300450000000 1.0
C      1  0.5275680000000  0.4770700000000  0.5298830000000 1.0
C      1  0.4966130000000  0.4640220000000  0.5276820000000 1.0
C      1  0.4719680000000  0.4765110000000  0.5396250000000 1.0
C      1  0.4667630000000  0.5066210000000  0.5296680000000 1.0
C      1  0.4842410000000  0.5278400000000  0.5411790000000 1.0
C      1  0.4524950000000  0.4373480000000  0.5155420000000 1.0
C      1  0.4171800000000  0.4931700000000  0.5360090000000 1.0
C      1  0.4477710000000  0.5595030000000  0.5146430000000 1.0
C      1  0.5166720000000  0.5786100000000  0.5150000000000 1.0
C      1  0.5735730000000  0.5365610000000  0.5164030000000 1.0
C      1  0.5751150000000  0.4652760000000  0.5133040000000 1.0
C      1  0.5227600000000  0.4211610000000  0.5156940000000 1.0
C      1  0.5368870000000  0.4382070000000  0.5525650000000 1.0
C      1  0.4883350000000  0.4277540000000  0.5612110000000 1.0
C      1  0.4252100000000  0.4823030000000  0.5606740000000 1.0
C      1  0.4342250000000  0.5389020000000  0.5581340000000 1.0
C      1  0.4827550000000  0.5717710000000  0.5588140000000 1.0
C      1  0.5525470000000  0.5602510000000  0.5609570000000 1.0
C      1  0.5793370000000  0.4939120000000  0.5597030000000 1.0
C      1  0.5899010000000  0.5046110000000  0.4890280000000 1.0
C      1  0.5604880000000  0.4324670000000  0.4895510000000 1.0
C      1  0.4846280000000  0.4092910000000  0.4957440000000 1.0
C      1  0.4220920000000  0.4609270000000  0.4929540000000 1.0
C      1  0.4222910000000  0.5288570000000  0.4911660000000 1.0
C      1  0.4752820000000  0.5872880000000  0.4933080000000 1.0
C      1  0.5541380000000  0.5747160000000  0.4925340000000 1.0
C      1  0.4454370000000  0.5061360000000  0.4329810000000 1.0
C      1  0.4699810000000  0.5430250000000  0.4451980000000 1.0
C      1  0.5195790000000  0.5531240000000  0.4392920000000 1.0
C      1  0.5563360000000  0.5168880000000  0.4421260000000 1.0
C      1  0.5491390000000  0.4700560000000  0.4404960000000 1.0
C      1  0.5062690000000  0.4471290000000  0.4428810000000 1.0
C      1  0.4622570000000  0.4594660000000  0.4416980000000 1.0
C      1  0.5042320000000  0.5342380000000  0.5836650000000 1.0
C      1  0.5286860000000  0.5180970000000  0.5830640000000 1.0
C      1  0.5310390000000  0.4877630000000  0.5816270000000 1.0
C      1  0.5101830000000  0.4684980000000  0.5776040000000 1.0
C      1  0.4819130000000  0.4735400000000  0.5714200000000 1.0
C      1  0.4692960000000  0.4977100000000  0.5828750000000 1.0
C      1  0.4796240000000  0.5239240000000  0.5715880000000 1.0
C      1  0.4721800000000  0.5596370000000  0.5339900000000 1.0
C      1  0.5314510000000  0.5598120000000  0.5335250000000 1.0
C      1  0.5677720000000  0.5115370000000  0.5329620000000 1.0
C      1  0.5525970000000  0.4542660000000  0.5339570000000 1.0
C      1  0.4982400000000  0.4339050000000  0.5319870000000 1.0
C      1  0.4470310000000  0.4600270000000  0.5333380000000 1.0
C      1  0.4352820000000  0.5167870000000  0.5357670000000 1.0
C      1  0.4640610000000  0.5036730000000  0.4555780000000 1.0
C      1  0.4891840000000  0.5361300000000  0.4660440000000 1.0
C      1  0.5169280000000  0.5334080000000  0.4603250000000 1.0
C      1  0.5354140000000  0.5110220000000  0.4625780000000 1.0
C      1  0.5324950000000  0.4816950000000  0.4616510000000 1.0
C      1  0.5051730000000  0.4710240000000  0.4609070000000 1.0
C      1  0.4607510000000  0.4772630000000  0.4643080000000 1.0
C      1  0.5099610000000  0.5286820000000  0.5039020000000 1.0
C      1  0.5302110000000  0.5083820000000  0.5008550000000 1.0
C      1  0.5234750000000  0.4801100000000  0.5008000000000 1.0
C      1  0.4974470000000  0.4671850000000  0.4993030000000 1.0
C      1  0.4731520000000  0.4797370000000  0.4897870000000 1.0
C      1  0.4683240000000  0.5054070000000  0.5015550000000 1.0
C      1  0.4839230000000  0.5273350000000  0.4923460000000 1.0
C      1  0.5834960000000  0.4917840000000  0.5161620000000 1.0
C      1  0.5500980000000  0.4283650000000  0.5160950000000 1.0
C      1  0.4748280000000  0.4203060000000  0.5222170000000 1.0
C      1  0.4236760000000  0.4704670000000  0.5218400000000 1.0
C      1  0.4281750000000  0.5388210000000  0.5171900000000 1.0
C      1  0.4887960000000  0.5817440000000  0.5197720000000 1.0
C      1  0.5576350000000  0.5602080000000  0.5194750000000 1.0
C      1  0.4931980000000  0.4976940000000  0.4529950000000 1.0
END
