TITL C-2441154-10-835 0.142060543999265 125000 -19389.7011933213 0 0 153 (C1) n - 1
REM
REM in /home/bkarasulu/work/CARBON/AIRSS/Generating-Clusters/ReaxFF-fromJPCA2015/Units_Real/with-SteepDescent/Higher-Symm
REM
REM
REM
REM
REM
REM ./C.cell (1df0a924f5614ab8850e4351716899ee)
REM
REM compiler GCC version 9.2.1 20190827 (Red Hat 9.2.1-1)
REM options -cpp -mtune=generic -march=x86-64 -g -O0 -fpre-include=/usr/include/finclude/math-vector-fortran.h
REM seed 1900871307 -1167597288 239511913 651126161 -94727508 -212947591 1013236012 -2102604901 -601032283 -2057928298 -1031792905 -544201519 -1880082261 -568635009 -247916188 307058142 -1324168608 -408851928 -854298353 737505495 1839044956 -433026943 59853727 916020936 1306701729 -111519221 -1413752793 -886920998 -1576400104 1931100834 1863098558 196529169 1023610684
REM
CELL 1.54180   50.00000   50.00000   50.00000   90.00000   90.00000   90.00000
LATT -1
SFAC C  
C      1  0.4756950000000  0.5220840000000  0.4546300000000 1.0
C      1  0.5262850000000  0.4752390000000  0.4508190000000 1.0
C      1  0.4844600000000  0.4976180000000  0.4429040000000 1.0
C      1  0.5152180000000  0.5000160000000  0.4425160000000 1.0
C      1  0.4259000000000  0.5605700000000  0.5276690000000 1.0
C      1  0.5770770000000  0.4452490000000  0.5292470000000 1.0
C      1  0.4492820000000  0.4969080000000  0.5019070000000 1.0
C      1  0.5480700000000  0.4967210000000  0.5066960000000 1.0
C      1  0.4706620000000  0.4843310000000  0.4651530000000 1.0
C      1  0.5227330000000  0.5096940000000  0.4690700000000 1.0
C      1  0.5432770000000  0.5823800000000  0.5226710000000 1.0
C      1  0.4615540000000  0.4083880000000  0.5145800000000 1.0
C      1  0.4546140000000  0.4889930000000  0.5474170000000 1.0
C      1  0.5502800000000  0.5147110000000  0.5465660000000 1.0
C      1  0.4969380000000  0.5809080000000  0.5525320000000 1.0
C      1  0.5053300000000  0.4239490000000  0.5532370000000 1.0
C      1  0.4098610000000  0.4576610000000  0.4986990000000 1.0
C      1  0.5907290000000  0.5399210000000  0.4988400000000 1.0
C      1  0.5505680000000  0.4745010000000  0.4650300000000 1.0
C      1  0.4485430000000  0.5279260000000  0.4647790000000 1.0
C      1  0.5706730000000  0.4803910000000  0.5609170000000 1.0
C      1  0.4282470000000  0.5212030000000  0.5616750000000 1.0
C      1  0.5000050000000  0.5831700000000  0.4307720000000 1.0
C      1  0.5014080000000  0.4182400000000  0.4279440000000 1.0
C      1  0.4742640000000  0.4249790000000  0.4399990000000 1.0
C      1  0.5261160000000  0.5758860000000  0.4424850000000 1.0
C      1  0.4797290000000  0.4992760000000  0.4109180000000 1.0
C      1  0.5201950000000  0.5004070000000  0.4099360000000 1.0
C      1  0.4652910000000  0.5422320000000  0.5447670000000 1.0
C      1  0.5343350000000  0.4620810000000  0.5447930000000 1.0
C      1  0.5294450000000  0.5199580000000  0.5118390000000 1.0
C      1  0.4661030000000  0.4744440000000  0.5109890000000 1.0
C      1  0.4219650000000  0.4476740000000  0.4743400000000 1.0
C      1  0.5803400000000  0.5510850000000  0.4735900000000 1.0
C      1  0.5493090000000  0.4214280000000  0.4505170000000 1.0
C      1  0.4486340000000  0.5794900000000  0.4534700000000 1.0
C      1  0.4367580000000  0.4851930000000  0.4434280000000 1.0
C      1  0.5628640000000  0.5158140000000  0.4438340000000 1.0
C      1  0.4696240000000  0.5992040000000  0.4883540000000 1.0
C      1  0.5283330000000  0.3987490000000  0.4875140000000 1.0
C      1  0.4547250000000  0.5597240000000  0.5656110000000 1.0
C      1  0.5450650000000  0.4430570000000  0.5642910000000 1.0
C      1  0.5648260000000  0.4472700000000  0.4380010000000 1.0
C      1  0.4325680000000  0.5538140000000  0.4370490000000 1.0
C      1  0.4994920000000  0.4427160000000  0.5752380000000 1.0
C      1  0.5038000000000  0.5602440000000  0.5711960000000 1.0
C      1  0.4355250000000  0.5346210000000  0.4936500000000 1.0
C      1  0.5788540000000  0.4489140000000  0.5011330000000 1.0
C      1  0.4195070000000  0.4580770000000  0.5258400000000 1.0
C      1  0.5845720000000  0.5422050000000  0.5267470000000 1.0
C      1  0.4508150000000  0.4684310000000  0.5827200000000 1.0
C      1  0.5476420000000  0.5344550000000  0.5806530000000 1.0
C      1  0.5473890000000  0.5112040000000  0.4058100000000 1.0
C      1  0.4522660000000  0.4905200000000  0.4059880000000 1.0
C      1  0.5563240000000  0.5363080000000  0.5294150000000 1.0
C      1  0.4491790000000  0.4559090000000  0.5268110000000 1.0
C      1  0.5075370000000  0.4547320000000  0.4550560000000 1.0
C      1  0.4945680000000  0.5429120000000  0.4577610000000 1.0
C      1  0.4740500000000  0.5391440000000  0.5018380000000 1.0
C      1  0.5301700000000  0.4746170000000  0.5030410000000 1.0
C      1  0.5580470000000  0.4820700000000  0.5864790000000 1.0
C      1  0.4437730000000  0.5192880000000  0.5864990000000 1.0
C      1  0.5223250000000  0.5864000000000  0.4701020000000 1.0
C      1  0.4778740000000  0.4142150000000  0.4668360000000 1.0
C      1  0.5897270000000  0.4690230000000  0.4834530000000 1.0
C      1  0.4092490000000  0.5297580000000  0.4812250000000 1.0
C      1  0.5227050000000  0.4072280000000  0.4453660000000 1.0
C      1  0.4780210000000  0.5929660000000  0.4478860000000 1.0
C      1  0.4091760000000  0.5082210000000  0.5268940000000 1.0
C      1  0.5945570000000  0.4941990000000  0.5282990000000 1.0
C      1  0.5938150000000  0.4925420000000  0.4992970000000 1.0
C      1  0.4040830000000  0.5070100000000  0.4981750000000 1.0
C      1  0.5528470000000  0.5590980000000  0.4770710000000 1.0
C      1  0.4493320000000  0.4422800000000  0.4797520000000 1.0
C      1  0.4839710000000  0.4740520000000  0.4876690000000 1.0
C      1  0.5215060000000  0.5435930000000  0.4984660000000 1.0
C      1  0.4608430000000  0.4307910000000  0.5304950000000 1.0
C      1  0.5403140000000  0.5574620000000  0.5368360000000 1.0
C      1  0.4710580000000  0.4573750000000  0.4683460000000 1.0
C      1  0.5263130000000  0.5383830000000  0.4702280000000 1.0
C      1  0.5422890000000  0.4586800000000  0.5889980000000 1.0
C      1  0.4573170000000  0.5436310000000  0.5899470000000 1.0
C      1  0.5502410000000  0.4866820000000  0.5384290000000 1.0
C      1  0.4518880000000  0.5173830000000  0.5438760000000 1.0
C      1  0.4492170000000  0.4676290000000  0.4237190000000 1.0
C      1  0.5504320000000  0.5342030000000  0.4242140000000 1.0
C      1  0.5704170000000  0.5220590000000  0.5659890000000 1.0
C      1  0.4318960000000  0.4790910000000  0.5637550000000 1.0
C      1  0.4193710000000  0.4736160000000  0.4621830000000 1.0
C      1  0.5794440000000  0.5240290000000  0.4634070000000 1.0
C      1  0.5776310000000  0.4677500000000  0.4559820000000 1.0
C      1  0.4194740000000  0.5331680000000  0.4529840000000 1.0
C      1  0.4803100000000  0.5140250000000  0.5709840000000 1.0
C      1  0.5220330000000  0.4920470000000  0.5719550000000 1.0
C      1  0.4634660000000  0.4934650000000  0.5929050000000 1.0
C      1  0.5342920000000  0.5096910000000  0.5930670000000 1.0
C      1  0.4456300000000  0.5341930000000  0.4202700000000 1.0
C      1  0.5521620000000  0.4670290000000  0.4201760000000 1.0
C      1  0.5537560000000  0.4096500000000  0.4775330000000 1.0
C      1  0.4443130000000  0.5862050000000  0.4826110000000 1.0
C      1  0.5291300000000  0.4162590000000  0.5360450000000 1.0
C      1  0.4712840000000  0.5866770000000  0.5383560000000 1.0
C      1  0.4879830000000  0.5378350000000  0.5886030000000 1.0
C      1  0.5124660000000  0.4670820000000  0.5882060000000 1.0
C      1  0.5151200000000  0.4577970000000  0.5233390000000 1.0
C      1  0.4881050000000  0.5453910000000  0.5269330000000 1.0
C      1  0.5052910000000  0.5101450000000  0.5584080000000 1.0
C      1  0.4793450000000  0.4782250000000  0.5541710000000 1.0
C      1  0.4923960000000  0.4899050000000  0.6017780000000 1.0
C      1  0.5056340000000  0.5142870000000  0.6027200000000 1.0
C      1  0.5061190000000  0.4029330000000  0.4684810000000 1.0
C      1  0.4937580000000  0.5979340000000  0.4704050000000 1.0
C      1  0.4440560000000  0.5767900000000  0.5443800000000 1.0
C      1  0.5563320000000  0.4274700000000  0.5417770000000 1.0
C      1  0.5066260000000  0.5207300000000  0.5307130000000 1.0
C      1  0.4919380000000  0.4780540000000  0.5291190000000 1.0
C      1  0.4723590000000  0.4503700000000  0.4254520000000 1.0
C      1  0.5265530000000  0.5513790000000  0.4258710000000 1.0
C      1  0.4873290000000  0.5569030000000  0.4324870000000 1.0
C      1  0.5105460000000  0.4424690000000  0.4305350000000 1.0
C      1  0.4774360000000  0.4209850000000  0.5489670000000 1.0
C      1  0.5208420000000  0.5934460000000  0.5383630000000 1.0
C      1  0.5055030000000  0.5948010000000  0.5135380000000 1.0
C      1  0.4910270000000  0.4070810000000  0.5095320000000 1.0
C      1  0.5893090000000  0.4686000000000  0.5420990000000 1.0
C      1  0.4152630000000  0.5345810000000  0.5388140000000 1.0
C      1  0.4751970000000  0.5275720000000  0.4084000000000 1.0
C      1  0.5236490000000  0.4721410000000  0.4080630000000 1.0
C      1  0.5900920000000  0.5193380000000  0.5432280000000 1.0
C      1  0.4131790000000  0.4817850000000  0.5414100000000 1.0
C      1  0.5429020000000  0.5817820000000  0.4915950000000 1.0
C      1  0.4574160000000  0.4157660000000  0.4871840000000 1.0
C      1  0.5640890000000  0.4942730000000  0.4233120000000 1.0
C      1  0.4342370000000  0.5068370000000  0.4230520000000 1.0
C      1  0.4728460000000  0.5120510000000  0.5001160000000 1.0
C      1  0.5110100000000  0.4896510000000  0.4885130000000 1.0
C      1  0.4779520000000  0.6023680000000  0.5157320000000 1.0
C      1  0.5188300000000  0.3976550000000  0.5155950000000 1.0
C      1  0.5588040000000  0.4332580000000  0.4922740000000 1.0
C      1  0.4335400000000  0.5644120000000  0.4995880000000 1.0
C      1  0.5149030000000  0.4428670000000  0.4805660000000 1.0
C      1  0.4813920000000  0.5559860000000  0.4803090000000 1.0
C      1  0.5054980000000  0.5651160000000  0.5099440000000 1.0
C      1  0.5010070000000  0.4340920000000  0.5040410000000 1.0
C      1  0.5004570000000  0.5426970000000  0.4113310000000 1.0
C      1  0.4991000000000  0.4551610000000  0.4113150000000 1.0
C      1  0.4203340000000  0.4855220000000  0.4884880000000 1.0
C      1  0.5779100000000  0.5140830000000  0.4896760000000 1.0
C      1  0.5306470000000  0.5528950000000  0.5647540000000 1.0
C      1  0.4719960000000  0.4525810000000  0.5689960000000 1.0
C      1  0.4586230000000  0.5550960000000  0.4650530000000 1.0
C      1  0.5438890000000  0.4473100000000  0.4752180000000 1.0
C      1  0.4950750000000  0.5016660000000  0.5140970000000 1.0
END
