TITL C-2441157-2117-629 0.0610474237965891 125000 -15540.4405041044 0 0 118 (C1) n - 1
REM
REM in /home/bkarasulu/work/CARBON/AIRSS/Generating-Clusters/ReaxFF-fromJPCA2015/Units_Real/with-SteepDescent/Higher-Symm
REM
REM
REM
REM
REM
REM ./C.cell (1df0a924f5614ab8850e4351716899ee)
REM
REM compiler GCC version 9.2.1 20190827 (Red Hat 9.2.1-1)
REM options -cpp -mtune=generic -march=x86-64 -g -O0 -fpre-include=/usr/include/finclude/math-vector-fortran.h
REM seed 1887328306 -870632134 1854726555 1095436825 1873551243 -790905659 1710767955 -1743352067 -661590369 530107876 111743009 603550605 -1315202872 -664069688 -1283785624 1566940350 419187946 717973471 -671219956 921468555 -436551751 -1941559103 -526478543 -899515920 -247484217 -167925676 14811896 -1828953371 -596769947 2116362579 538733270 -2094749263 277396548
REM
CELL 1.54180   50.00000   50.00000   50.00000   90.00000   90.00000   90.00000
LATT -1
SFAC C  
C      1  0.4957140000000  0.4265610000000  0.5416800000000 1.0
C      1  0.4322550000000  0.4809700000000  0.5427220000000 1.0
C      1  0.4587350000000  0.5620410000000  0.5464150000000 1.0
C      1  0.5442280000000  0.5564730000000  0.5420320000000 1.0
C      1  0.5663820000000  0.4731050000000  0.5393540000000 1.0
C      1  0.4359580000000  0.4639280000000  0.5659620000000 1.0
C      1  0.4454180000000  0.5492530000000  0.5685190000000 1.0
C      1  0.5297030000000  0.5665970000000  0.5648080000000 1.0
C      1  0.5724390000000  0.4892220000000  0.5631440000000 1.0
C      1  0.5141670000000  0.4287520000000  0.5632340000000 1.0
C      1  0.4518450000000  0.4413550000000  0.5566790000000 1.0
C      1  0.4310850000000  0.5259630000000  0.5576350000000 1.0
C      1  0.5042200000000  0.5755760000000  0.5531240000000 1.0
C      1  0.5728280000000  0.5172370000000  0.5549830000000 1.0
C      1  0.5395250000000  0.4389790000000  0.5527540000000 1.0
C      1  0.4758130000000  0.5288320000000  0.4116220000000 1.0
C      1  0.5174720000000  0.5345060000000  0.4248010000000 1.0
C      1  0.5387280000000  0.4892340000000  0.4212600000000 1.0
C      1  0.5030030000000  0.4566410000000  0.4164670000000 1.0
C      1  0.4650710000000  0.4843290000000  0.4149100000000 1.0
C      1  0.5013700000000  0.5365800000000  0.4779940000000 1.0
C      1  0.5393040000000  0.5147920000000  0.4762430000000 1.0
C      1  0.5224050000000  0.4709190000000  0.4655270000000 1.0
C      1  0.4765330000000  0.4658360000000  0.4787690000000 1.0
C      1  0.4569170000000  0.5142570000000  0.4816340000000 1.0
C      1  0.5606820000000  0.4402890000000  0.4759580000000 1.0
C      1  0.4481830000000  0.4292810000000  0.4890770000000 1.0
C      1  0.4292180000000  0.5155330000000  0.4859450000000 1.0
C      1  0.4946900000000  0.5818290000000  0.4727550000000 1.0
C      1  0.5813840000000  0.5336870000000  0.4842670000000 1.0
C      1  0.4791050000000  0.4484480000000  0.5529350000000 1.0
C      1  0.4490660000000  0.5038210000000  0.5505900000000 1.0
C      1  0.4860840000000  0.5523100000000  0.5515020000000 1.0
C      1  0.5453570000000  0.5268820000000  0.5488360000000 1.0
C      1  0.5405330000000  0.4669750000000  0.5488320000000 1.0
C      1  0.5049620000000  0.5733320000000  0.4460780000000 1.0
C      1  0.5651510000000  0.5145410000000  0.4401370000000 1.0
C      1  0.5250100000000  0.4285120000000  0.4450940000000 1.0
C      1  0.4518800000000  0.4506040000000  0.4375590000000 1.0
C      1  0.4404370000000  0.5355070000000  0.4436510000000 1.0
C      1  0.5312400000000  0.5443720000000  0.5857740000000 1.0
C      1  0.5527020000000  0.4825890000000  0.5851500000000 1.0
C      1  0.5009540000000  0.4442930000000  0.5862470000000 1.0
C      1  0.4469350000000  0.4813870000000  0.5886920000000 1.0
C      1  0.4677390000000  0.5441320000000  0.5888940000000 1.0
C      1  0.4227240000000  0.5195080000000  0.5111140000000 1.0
C      1  0.4964950000000  0.5709970000000  0.5031960000000 1.0
C      1  0.5691920000000  0.5275460000000  0.5090010000000 1.0
C      1  0.5494780000000  0.4366380000000  0.5026850000000 1.0
C      1  0.4675570000000  0.4315430000000  0.5107250000000 1.0
C      1  0.5113910000000  0.4712340000000  0.5051290000000 1.0
C      1  0.4843790000000  0.4579350000000  0.5094160000000 1.0
C      1  0.4750160000000  0.5029690000000  0.5000650000000 1.0
C      1  0.5051610000000  0.5390110000000  0.5081820000000 1.0
C      1  0.5299350000000  0.5242860000000  0.5041040000000 1.0
C      1  0.5588740000000  0.4924740000000  0.4836580000000 1.0
C      1  0.5002630000000  0.4536520000000  0.4678510000000 1.0
C      1  0.4501660000000  0.4698810000000  0.4745970000000 1.0
C      1  0.4713930000000  0.5365710000000  0.4718500000000 1.0
C      1  0.5243760000000  0.5532430000000  0.4762370000000 1.0
C      1  0.4246050000000  0.4683300000000  0.5161590000000 1.0
C      1  0.4447860000000  0.5653970000000  0.5198460000000 1.0
C      1  0.5424770000000  0.5716080000000  0.5169950000000 1.0
C      1  0.5683640000000  0.4851230000000  0.5120930000000 1.0
C      1  0.5042990000000  0.4167960000000  0.5151920000000 1.0
C      1  0.5467990000000  0.5706030000000  0.4713440000000 1.0
C      1  0.5760310000000  0.4818460000000  0.4630010000000 1.0
C      1  0.5119440000000  0.4266230000000  0.4713410000000 1.0
C      1  0.4216540000000  0.4698820000000  0.4698260000000 1.0
C      1  0.4493080000000  0.5541410000000  0.4653740000000 1.0
C      1  0.5226750000000  0.4825850000000  0.5312680000000 1.0
C      1  0.4788250000000  0.4692310000000  0.5353900000000 1.0
C      1  0.4740890000000  0.5113930000000  0.5283540000000 1.0
C      1  0.4921790000000  0.5319270000000  0.5315570000000 1.0
C      1  0.5361470000000  0.5098440000000  0.5274500000000 1.0
C      1  0.5166880000000  0.5197720000000  0.5788300000000 1.0
C      1  0.5246600000000  0.4887380000000  0.5775930000000 1.0
C      1  0.4970480000000  0.4723150000000  0.5785990000000 1.0
C      1  0.4711800000000  0.4941040000000  0.5775750000000 1.0
C      1  0.4859750000000  0.5227670000000  0.5802550000000 1.0
C      1  0.5419320000000  0.4499940000000  0.4556140000000 1.0
C      1  0.4725710000000  0.4307860000000  0.4452400000000 1.0
C      1  0.4318150000000  0.5055630000000  0.4463450000000 1.0
C      1  0.4805690000000  0.5653230000000  0.4367760000000 1.0
C      1  0.5492570000000  0.5347200000000  0.4494620000000 1.0
C      1  0.4842010000000  0.4702470000000  0.4067470000000 1.0
C      1  0.4678940000000  0.5063300000000  0.4036160000000 1.0
C      1  0.5021490000000  0.5278200000000  0.4033550000000 1.0
C      1  0.5275160000000  0.5129960000000  0.4100520000000 1.0
C      1  0.5245360000000  0.4721900000000  0.4138550000000 1.0
C      1  0.5855410000000  0.4559480000000  0.4767890000000 1.0
C      1  0.4694410000000  0.4182960000000  0.4727900000000 1.0
C      1  0.4118630000000  0.5008160000000  0.4703960000000 1.0
C      1  0.4642220000000  0.5817570000000  0.4714350000000 1.0
C      1  0.5749570000000  0.5604290000000  0.4769990000000 1.0
C      1  0.4609940000000  0.5480550000000  0.4256900000000 1.0
C      1  0.5309700000000  0.5545790000000  0.4367070000000 1.0
C      1  0.5661530000000  0.4879030000000  0.4347800000000 1.0
C      1  0.4992960000000  0.4326280000000  0.4326940000000 1.0
C      1  0.4412690000000  0.4780890000000  0.4334360000000 1.0
C      1  0.5012700000000  0.5878260000000  0.5273290000000 1.0
C      1  0.5875810000000  0.5254160000000  0.5314980000000 1.0
C      1  0.5506640000000  0.4262860000000  0.5292450000000 1.0
C      1  0.4464130000000  0.4302240000000  0.5305270000000 1.0
C      1  0.4127220000000  0.5306720000000  0.5353250000000 1.0
C      1  0.5959240000000  0.5217830000000  0.5045000000000 1.0
C      1  0.5327890000000  0.4162910000000  0.5117550000000 1.0
C      1  0.4284820000000  0.4393940000000  0.5094650000000 1.0
C      1  0.4219410000000  0.5475360000000  0.5145050000000 1.0
C      1  0.5186320000000  0.5860010000000  0.5051450000000 1.0
C      1  0.4545440000000  0.5791790000000  0.4972660000000 1.0
C      1  0.5626620000000  0.5764240000000  0.4972270000000 1.0
C      1  0.5843730000000  0.4658740000000  0.5032810000000 1.0
C      1  0.4934120000000  0.4111030000000  0.4876640000000 1.0
C      1  0.4088860000000  0.4778550000000  0.4943260000000 1.0
C      1  0.4936450000000  0.4927680000000  0.5406030000000 1.0
C      1  0.5148430000000  0.4997770000000  0.4667590000000 1.0
C      1  0.5014340000000  0.4951820000000  0.4922880000000 1.0
END
