TITL C-2441164-471-587 0.00118151168950738 125000 -8073.84550859062 0 0 56 (C1) n - 1
REM
REM in /home/bkarasulu/work/CARBON/AIRSS/Generating-Clusters/ReaxFF-fromJPCA2015/Units_Real/with-SteepDescent/Higher-Symm
REM
REM
REM
REM
REM
REM ./C.cell (1df0a924f5614ab8850e4351716899ee)
REM
REM compiler GCC version 9.2.1 20190827 (Red Hat 9.2.1-1)
REM options -cpp -mtune=generic -march=x86-64 -g -O0 -fpre-include=/usr/include/finclude/math-vector-fortran.h
REM seed -1156260370 1606775883 604932809 91310960 -459217034 -1486434469 163241404 -1981180415 628753442 -528418964 -1429155521 -665722790 -1572320300 876545980 143502834 1609040410 -361195104 -466905069 -1092209413 2080647371 1236420893 517126205 1502828885 1350517639 -711226879 1169808122 1801007191 -2066640149 -1888701592 -1622626002 339604787 1777185866 1881508954
REM
CELL 1.54180   50.00000   50.00000   50.00000   90.00000   90.00000   90.00000
LATT -1
SFAC C  
C      1  0.4732410000000  0.4671830000000  0.5489590000000 1.0
C      1  0.4546510000000  0.4893540000000  0.5485060000000 1.0
C      1  0.4727390000000  0.5339680000000  0.5456120000000 1.0
C      1  0.4991660000000  0.5427810000000  0.5509440000000 1.0
C      1  0.5423950000000  0.5180710000000  0.5499160000000 1.0
C      1  0.5480930000000  0.4902500000000  0.5508440000000 1.0
C      1  0.5131680000000  0.4576940000000  0.5444190000000 1.0
C      1  0.5100460000000  0.4298360000000  0.4901430000000 1.0
C      1  0.4469490000000  0.4383650000000  0.4973750000000 1.0
C      1  0.4254620000000  0.5007880000000  0.4998840000000 1.0
C      1  0.4568530000000  0.5597770000000  0.4969900000000 1.0
C      1  0.5188650000000  0.5711080000000  0.5027620000000 1.0
C      1  0.5703450000000  0.5334850000000  0.4973720000000 1.0
C      1  0.5679830000000  0.4681440000000  0.4995070000000 1.0
C      1  0.4796260000000  0.5604420000000  0.5411680000000 1.0
C      1  0.5252390000000  0.5390340000000  0.5416330000000 1.0
C      1  0.5661130000000  0.5078390000000  0.5388020000000 1.0
C      1  0.5392540000000  0.4640430000000  0.5407640000000 1.0
C      1  0.4907750000000  0.4449420000000  0.5400320000000 1.0
C      1  0.4462140000000  0.4651620000000  0.5390810000000 1.0
C      1  0.4529680000000  0.5153910000000  0.5375620000000 1.0
C      1  0.5743120000000  0.4936170000000  0.4875700000000 1.0
C      1  0.5377190000000  0.4407250000000  0.4908950000000 1.0
C      1  0.4705120000000  0.4266550000000  0.5017960000000 1.0
C      1  0.4292830000000  0.4745350000000  0.4891720000000 1.0
C      1  0.4395210000000  0.5390100000000  0.4902470000000 1.0
C      1  0.4934380000000  0.5748250000000  0.4942680000000 1.0
C      1  0.5543310000000  0.5541910000000  0.5037300000000 1.0
C      1  0.5778280000000  0.5108110000000  0.5119230000000 1.0
C      1  0.5520220000000  0.4511310000000  0.5148310000000 1.0
C      1  0.4939430000000  0.4260940000000  0.5147720000000 1.0
C      1  0.4339920000000  0.4573120000000  0.5134520000000 1.0
C      1  0.4338740000000  0.5218860000000  0.5160190000000 1.0
C      1  0.4729980000000  0.5738290000000  0.5148320000000 1.0
C      1  0.5352200000000  0.5604320000000  0.5231090000000 1.0
C      1  0.5189510000000  0.5454980000000  0.4626080000000 1.0
C      1  0.5540460000000  0.5079690000000  0.4695380000000 1.0
C      1  0.5383330000000  0.4631160000000  0.4712490000000 1.0
C      1  0.4962890000000  0.4471580000000  0.4700420000000 1.0
C      1  0.4546020000000  0.4692880000000  0.4722550000000 1.0
C      1  0.4489990000000  0.5173420000000  0.4705170000000 1.0
C      1  0.4895360000000  0.5490070000000  0.4631730000000 1.0
C      1  0.4870080000000  0.5284720000000  0.4413300000000 1.0
C      1  0.5162500000000  0.5244460000000  0.4420000000000 1.0
C      1  0.5344320000000  0.5016920000000  0.4478800000000 1.0
C      1  0.5237790000000  0.4742960000000  0.4476740000000 1.0
C      1  0.4954770000000  0.4654310000000  0.4471340000000 1.0
C      1  0.4693680000000  0.4802630000000  0.4490260000000 1.0
C      1  0.4651770000000  0.5093920000000  0.4470330000000 1.0
C      1  0.5176540000000  0.5310110000000  0.4887620000000 1.0
C      1  0.5340100000000  0.5077930000000  0.4911400000000 1.0
C      1  0.5248580000000  0.4807460000000  0.4912330000000 1.0
C      1  0.4987750000000  0.4698290000000  0.4894000000000 1.0
C      1  0.4737180000000  0.4822790000000  0.4908200000000 1.0
C      1  0.4701930000000  0.5104420000000  0.4899480000000 1.0
C      1  0.4894090000000  0.5318210000000  0.4883470000000 1.0
END
