TITL C-2441159-1093-1101 0.261609578502912 125000 -20031.9044465343 0 0 176 (C1) n - 1
REM
REM in /home/bkarasulu/work/CARBON/AIRSS/Generating-Clusters/ReaxFF-fromJPCA2015/Units_Real/with-SteepDescent/Higher-Symm
REM
REM
REM
REM
REM
REM ./C.cell (1df0a924f5614ab8850e4351716899ee)
REM
REM compiler GCC version 9.2.1 20190827 (Red Hat 9.2.1-1)
REM options -cpp -mtune=generic -march=x86-64 -g -O0 -fpre-include=/usr/include/finclude/math-vector-fortran.h
REM seed -1735486730 -1393575438 868214294 252279208 1243429270 1522426919 -872098390 -759554216 2080676849 228354247 -1325091810 -1519726890 -647692227 -1906737650 753399745 726122129 -1682745982 1208025595 1488573683 -1407404135 903730142 -63441623 -1922729774 -1004633184 2004769109 -1898395434 -1265007426 -1047354037 -1388855512 474229256 507648014 -2588318 966938592
REM
CELL 1.54180   50.00000   50.00000   50.00000   90.00000   90.00000   90.00000
LATT -1
SFAC C  
C      1  0.5142530000000  0.4696650000000  0.5904660000000 1.0
C      1  0.4855410000000  0.4698840000000  0.4094010000000 1.0
C      1  0.5155150000000  0.5305180000000  0.4103320000000 1.0
C      1  0.4853900000000  0.5298550000000  0.5896020000000 1.0
C      1  0.5902700000000  0.4702370000000  0.5147360000000 1.0
C      1  0.4099270000000  0.4702360000000  0.4853330000000 1.0
C      1  0.4092990000000  0.5306200000000  0.5144560000000 1.0
C      1  0.5898380000000  0.5303920000000  0.4850650000000 1.0
C      1  0.3990930000000  0.5165600000000  0.4696000000000 1.0
C      1  0.5998000000000  0.5171540000000  0.5285130000000 1.0
C      1  0.3993370000000  0.4832810000000  0.5285920000000 1.0
C      1  0.6010020000000  0.4835350000000  0.4716390000000 1.0
C      1  0.4716570000000  0.5170590000000  0.3998620000000 1.0
C      1  0.5284950000000  0.5168400000000  0.6006470000000 1.0
C      1  0.5283140000000  0.4826780000000  0.3995230000000 1.0
C      1  0.4694730000000  0.4834490000000  0.6007810000000 1.0
C      1  0.4761950000000  0.5629320000000  0.4126810000000 1.0
C      1  0.5238310000000  0.5626130000000  0.5871890000000 1.0
C      1  0.4765640000000  0.4374130000000  0.5870830000000 1.0
C      1  0.5236060000000  0.4377860000000  0.4128950000000 1.0
C      1  0.4128450000000  0.5620870000000  0.4764720000000 1.0
C      1  0.5873080000000  0.5630600000000  0.5239660000000 1.0
C      1  0.5872880000000  0.4372300000000  0.4760500000000 1.0
C      1  0.4128760000000  0.4371880000000  0.5236400000000 1.0
C      1  0.5019560000000  0.4360490000000  0.4795690000000 1.0
C      1  0.4980000000000  0.4350190000000  0.5201350000000 1.0
C      1  0.5022020000000  0.5649150000000  0.5202930000000 1.0
C      1  0.4984870000000  0.5640980000000  0.4798020000000 1.0
C      1  0.4792810000000  0.4356510000000  0.5015940000000 1.0
C      1  0.5205950000000  0.4356000000000  0.4984410000000 1.0
C      1  0.5208960000000  0.5643210000000  0.5010820000000 1.0
C      1  0.4791650000000  0.5642610000000  0.4979790000000 1.0
C      1  0.5001030000000  0.5412510000000  0.4610960000000 1.0
C      1  0.5012390000000  0.5426170000000  0.5386670000000 1.0
C      1  0.4993550000000  0.4572290000000  0.5391380000000 1.0
C      1  0.5015080000000  0.4581860000000  0.4603190000000 1.0
C      1  0.4605660000000  0.5420290000000  0.4992690000000 1.0
C      1  0.5391000000000  0.5389820000000  0.4994510000000 1.0
C      1  0.5399600000000  0.4573130000000  0.4993650000000 1.0
C      1  0.4602130000000  0.4577850000000  0.5010430000000 1.0
C      1  0.5564400000000  0.4718200000000  0.5765470000000 1.0
C      1  0.4428220000000  0.4719500000000  0.4232140000000 1.0
C      1  0.5556410000000  0.5282760000000  0.4231550000000 1.0
C      1  0.4442070000000  0.5286960000000  0.5759540000000 1.0
C      1  0.5766840000000  0.4710870000000  0.5566020000000 1.0
C      1  0.4237710000000  0.4712890000000  0.4436750000000 1.0
C      1  0.4235560000000  0.5282500000000  0.5568220000000 1.0
C      1  0.5751270000000  0.5288480000000  0.4433680000000 1.0
C      1  0.4214180000000  0.5573040000000  0.5574080000000 1.0
C      1  0.5773350000000  0.5576140000000  0.4428330000000 1.0
C      1  0.4218350000000  0.4428520000000  0.4415080000000 1.0
C      1  0.5775570000000  0.4425810000000  0.5585100000000 1.0
C      1  0.5565990000000  0.5570720000000  0.4215580000000 1.0
C      1  0.4421830000000  0.5571910000000  0.5779890000000 1.0
C      1  0.4422990000000  0.4430220000000  0.4209530000000 1.0
C      1  0.5572340000000  0.4428060000000  0.5790770000000 1.0
C      1  0.5126850000000  0.4938930000000  0.6056100000000 1.0
C      1  0.4870630000000  0.4942470000000  0.3945730000000 1.0
C      1  0.5133740000000  0.5062230000000  0.3944130000000 1.0
C      1  0.4865980000000  0.5060370000000  0.6048360000000 1.0
C      1  0.6055460000000  0.4943090000000  0.5131970000000 1.0
C      1  0.3949560000000  0.4941630000000  0.4867530000000 1.0
C      1  0.3945260000000  0.5061700000000  0.5128540000000 1.0
C      1  0.6055950000000  0.5065380000000  0.4871330000000 1.0
C      1  0.4506460000000  0.5607770000000  0.4297360000000 1.0
C      1  0.5496860000000  0.5636360000000  0.5711470000000 1.0
C      1  0.4505610000000  0.4390710000000  0.5704410000000 1.0
C      1  0.5494660000000  0.4370340000000  0.4288280000000 1.0
C      1  0.4289790000000  0.5628200000000  0.4506330000000 1.0
C      1  0.5699850000000  0.5600440000000  0.5491150000000 1.0
C      1  0.5701430000000  0.4395290000000  0.4505250000000 1.0
C      1  0.4291860000000  0.4369840000000  0.5496580000000 1.0
C      1  0.4200000000000  0.5753430000000  0.5009740000000 1.0
C      1  0.5801620000000  0.5756410000000  0.4989900000000 1.0
C      1  0.4202100000000  0.4242350000000  0.4992090000000 1.0
C      1  0.5793880000000  0.4242560000000  0.5004150000000 1.0
C      1  0.5016650000000  0.5751240000000  0.4194910000000 1.0
C      1  0.4991640000000  0.5755050000000  0.5797850000000 1.0
C      1  0.4993050000000  0.4245210000000  0.4205070000000 1.0
C      1  0.5010790000000  0.4242620000000  0.5798730000000 1.0
C      1  0.4775910000000  0.5049190000000  0.5439110000000 1.0
C      1  0.5253020000000  0.5055260000000  0.4580130000000 1.0
C      1  0.4764370000000  0.4945410000000  0.4562080000000 1.0
C      1  0.5230750000000  0.4947300000000  0.5441510000000 1.0
C      1  0.5451740000000  0.5053360000000  0.4775120000000 1.0
C      1  0.4567690000000  0.5053460000000  0.5246190000000 1.0
C      1  0.4560540000000  0.4940490000000  0.4766060000000 1.0
C      1  0.5440770000000  0.4944150000000  0.5239930000000 1.0
C      1  0.4763640000000  0.4819550000000  0.4963770000000 1.0
C      1  0.5264390000000  0.4817520000000  0.5047290000000 1.0
C      1  0.4736430000000  0.5188270000000  0.5061990000000 1.0
C      1  0.5164350000000  0.5196060000000  0.4993630000000 1.0
C      1  0.4956230000000  0.4827490000000  0.4743990000000 1.0
C      1  0.5053170000000  0.4808340000000  0.5238220000000 1.0
C      1  0.5055240000000  0.5174410000000  0.4741730000000 1.0
C      1  0.4958750000000  0.5209760000000  0.5212210000000 1.0
C      1  0.4674030000000  0.5708800000000  0.4503060000000 1.0
C      1  0.5328180000000  0.5721010000000  0.5501520000000 1.0
C      1  0.4676550000000  0.4299870000000  0.5495330000000 1.0
C      1  0.5321170000000  0.4284200000000  0.4499540000000 1.0
C      1  0.4497880000000  0.5716520000000  0.4672440000000 1.0
C      1  0.5494140000000  0.5696490000000  0.5319100000000 1.0
C      1  0.5499470000000  0.4286060000000  0.4670920000000 1.0
C      1  0.4502150000000  0.4288680000000  0.5326880000000 1.0
C      1  0.5270830000000  0.5510590000000  0.4524480000000 1.0
C      1  0.4748190000000  0.5515520000000  0.5496260000000 1.0
C      1  0.5263610000000  0.4482410000000  0.5496950000000 1.0
C      1  0.4742180000000  0.4489720000000  0.4502610000000 1.0
C      1  0.4501240000000  0.5512940000000  0.5264610000000 1.0
C      1  0.5490780000000  0.5508910000000  0.4735160000000 1.0
C      1  0.5503040000000  0.4477990000000  0.5252290000000 1.0
C      1  0.4498040000000  0.4482730000000  0.4747570000000 1.0
C      1  0.5800320000000  0.4448810000000  0.5262340000000 1.0
C      1  0.4198770000000  0.4449570000000  0.4737380000000 1.0
C      1  0.5816110000000  0.5560760000000  0.4727940000000 1.0
C      1  0.4174550000000  0.5562990000000  0.5270790000000 1.0
C      1  0.5268220000000  0.4440220000000  0.5821760000000 1.0
C      1  0.4729900000000  0.4445640000000  0.4188190000000 1.0
C      1  0.4738870000000  0.5554860000000  0.5808070000000 1.0
C      1  0.5264650000000  0.5572680000000  0.4149280000000 1.0
C      1  0.4082990000000  0.5369000000000  0.4876220000000 1.0
C      1  0.5900170000000  0.5373960000000  0.5119060000000 1.0
C      1  0.4089780000000  0.4627170000000  0.5120540000000 1.0
C      1  0.5913680000000  0.4629730000000  0.4880040000000 1.0
C      1  0.4881490000000  0.5372940000000  0.4103070000000 1.0
C      1  0.5120600000000  0.5370790000000  0.5901570000000 1.0
C      1  0.5119130000000  0.4628350000000  0.4081770000000 1.0
C      1  0.4875400000000  0.4629540000000  0.5915980000000 1.0
C      1  0.4368490000000  0.5021900000000  0.5855530000000 1.0
C      1  0.5643960000000  0.5019650000000  0.4148650000000 1.0
C      1  0.4337390000000  0.4991630000000  0.4150450000000 1.0
C      1  0.5649200000000  0.4989100000000  0.5856050000000 1.0
C      1  0.5854450000000  0.5017870000000  0.4348910000000 1.0
C      1  0.4152010000000  0.5010050000000  0.5656590000000 1.0
C      1  0.4142500000000  0.4978740000000  0.4369850000000 1.0
C      1  0.5853900000000  0.4974980000000  0.5652510000000 1.0
C      1  0.5042910000000  0.4097380000000  0.5333160000000 1.0
C      1  0.4957500000000  0.4101540000000  0.4668100000000 1.0
C      1  0.5045690000000  0.5898330000000  0.4665550000000 1.0
C      1  0.4956490000000  0.5904590000000  0.5332240000000 1.0
C      1  0.5330050000000  0.4096310000000  0.5040850000000 1.0
C      1  0.4668400000000  0.4098700000000  0.4957650000000 1.0
C      1  0.4664950000000  0.5900700000000  0.5044530000000 1.0
C      1  0.5335980000000  0.5904440000000  0.4955980000000 1.0
C      1  0.4722440000000  0.4173880000000  0.4511780000000 1.0
C      1  0.5279380000000  0.4170900000000  0.5488800000000 1.0
C      1  0.4720350000000  0.5833070000000  0.5490340000000 1.0
C      1  0.5284240000000  0.5822740000000  0.4511030000000 1.0
C      1  0.4509670000000  0.4166410000000  0.4720060000000 1.0
C      1  0.5489530000000  0.4161270000000  0.5277550000000 1.0
C      1  0.5493050000000  0.5834840000000  0.4721600000000 1.0
C      1  0.4508180000000  0.5827910000000  0.5280860000000 1.0
C      1  0.4219940000000  0.4816900000000  0.5453360000000 1.0
C      1  0.5788800000000  0.4822730000000  0.4548560000000 1.0
C      1  0.4229530000000  0.5176640000000  0.4553960000000 1.0
C      1  0.5780670000000  0.5166900000000  0.5453910000000 1.0
C      1  0.5450760000000  0.4819090000000  0.4220480000000 1.0
C      1  0.4552020000000  0.4823160000000  0.5770700000000 1.0
C      1  0.4545300000000  0.5177130000000  0.4219760000000 1.0
C      1  0.5454680000000  0.5184040000000  0.5782530000000 1.0
C      1  0.4486320000000  0.5226760000000  0.4698230000000 1.0
C      1  0.5526690000000  0.5215410000000  0.5308060000000 1.0
C      1  0.4475210000000  0.4772120000000  0.5298400000000 1.0
C      1  0.5531050000000  0.4784400000000  0.4702470000000 1.0
C      1  0.4705350000000  0.5222830000000  0.4472880000000 1.0
C      1  0.5302280000000  0.5228030000000  0.5519250000000 1.0
C      1  0.5305630000000  0.4777240000000  0.4481280000000 1.0
C      1  0.4700970000000  0.4776440000000  0.5517320000000 1.0
C      1  0.4890450000000  0.5883850000000  0.4425630000000 1.0
C      1  0.5113050000000  0.5890960000000  0.5571670000000 1.0
C      1  0.4884710000000  0.4112240000000  0.5571790000000 1.0
C      1  0.5114210000000  0.4104920000000  0.4427110000000 1.0
C      1  0.4425420000000  0.5888940000000  0.4888210000000 1.0
C      1  0.5575050000000  0.5886160000000  0.5116930000000 1.0
C      1  0.5570100000000  0.4104270000000  0.4882200000000 1.0
C      1  0.4427740000000  0.4106450000000  0.5114670000000 1.0
END
