TITL C-2441158-471-432 -5.22399844833587e-06 125000 -6481.62854605062 0 0 45 (C1) n - 1
REM
REM in /home/bkarasulu/work/CARBON/AIRSS/Generating-Clusters/ReaxFF-fromJPCA2015/Units_Real/with-SteepDescent/Higher-Symm
REM
REM
REM
REM
REM
REM ./C.cell (1df0a924f5614ab8850e4351716899ee)
REM
REM compiler GCC version 9.2.1 20190827 (Red Hat 9.2.1-1)
REM options -cpp -mtune=generic -march=x86-64 -g -O0 -fpre-include=/usr/include/finclude/math-vector-fortran.h
REM seed 98746867 -1286966523 -1005943413 84449211 -113650315 435231362 776962139 -433188228 -1040271021 1344022362 1873100235 -898214361 1779754389 76053173 814964953 -1771762783 681499021 -1888985410 -1717952790 -1636609531 -1026026188 895423623 -1487706221 -1697587484 -441653202 796883714 1697461185 147747750 -34422430 971511578 2067734559 118127693 2082999351
REM
CELL 1.54180   50.00000   50.00000   50.00000   90.00000   90.00000   90.00000
LATT -1
SFAC C  
C      1  0.5378990000000  0.4834230000000  0.5406240000000 1.0
C      1  0.5381100000000  0.5341280000000  0.5273600000000 1.0
C      1  0.5375150000000  0.5363080000000  0.4767760000000 1.0
C      1  0.5387830000000  0.4888130000000  0.4561820000000 1.0
C      1  0.5378040000000  0.4569270000000  0.4978440000000 1.0
C      1  0.4587420000000  0.4843490000000  0.4602360000000 1.0
C      1  0.4575010000000  0.5346520000000  0.4715440000000 1.0
C      1  0.4583050000000  0.5363820000000  0.5238190000000 1.0
C      1  0.4580980000000  0.4894730000000  0.5421970000000 1.0
C      1  0.4578460000000  0.4558270000000  0.5021960000000 1.0
C      1  0.4907780000000  0.5488390000000  0.4486410000000 1.0
C      1  0.4906400000000  0.4656080000000  0.4384420000000 1.0
C      1  0.4899840000000  0.4297630000000  0.5126980000000 1.0
C      1  0.4907840000000  0.4915060000000  0.5699550000000 1.0
C      1  0.4900490000000  0.5640080000000  0.5310550000000 1.0
C      1  0.5061450000000  0.5491140000000  0.5514880000000 1.0
C      1  0.5048580000000  0.4658670000000  0.5617810000000 1.0
C      1  0.5061550000000  0.4301550000000  0.4874530000000 1.0
C      1  0.5053840000000  0.4905540000000  0.4296440000000 1.0
C      1  0.5054130000000  0.5640970000000  0.4703810000000 1.0
C      1  0.5266470000000  0.4682450000000  0.4732220000000 1.0
C      1  0.5233210000000  0.4669500000000  0.5213150000000 1.0
C      1  0.5271320000000  0.5106880000000  0.5411890000000 1.0
C      1  0.5235350000000  0.5390410000000  0.5023690000000 1.0
C      1  0.5257510000000  0.5147620000000  0.4607010000000 1.0
C      1  0.4688440000000  0.4666660000000  0.5271530000000 1.0
C      1  0.4723910000000  0.4666330000000  0.4791350000000 1.0
C      1  0.4709260000000  0.5110310000000  0.4603840000000 1.0
C      1  0.4692080000000  0.5424180000000  0.4973070000000 1.0
C      1  0.4727840000000  0.5140550000000  0.5361440000000 1.0
C      1  0.4618500000000  0.4876940000000  0.5731550000000 1.0
C      1  0.4617930000000  0.5636260000000  0.5387440000000 1.0
C      1  0.4620820000000  0.5553490000000  0.4486010000000 1.0
C      1  0.4617480000000  0.4680780000000  0.4336580000000 1.0
C      1  0.4616670000000  0.4250730000000  0.5062660000000 1.0
C      1  0.5339080000000  0.4849630000000  0.4256570000000 1.0
C      1  0.5342970000000  0.5651370000000  0.4651720000000 1.0
C      1  0.5345300000000  0.5564440000000  0.5489510000000 1.0
C      1  0.5337750000000  0.4672340000000  0.5670340000000 1.0
C      1  0.5346040000000  0.4261390000000  0.4933130000000 1.0
C      1  0.4981190000000  0.5169340000000  0.4479040000000 1.0
C      1  0.4991090000000  0.4560190000000  0.4684750000000 1.0
C      1  0.4991770000000  0.5169840000000  0.5515450000000 1.0
C      1  0.4967710000000  0.4556280000000  0.5319370000000 1.0
C      1  0.4970020000000  0.5544100000000  0.5003520000000 1.0
END
