TITL C-2441165-58-214 0.178089157018528 125000 -22399.2223570229 0 0 185 (C1) n - 1
REM
REM in /home/bkarasulu/work/CARBON/AIRSS/Generating-Clusters/ReaxFF-fromJPCA2015/Units_Real/with-SteepDescent/Higher-Symm
REM
REM
REM
REM
REM
REM ./C.cell (1df0a924f5614ab8850e4351716899ee)
REM
REM compiler GCC version 9.2.1 20190827 (Red Hat 9.2.1-1)
REM options -cpp -mtune=generic -march=x86-64 -g -O0 -fpre-include=/usr/include/finclude/math-vector-fortran.h
REM seed 1639749408 -963027401 699766052 -14590737 308780653 865270892 432090463 -535228849 1516884354 -1441575977 -1283299605 -2044836735 -1263373131 -117580188 1928025017 -2064414456 1128968068 -511218559 -639786975 1003660865 539728867 2146953423 111161937 -1642069205 -1412711529 -378707076 221712868 1481292897 444862841 -1845660438 -1361630330 -397605480 -275786137
REM
CELL 1.54180   50.00000   50.00000   50.00000   90.00000   90.00000   90.00000
LATT -1
SFAC C  
C      1  0.5617320000000  0.5159090000000  0.4732870000000 1.0
C      1  0.4621790000000  0.5400890000000  0.4645530000000 1.0
C      1  0.4818650000000  0.4402640000000  0.4728190000000 1.0
C      1  0.4810550000000  0.4540010000000  0.4130980000000 1.0
C      1  0.5495580000000  0.5090900000000  0.4089570000000 1.0
C      1  0.4681450000000  0.5389360000000  0.4080580000000 1.0
C      1  0.4792060000000  0.5078380000000  0.4824740000000 1.0
C      1  0.5077340000000  0.4834840000000  0.4817330000000 1.0
C      1  0.5072440000000  0.5121730000000  0.4830970000000 1.0
C      1  0.5444300000000  0.5208250000000  0.5471940000000 1.0
C      1  0.4549950000000  0.5230400000000  0.5414440000000 1.0
C      1  0.4954340000000  0.4488430000000  0.5429980000000 1.0
C      1  0.5664490000000  0.4939120000000  0.5833970000000 1.0
C      1  0.4704870000000  0.5604010000000  0.5823830000000 1.0
C      1  0.4616070000000  0.4457170000000  0.5826660000000 1.0
C      1  0.5957800000000  0.4461780000000  0.5317760000000 1.0
C      1  0.4981380000000  0.6092900000000  0.5340380000000 1.0
C      1  0.4057510000000  0.4463520000000  0.5353870000000 1.0
C      1  0.4997900000000  0.5258380000000  0.5380340000000 1.0
C      1  0.4800870000000  0.4873190000000  0.5416920000000 1.0
C      1  0.5215730000000  0.4883760000000  0.5422840000000 1.0
C      1  0.5527920000000  0.5582770000000  0.5729380000000 1.0
C      1  0.4234300000000  0.5150770000000  0.5729940000000 1.0
C      1  0.5254170000000  0.4255420000000  0.5724500000000 1.0
C      1  0.5123080000000  0.5508500000000  0.4097580000000 1.0
C      1  0.4458950000000  0.4849000000000  0.4102280000000 1.0
C      1  0.5382370000000  0.4642820000000  0.4102840000000 1.0
C      1  0.4710470000000  0.4204000000000  0.5703680000000 1.0
C      1  0.5828380000000  0.5138720000000  0.5698750000000 1.0
C      1  0.4429660000000  0.5650940000000  0.5688320000000 1.0
C      1  0.4137730000000  0.5515570000000  0.5343460000000 1.0
C      1  0.5003170000000  0.4026900000000  0.5335280000000 1.0
C      1  0.5842840000000  0.5498560000000  0.5333220000000 1.0
C      1  0.5378920000000  0.4642510000000  0.5114270000000 1.0
C      1  0.5162590000000  0.5529610000000  0.5095220000000 1.0
C      1  0.4458510000000  0.4861730000000  0.5075220000000 1.0
C      1  0.5989420000000  0.4862080000000  0.4657090000000 1.0
C      1  0.4679800000000  0.5926440000000  0.4668130000000 1.0
C      1  0.4462810000000  0.4238580000000  0.4530120000000 1.0
C      1  0.4411030000000  0.5915400000000  0.5257820000000 1.0
C      1  0.4507910000000  0.4055110000000  0.5252290000000 1.0
C      1  0.6070180000000  0.5061270000000  0.5259060000000 1.0
C      1  0.5894050000000  0.4896720000000  0.5093080000000 1.0
C      1  0.4647520000000  0.5815020000000  0.5100830000000 1.0
C      1  0.4447360000000  0.4294940000000  0.5052090000000 1.0
C      1  0.4347470000000  0.5307880000000  0.4749430000000 1.0
C      1  0.5072260000000  0.4296570000000  0.4772100000000 1.0
C      1  0.5580860000000  0.5426540000000  0.4774140000000 1.0
C      1  0.4062200000000  0.4572370000000  0.5076140000000 1.0
C      1  0.5844030000000  0.4436920000000  0.5047190000000 1.0
C      1  0.5074820000000  0.6010830000000  0.5078120000000 1.0
C      1  0.3927700000000  0.4786400000000  0.4722730000000 1.0
C      1  0.5691310000000  0.4146300000000  0.4739810000000 1.0
C      1  0.5386770000000  0.6009650000000  0.4738540000000 1.0
C      1  0.5940950000000  0.5294930000000  0.5154430000000 1.0
C      1  0.4253860000000  0.5702130000000  0.5149790000000 1.0
C      1  0.4772840000000  0.4046390000000  0.5157150000000 1.0
C      1  0.4588250000000  0.5320260000000  0.5149990000000 1.0
C      1  0.4919260000000  0.4548760000000  0.5113650000000 1.0
C      1  0.5434390000000  0.5146090000000  0.5089950000000 1.0
C      1  0.4631850000000  0.4946600000000  0.4618370000000 1.0
C      1  0.5220290000000  0.4718750000000  0.4604980000000 1.0
C      1  0.5137700000000  0.5346760000000  0.4629100000000 1.0
C      1  0.4030090000000  0.5360010000000  0.5102910000000 1.0
C      1  0.5193180000000  0.3938890000000  0.5118700000000 1.0
C      1  0.5824920000000  0.5693480000000  0.5113280000000 1.0
C      1  0.4869660000000  0.5488660000000  0.4727410000000 1.0
C      1  0.4666590000000  0.4640090000000  0.4706520000000 1.0
C      1  0.5465530000000  0.4927620000000  0.4683060000000 1.0
C      1  0.4787840000000  0.5302910000000  0.5544250000000 1.0
C      1  0.4923650000000  0.4711680000000  0.5604990000000 1.0
C      1  0.5266960000000  0.5051580000000  0.5633780000000 1.0
C      1  0.5386350000000  0.5393570000000  0.5885890000000 1.0
C      1  0.4470590000000  0.5144130000000  0.5892120000000 1.0
C      1  0.5168890000000  0.4480510000000  0.5871910000000 1.0
C      1  0.4531850000000  0.4951620000000  0.5478640000000 1.0
C      1  0.5289270000000  0.4607020000000  0.5413640000000 1.0
C      1  0.5223190000000  0.5434920000000  0.5416390000000 1.0
C      1  0.5353040000000  0.5744870000000  0.4854980000000 1.0
C      1  0.4172170000000  0.4921150000000  0.4818220000000 1.0
C      1  0.5462710000000  0.4291550000000  0.4822250000000 1.0
C      1  0.4408010000000  0.5824840000000  0.4702670000000 1.0
C      1  0.4607560000000  0.4036430000000  0.4668600000000 1.0
C      1  0.6040110000000  0.5140720000000  0.4680630000000 1.0
C      1  0.4276970000000  0.4343510000000  0.5499120000000 1.0
C      1  0.5945290000000  0.4697180000000  0.5495990000000 1.0
C      1  0.4774400000000  0.5964360000000  0.5496190000000 1.0
C      1  0.3942600000000  0.5080550000000  0.5140330000000 1.0
C      1  0.5381510000000  0.4114900000000  0.5193860000000 1.0
C      1  0.5591810000000  0.5793530000000  0.5194250000000 1.0
C      1  0.5145050000000  0.4991190000000  0.6063900000000 1.0
C      1  0.4922460000000  0.5154300000000  0.6039500000000 1.0
C      1  0.4883370000000  0.4879650000000  0.6045810000000 1.0
C      1  0.5201880000000  0.5244400000000  0.5039600000000 1.0
C      1  0.4657280000000  0.5072490000000  0.5042320000000 1.0
C      1  0.5113420000000  0.4695840000000  0.5029560000000 1.0
C      1  0.4979840000000  0.5160810000000  0.3795490000000 1.0
C      1  0.4855840000000  0.4898250000000  0.3804830000000 1.0
C      1  0.5139170000000  0.4940000000000  0.3793360000000 1.0
C      1  0.4080560000000  0.5461590000000  0.4763690000000 1.0
C      1  0.5133840000000  0.3969980000000  0.4796290000000 1.0
C      1  0.5824000000000  0.5641410000000  0.4793060000000 1.0
C      1  0.5815420000000  0.4392690000000  0.4628810000000 1.0
C      1  0.5136070000000  0.5999770000000  0.4597150000000 1.0
C      1  0.4093810000000  0.4557150000000  0.4655850000000 1.0
C      1  0.5428460000000  0.4006840000000  0.4781840000000 1.0
C      1  0.5623490000000  0.5856400000000  0.4783900000000 1.0
C      1  0.3908200000000  0.5034700000000  0.4864850000000 1.0
C      1  0.5603910000000  0.5491500000000  0.4279450000000 1.0
C      1  0.4276750000000  0.5282340000000  0.4286330000000 1.0
C      1  0.5135390000000  0.4246330000000  0.4275420000000 1.0
C      1  0.5749500000000  0.5431160000000  0.5613010000000 1.0
C      1  0.4243300000000  0.5436210000000  0.5605810000000 1.0
C      1  0.5005700000000  0.4135300000000  0.5614980000000 1.0
C      1  0.4360290000000  0.5557930000000  0.4343410000000 1.0
C      1  0.4885230000000  0.4151820000000  0.4374130000000 1.0
C      1  0.5798540000000  0.5284550000000  0.4359040000000 1.0
C      1  0.4943470000000  0.5677370000000  0.4244020000000 1.0
C      1  0.4418340000000  0.4606660000000  0.4252250000000 1.0
C      1  0.5616570000000  0.4712000000000  0.4254050000000 1.0
C      1  0.4316900000000  0.5291400000000  0.5035760000000 1.0
C      1  0.5057870000000  0.4312260000000  0.5056310000000 1.0
C      1  0.5557160000000  0.5393030000000  0.5064770000000 1.0
C      1  0.5561440000000  0.4367080000000  0.5688240000000 1.0
C      1  0.5288370000000  0.5827150000000  0.5696190000000 1.0
C      1  0.4179240000000  0.4851300000000  0.5698700000000 1.0
C      1  0.4677060000000  0.4477600000000  0.5410930000000 1.0
C      1  0.5586280000000  0.4985210000000  0.5410120000000 1.0
C      1  0.4778320000000  0.5558800000000  0.5547440000000 1.0
C      1  0.4450650000000  0.4467290000000  0.5300910000000 1.0
C      1  0.5729420000000  0.4790300000000  0.5314350000000 1.0
C      1  0.4812220000000  0.5726150000000  0.5337070000000 1.0
C      1  0.5140600000000  0.5448120000000  0.5737820000000 1.0
C      1  0.4573640000000  0.4885250000000  0.5793500000000 1.0
C      1  0.5325180000000  0.4686760000000  0.5735370000000 1.0
C      1  0.4935610000000  0.5344890000000  0.3988730000000 1.0
C      1  0.4715380000000  0.4770220000000  0.4018050000000 1.0
C      1  0.5334970000000  0.4891440000000  0.3978610000000 1.0
C      1  0.4396420000000  0.4657110000000  0.5817640000000 1.0
C      1  0.5604080000000  0.4645520000000  0.5805400000000 1.0
C      1  0.5051340000000  0.5711800000000  0.5802170000000 1.0
C      1  0.4194870000000  0.5012570000000  0.4374660000000 1.0
C      1  0.5382570000000  0.4295880000000  0.4408570000000 1.0
C      1  0.5430280000000  0.5674210000000  0.4406070000000 1.0
C      1  0.5347330000000  0.5551050000000  0.4658230000000 1.0
C      1  0.4336470000000  0.5025780000000  0.4634920000000 1.0
C      1  0.5296860000000  0.4430410000000  0.4655130000000 1.0
C      1  0.5037540000000  0.4746940000000  0.4392500000000 1.0
C      1  0.5234430000000  0.5158450000000  0.4433600000000 1.0
C      1  0.4721330000000  0.5154580000000  0.4437910000000 1.0
C      1  0.4875970000000  0.4623420000000  0.5881120000000 1.0
C      1  0.5394050000000  0.5075990000000  0.5912920000000 1.0
C      1  0.4711580000000  0.5315390000000  0.5925040000000 1.0
C      1  0.4192650000000  0.5644940000000  0.4573870000000 1.0
C      1  0.4892030000000  0.3978950000000  0.4594140000000 1.0
C      1  0.5936010000000  0.5395900000000  0.4584940000000 1.0
C      1  0.4473850000000  0.4128380000000  0.5531220000000 1.0
C      1  0.6019450000000  0.4979660000000  0.5536390000000 1.0
C      1  0.4488120000000  0.5896970000000  0.5539470000000 1.0
C      1  0.4648030000000  0.5615240000000  0.4242210000000 1.0
C      1  0.4618540000000  0.4376830000000  0.4289770000000 1.0
C      1  0.5696530000000  0.5000940000000  0.4256100000000 1.0
C      1  0.5628160000000  0.4456590000000  0.4395180000000 1.0
C      1  0.5165970000000  0.5806120000000  0.4381070000000 1.0
C      1  0.4219660000000  0.4715690000000  0.4410560000000 1.0
C      1  0.5594850000000  0.4302770000000  0.5194230000000 1.0
C      1  0.5342230000000  0.5930410000000  0.5211450000000 1.0
C      1  0.4126790000000  0.4859960000000  0.5206100000000 1.0
C      1  0.4226030000000  0.4438640000000  0.4885080000000 1.0
C      1  0.5858900000000  0.4623920000000  0.4801820000000 1.0
C      1  0.4941410000000  0.5956660000000  0.4807390000000 1.0
C      1  0.5818200000000  0.5135090000000  0.4932640000000 1.0
C      1  0.4482880000000  0.5650990000000  0.4926080000000 1.0
C      1  0.4700020000000  0.4224490000000  0.4918150000000 1.0
C      1  0.5732890000000  0.4310770000000  0.5460360000000 1.0
C      1  0.5231220000000  0.5997730000000  0.5464890000000 1.0
C      1  0.4060130000000  0.4732460000000  0.5463660000000 1.0
C      1  0.5093320000000  0.4536610000000  0.4183510000000 1.0
C      1  0.5362310000000  0.5324900000000  0.4207500000000 1.0
C      1  0.4532060000000  0.5161170000000  0.4196390000000 1.0
C      1  0.4648800000000  0.4660070000000  0.4991220000000 1.0
C      1  0.5474190000000  0.4879840000000  0.4975250000000 1.0
C      1  0.4880270000000  0.5496760000000  0.5016470000000 1.0
C      1  0.5016390000000  0.5009810000000  0.5276290000000 1.0
C      1  0.4987650000000  0.5030560000000  0.4365070000000 1.0
END
