TITL C-2441164-471-1010 0.0592524552247462 125000 -26705.2880090988 0 0 186 (C1) n - 1
REM
REM in /home/bkarasulu/work/CARBON/AIRSS/Generating-Clusters/ReaxFF-fromJPCA2015/Units_Real/with-SteepDescent/Higher-Symm
REM
REM
REM
REM
REM
REM ./C.cell (1df0a924f5614ab8850e4351716899ee)
REM
REM compiler GCC version 9.2.1 20190827 (Red Hat 9.2.1-1)
REM options -cpp -mtune=generic -march=x86-64 -g -O0 -fpre-include=/usr/include/finclude/math-vector-fortran.h
REM seed 2193183 -1818676400 -73194679 -423868588 76112005 983774497 -294929845 545962458 -13814888 654819021 -118654399 583738887 172927826 1697122326 1452533254 -1102532991 1279411064 -85407082 -657787552 1456649390 345587338 1046786030 148524127 -977548052 1306781962 -337441695 -1161782358 -446261923 802749881 175327034 855148662 -598337591 610226244
REM
CELL 1.54180   50.00000   50.00000   50.00000   90.00000   90.00000   90.00000
LATT -1
SFAC C  
C      1  0.5066460000000  0.4719690000000  0.5856820000000 1.0
C      1  0.4096470000000  0.4705520000000  0.5039730000000 1.0
C      1  0.4932910000000  0.4694180000000  0.4115750000000 1.0
C      1  0.6036480000000  0.4740920000000  0.5061310000000 1.0
C      1  0.4952890000000  0.5260800000000  0.6042280000000 1.0
C      1  0.3963740000000  0.5256130000000  0.4966050000000 1.0
C      1  0.4910000000000  0.5240460000000  0.4139720000000 1.0
C      1  0.5912490000000  0.5263350000000  0.4925800000000 1.0
C      1  0.5523720000000  0.4383690000000  0.4737950000000 1.0
C      1  0.5263760000000  0.4456390000000  0.5445080000000 1.0
C      1  0.4471330000000  0.4395730000000  0.5304040000000 1.0
C      1  0.4756570000000  0.4440130000000  0.4605940000000 1.0
C      1  0.5579710000000  0.5577500000000  0.4731250000000 1.0
C      1  0.5307260000000  0.5536430000000  0.5512550000000 1.0
C      1  0.4610470000000  0.5569380000000  0.5254050000000 1.0
C      1  0.4698360000000  0.5582990000000  0.4364720000000 1.0
C      1  0.4765490000000  0.4435600000000  0.5388600000000 1.0
C      1  0.4776430000000  0.4474450000000  0.4896250000000 1.0
C      1  0.5243300000000  0.4481000000000  0.4728750000000 1.0
C      1  0.5294150000000  0.4460570000000  0.5147590000000 1.0
C      1  0.4894900000000  0.5520420000000  0.5254770000000 1.0
C      1  0.4756390000000  0.5510540000000  0.4863020000000 1.0
C      1  0.5262020000000  0.5458830000000  0.4781350000000 1.0
C      1  0.5440230000000  0.5548630000000  0.5214160000000 1.0
C      1  0.5148140000000  0.4638110000000  0.4513370000000 1.0
C      1  0.5550170000000  0.4654940000000  0.5047860000000 1.0
C      1  0.4901140000000  0.4668350000000  0.5488190000000 1.0
C      1  0.4569960000000  0.4680950000000  0.4941760000000 1.0
C      1  0.5230210000000  0.5400880000000  0.4500970000000 1.0
C      1  0.5539950000000  0.5307090000000  0.5086570000000 1.0
C      1  0.4917170000000  0.5342770000000  0.5549200000000 1.0
C      1  0.4507820000000  0.5433580000000  0.4769550000000 1.0
C      1  0.5283580000000  0.4868060000000  0.4438300000000 1.0
C      1  0.5511400000000  0.4851400000000  0.5247500000000 1.0
C      1  0.4751220000000  0.4891450000000  0.5448290000000 1.0
C      1  0.4545320000000  0.4884480000000  0.4716550000000 1.0
C      1  0.5157040000000  0.5129070000000  0.4457350000000 1.0
C      1  0.5427700000000  0.5098940000000  0.5220620000000 1.0
C      1  0.4686480000000  0.5124410000000  0.5597610000000 1.0
C      1  0.4487390000000  0.5150900000000  0.4840310000000 1.0
C      1  0.5114590000000  0.3857850000000  0.4840920000000 1.0
C      1  0.5135040000000  0.3865010000000  0.5142740000000 1.0
C      1  0.4839130000000  0.3842920000000  0.5156040000000 1.0
C      1  0.4819130000000  0.3869240000000  0.4853210000000 1.0
C      1  0.5126200000000  0.6163260000000  0.4846710000000 1.0
C      1  0.5158350000000  0.6164450000000  0.5143730000000 1.0
C      1  0.4861900000000  0.6174760000000  0.5173960000000 1.0
C      1  0.4832230000000  0.6169590000000  0.4875950000000 1.0
C      1  0.5902930000000  0.5078350000000  0.4338170000000 1.0
C      1  0.5625190000000  0.5056810000000  0.5885850000000 1.0
C      1  0.4146600000000  0.5209690000000  0.5637780000000 1.0
C      1  0.4370450000000  0.5061810000000  0.4092380000000 1.0
C      1  0.5885440000000  0.4777680000000  0.4324580000000 1.0
C      1  0.5676940000000  0.4762600000000  0.5909270000000 1.0
C      1  0.4143290000000  0.4833350000000  0.5594280000000 1.0
C      1  0.4401130000000  0.4764340000000  0.4146370000000 1.0
C      1  0.5128640000000  0.5404830000000  0.4078240000000 1.0
C      1  0.5959070000000  0.5435890000000  0.5165230000000 1.0
C      1  0.4914010000000  0.5465730000000  0.5827610000000 1.0
C      1  0.4078880000000  0.5512680000000  0.5018130000000 1.0
C      1  0.5179860000000  0.4547280000000  0.4065800000000 1.0
C      1  0.5828490000000  0.4526580000000  0.5078260000000 1.0
C      1  0.4850100000000  0.4554940000000  0.5958250000000 1.0
C      1  0.4056160000000  0.4569410000000  0.4791810000000 1.0
C      1  0.5653780000000  0.5690610000000  0.5768980000000 1.0
C      1  0.4279020000000  0.5640710000000  0.5497720000000 1.0
C      1  0.4283460000000  0.5650860000000  0.4257190000000 1.0
C      1  0.5756760000000  0.5669970000000  0.4332240000000 1.0
C      1  0.5565160000000  0.4288210000000  0.5685010000000 1.0
C      1  0.4239350000000  0.4376080000000  0.5713010000000 1.0
C      1  0.4435430000000  0.4281220000000  0.4280460000000 1.0
C      1  0.5761220000000  0.4297830000000  0.4418230000000 1.0
C      1  0.5579910000000  0.4349980000000  0.4210580000000 1.0
C      1  0.5800500000000  0.4351000000000  0.5551840000000 1.0
C      1  0.4502130000000  0.4329510000000  0.5777940000000 1.0
C      1  0.4199010000000  0.4341610000000  0.4412870000000 1.0
C      1  0.5500170000000  0.5710110000000  0.4209720000000 1.0
C      1  0.5829150000000  0.5749270000000  0.5518340000000 1.0
C      1  0.4440950000000  0.5614760000000  0.5723980000000 1.0
C      1  0.4187870000000  0.5707400000000  0.4524330000000 1.0
C      1  0.4115040000000  0.4784320000000  0.4436800000000 1.0
C      1  0.5425380000000  0.4696950000000  0.4020570000000 1.0
C      1  0.5830770000000  0.4790540000000  0.5500240000000 1.0
C      1  0.4435640000000  0.4815410000000  0.5945260000000 1.0
C      1  0.4153390000000  0.5241540000000  0.4505860000000 1.0
C      1  0.5572930000000  0.5251360000000  0.4167850000000 1.0
C      1  0.5804230000000  0.5256230000000  0.5563980000000 1.0
C      1  0.4524190000000  0.5120840000000  0.5880610000000 1.0
C      1  0.5871120000000  0.5516030000000  0.5687710000000 1.0
C      1  0.4328640000000  0.5355340000000  0.5810770000000 1.0
C      1  0.4091840000000  0.5489690000000  0.4397870000000 1.0
C      1  0.5665960000000  0.5512960000000  0.4120410000000 1.0
C      1  0.5846480000000  0.4604640000000  0.5719330000000 1.0
C      1  0.4234310000000  0.4656410000000  0.5823100000000 1.0
C      1  0.4164190000000  0.4582100000000  0.4239790000000 1.0
C      1  0.5693620000000  0.4617460000000  0.4166350000000 1.0
C      1  0.4079190000000  0.5555550000000  0.5308010000000 1.0
C      1  0.4524410000000  0.5541670000000  0.4137780000000 1.0
C      1  0.5817920000000  0.5518500000000  0.4573370000000 1.0
C      1  0.5428770000000  0.5519010000000  0.5805420000000 1.0
C      1  0.4198300000000  0.4425620000000  0.5422870000000 1.0
C      1  0.4680700000000  0.4315450000000  0.4183490000000 1.0
C      1  0.5821880000000  0.4428680000000  0.4661160000000 1.0
C      1  0.5368470000000  0.4398290000000  0.5838210000000 1.0
C      1  0.4877700000000  0.5858500000000  0.5559540000000 1.0
C      1  0.4455340000000  0.5876700000000  0.4918010000000 1.0
C      1  0.5083510000000  0.5842730000000  0.4471800000000 1.0
C      1  0.5530100000000  0.5812300000000  0.5118100000000 1.0
C      1  0.4869440000000  0.4196680000000  0.5529940000000 1.0
C      1  0.4436770000000  0.4181720000000  0.4843810000000 1.0
C      1  0.5131010000000  0.4168930000000  0.4425510000000 1.0
C      1  0.5500880000000  0.4178160000000  0.5144420000000 1.0
C      1  0.5254710000000  0.5965350000000  0.4671330000000 1.0
C      1  0.5304750000000  0.5959220000000  0.5290380000000 1.0
C      1  0.4719310000000  0.5989510000000  0.5346720000000 1.0
C      1  0.4664350000000  0.5969140000000  0.4743730000000 1.0
C      1  0.5261680000000  0.4038050000000  0.4663170000000 1.0
C      1  0.5301100000000  0.4031150000000  0.5314110000000 1.0
C      1  0.4687920000000  0.4028880000000  0.5317800000000 1.0
C      1  0.4655330000000  0.4053010000000  0.4698610000000 1.0
C      1  0.5625930000000  0.5136280000000  0.4439440000000 1.0
C      1  0.5532950000000  0.5117490000000  0.5609870000000 1.0
C      1  0.4426120000000  0.5154100000000  0.5444010000000 1.0
C      1  0.4401820000000  0.5142150000000  0.4379600000000 1.0
C      1  0.5539900000000  0.4883250000000  0.4541760000000 1.0
C      1  0.5535600000000  0.4844350000000  0.5518190000000 1.0
C      1  0.4340330000000  0.4884700000000  0.5379040000000 1.0
C      1  0.4394620000000  0.4863010000000  0.4440010000000 1.0
C      1  0.5331830000000  0.5205250000000  0.3990730000000 1.0
C      1  0.5983960000000  0.5200720000000  0.5343250000000 1.0
C      1  0.4735320000000  0.5074260000000  0.6088010000000 1.0
C      1  0.4007380000000  0.5105030000000  0.4714220000000 1.0
C      1  0.5312330000000  0.4928330000000  0.3985250000000 1.0
C      1  0.6011010000000  0.4909320000000  0.5298840000000 1.0
C      1  0.4690630000000  0.4775260000000  0.6072160000000 1.0
C      1  0.3961160000000  0.4818190000000  0.4669720000000 1.0
C      1  0.4743640000000  0.5685250000000  0.5752960000000 1.0
C      1  0.4275150000000  0.5652960000000  0.4809590000000 1.0
C      1  0.5225930000000  0.5614300000000  0.4289570000000 1.0
C      1  0.5824500000000  0.5687090000000  0.5237540000000 1.0
C      1  0.4763690000000  0.4303630000000  0.5815690000000 1.0
C      1  0.4228860000000  0.4351970000000  0.4709170000000 1.0
C      1  0.5269880000000  0.4322290000000  0.4229830000000 1.0
C      1  0.5758450000000  0.4317270000000  0.5262370000000 1.0
C      1  0.4723670000000  0.5285710000000  0.4400240000000 1.0
C      1  0.5648740000000  0.5175170000000  0.4847530000000 1.0
C      1  0.5192820000000  0.5257170000000  0.5509890000000 1.0
C      1  0.4478620000000  0.5316390000000  0.5212990000000 1.0
C      1  0.4873600000000  0.4665740000000  0.4477200000000 1.0
C      1  0.5525840000000  0.4889720000000  0.4831750000000 1.0
C      1  0.5177560000000  0.4698150000000  0.5587210000000 1.0
C      1  0.4355180000000  0.4754700000000  0.5128810000000 1.0
C      1  0.5967570000000  0.4679620000000  0.4585630000000 1.0
C      1  0.5439050000000  0.4629970000000  0.6004980000000 1.0
C      1  0.3995240000000  0.4638720000000  0.5430190000000 1.0
C      1  0.4657610000000  0.4602540000000  0.4039390000000 1.0
C      1  0.6008790000000  0.5281360000000  0.4526690000000 1.0
C      1  0.5443510000000  0.5276950000000  0.5975240000000 1.0
C      1  0.3966570000000  0.5300060000000  0.5426510000000 1.0
C      1  0.4522270000000  0.5274950000000  0.3978190000000 1.0
C      1  0.6093630000000  0.4842670000000  0.4793070000000 1.0
C      1  0.5231970000000  0.4834620000000  0.6066910000000 1.0
C      1  0.3893840000000  0.4817520000000  0.5223320000000 1.0
C      1  0.4800120000000  0.4828430000000  0.3909240000000 1.0
C      1  0.6115400000000  0.5134990000000  0.4752960000000 1.0
C      1  0.5214630000000  0.5129510000000  0.6078710000000 1.0
C      1  0.3888950000000  0.5112740000000  0.5217490000000 1.0
C      1  0.4767350000000  0.5115460000000  0.3917290000000 1.0
C      1  0.4501800000000  0.5843590000000  0.5208720000000 1.0
C      1  0.4806010000000  0.5823230000000  0.4511030000000 1.0
C      1  0.5486710000000  0.5835920000000  0.4806950000000 1.0
C      1  0.5160490000000  0.5814350000000  0.5487460000000 1.0
C      1  0.4484040000000  0.4152560000000  0.5146140000000 1.0
C      1  0.4819060000000  0.4200680000000  0.4440500000000 1.0
C      1  0.5479960000000  0.4118780000000  0.4841670000000 1.0
C      1  0.5198550000000  0.4185570000000  0.5545940000000 1.0
C      1  0.4901430000000  0.5131370000000  0.4576910000000 1.0
C      1  0.5175900000000  0.5210980000000  0.4909160000000 1.0
C      1  0.5149070000000  0.5132400000000  0.5234310000000 1.0
C      1  0.4643040000000  0.5142720000000  0.5068290000000 1.0
C      1  0.4801140000000  0.4882360000000  0.4626910000000 1.0
C      1  0.5215090000000  0.4934160000000  0.4879000000000 1.0
C      1  0.5064220000000  0.4874210000000  0.5113610000000 1.0
C      1  0.4778810000000  0.4907440000000  0.5164900000000 1.0
C      1  0.5064310000000  0.4451140000000  0.4954530000000 1.0
C      1  0.4994250000000  0.5568590000000  0.4986260000000 1.0
END
