TITL C-2441163-1170-380 0.220463063513118 125000 -18640.4215418813 0 0 164 (C1) n - 1
REM
REM in /home/bkarasulu/work/CARBON/AIRSS/Generating-Clusters/ReaxFF-fromJPCA2015/Units_Real/with-SteepDescent/Higher-Symm
REM
REM
REM
REM
REM
REM ./C.cell (1df0a924f5614ab8850e4351716899ee)
REM
REM compiler GCC version 9.2.1 20190827 (Red Hat 9.2.1-1)
REM options -cpp -mtune=generic -march=x86-64 -g -O0 -fpre-include=/usr/include/finclude/math-vector-fortran.h
REM seed 353558971 1780079647 679797314 -601275953 590139761 -1816210449 515702996 -2029492128 -1579520244 -1561956064 -1306852018 1237204133 1912290908 1447990487 1501144922 -323348002 -365517574 1989091687 124749728 -585081345 -206324847 -1754561045 1959853379 -410666818 -507955894 -1577526164 493435922 1582335412 -623005578 990151381 1870125085 -1959535818 2146042368
REM
CELL 1.54180   50.00000   50.00000   50.00000   90.00000   90.00000   90.00000
LATT -1
SFAC C  
C      1  0.3978740000000  0.5083590000000  0.4920680000000 1.0
C      1  0.4286980000000  0.4272680000000  0.4966010000000 1.0
C      1  0.5156810000000  0.4019390000000  0.4954990000000 1.0
C      1  0.5893650000000  0.4498690000000  0.4934790000000 1.0
C      1  0.5950470000000  0.5352530000000  0.4975280000000 1.0
C      1  0.5283650000000  0.5956870000000  0.4936570000000 1.0
C      1  0.4433240000000  0.5852950000000  0.4933860000000 1.0
C      1  0.5332900000000  0.5092370000000  0.3953490000000 1.0
C      1  0.5136610000000  0.5317300000000  0.3949320000000 1.0
C      1  0.4841650000000  0.5302890000000  0.3950080000000 1.0
C      1  0.4662870000000  0.5060610000000  0.3934340000000 1.0
C      1  0.4745400000000  0.4774560000000  0.3964110000000 1.0
C      1  0.5021610000000  0.4657600000000  0.3955220000000 1.0
C      1  0.5277490000000  0.4799890000000  0.3943210000000 1.0
C      1  0.5221930000000  0.4342730000000  0.4519380000000 1.0
C      1  0.5674070000000  0.4757970000000  0.4493940000000 1.0
C      1  0.5611280000000  0.5384600000000  0.4494400000000 1.0
C      1  0.5097290000000  0.5694300000000  0.4508680000000 1.0
C      1  0.4493450000000  0.5528560000000  0.4481000000000 1.0
C      1  0.4286390000000  0.4927690000000  0.4483520000000 1.0
C      1  0.4609860000000  0.4395170000000  0.4493020000000 1.0
C      1  0.4145860000000  0.5415080000000  0.5006580000000 1.0
C      1  0.4139270000000  0.4588780000000  0.5018330000000 1.0
C      1  0.4755940000000  0.4086740000000  0.5006720000000 1.0
C      1  0.5604500000000  0.4264000000000  0.5003910000000 1.0
C      1  0.5929880000000  0.5026450000000  0.4998680000000 1.0
C      1  0.5585910000000  0.5736550000000  0.5005000000000 1.0
C      1  0.4761100000000  0.5916230000000  0.4972490000000 1.0
C      1  0.4985730000000  0.5957280000000  0.4529960000000 1.0
C      1  0.4213910000000  0.5561110000000  0.4557640000000 1.0
C      1  0.4072220000000  0.4741970000000  0.4554670000000 1.0
C      1  0.4626930000000  0.4114090000000  0.4566070000000 1.0
C      1  0.5437010000000  0.4154990000000  0.4545780000000 1.0
C      1  0.5945730000000  0.4838980000000  0.4557270000000 1.0
C      1  0.5728060000000  0.5637780000000  0.4576630000000 1.0
C      1  0.5648250000000  0.5096660000000  0.4915670000000 1.0
C      1  0.5364850000000  0.5575760000000  0.4908460000000 1.0
C      1  0.4770250000000  0.5636050000000  0.4918350000000 1.0
C      1  0.4344170000000  0.5227760000000  0.4908110000000 1.0
C      1  0.4398380000000  0.4652670000000  0.4911420000000 1.0
C      1  0.4936850000000  0.4291960000000  0.4927090000000 1.0
C      1  0.5500010000000  0.4530220000000  0.4929570000000 1.0
C      1  0.4684600000000  0.5176090000000  0.5235300000000 1.0
C      1  0.4742480000000  0.4883560000000  0.5196750000000 1.0
C      1  0.4936330000000  0.4652320000000  0.5225140000000 1.0
C      1  0.5174060000000  0.4747510000000  0.5255900000000 1.0
C      1  0.5371910000000  0.5002850000000  0.5238890000000 1.0
C      1  0.5224130000000  0.5264900000000  0.5241160000000 1.0
C      1  0.4943640000000  0.5318320000000  0.5207740000000 1.0
C      1  0.5276520000000  0.4570540000000  0.5066780000000 1.0
C      1  0.5455510000000  0.4907830000000  0.4995290000000 1.0
C      1  0.5373870000000  0.5320430000000  0.5000720000000 1.0
C      1  0.4984670000000  0.5474080000000  0.4975630000000 1.0
C      1  0.4584540000000  0.5197430000000  0.4984070000000 1.0
C      1  0.4567580000000  0.4779010000000  0.5060920000000 1.0
C      1  0.4899020000000  0.4569750000000  0.4964140000000 1.0
C      1  0.4219080000000  0.4501010000000  0.4477640000000 1.0
C      1  0.4901390000000  0.4074660000000  0.4481510000000 1.0
C      1  0.5645620000000  0.4354860000000  0.4479070000000 1.0
C      1  0.5916450000000  0.5112800000000  0.4478080000000 1.0
C      1  0.5499630000000  0.5792930000000  0.4478220000000 1.0
C      1  0.4706190000000  0.5876440000000  0.4469710000000 1.0
C      1  0.4118880000000  0.5298080000000  0.4470270000000 1.0
C      1  0.5432650000000  0.5587820000000  0.5749190000000 1.0
C      1  0.4752330000000  0.5724850000000  0.5772920000000 1.0
C      1  0.4372160000000  0.5228450000000  0.5754950000000 1.0
C      1  0.4391470000000  0.4674790000000  0.5800600000000 1.0
C      1  0.4946150000000  0.4324760000000  0.5783120000000 1.0
C      1  0.5501270000000  0.4476410000000  0.5769700000000 1.0
C      1  0.5721700000000  0.4968100000000  0.5803400000000 1.0
C      1  0.5858610000000  0.4867640000000  0.5285990000000 1.0
C      1  0.5570990000000  0.5630150000000  0.5277170000000 1.0
C      1  0.4919720000000  0.5884280000000  0.5316170000000 1.0
C      1  0.4266360000000  0.5473580000000  0.5281230000000 1.0
C      1  0.4131950000000  0.4748550000000  0.5274140000000 1.0
C      1  0.4607040000000  0.4143860000000  0.5241450000000 1.0
C      1  0.5457370000000  0.4237870000000  0.5273750000000 1.0
C      1  0.4638590000000  0.4514260000000  0.5832740000000 1.0
C      1  0.5097080000000  0.4566470000000  0.5745800000000 1.0
C      1  0.5496230000000  0.4780270000000  0.5851790000000 1.0
C      1  0.5544200000000  0.5192860000000  0.5800240000000 1.0
C      1  0.5201210000000  0.5406240000000  0.5774550000000 1.0
C      1  0.4726310000000  0.5428950000000  0.5821210000000 1.0
C      1  0.4500560000000  0.4954800000000  0.5803470000000 1.0
C      1  0.4864160000000  0.5288290000000  0.4385690000000 1.0
C      1  0.4694870000000  0.5073620000000  0.4333090000000 1.0
C      1  0.4746570000000  0.4811770000000  0.4411640000000 1.0
C      1  0.5003950000000  0.4668640000000  0.4367170000000 1.0
C      1  0.5248510000000  0.4785190000000  0.4354920000000 1.0
C      1  0.5307560000000  0.5069870000000  0.4392360000000 1.0
C      1  0.5139290000000  0.5297890000000  0.4354230000000 1.0
C      1  0.4186370000000  0.4792370000000  0.5555630000000 1.0
C      1  0.4689220000000  0.4325920000000  0.5437600000000 1.0
C      1  0.5374870000000  0.4265870000000  0.5606580000000 1.0
C      1  0.5860020000000  0.4806790000000  0.5588990000000 1.0
C      1  0.5655360000000  0.5544370000000  0.5547280000000 1.0
C      1  0.4972770000000  0.5827310000000  0.5597210000000 1.0
C      1  0.4353510000000  0.5475090000000  0.5590480000000 1.0
C      1  0.5976920000000  0.4759090000000  0.4836260000000 1.0
C      1  0.5802030000000  0.5584360000000  0.4857370000000 1.0
C      1  0.5016710000000  0.5991280000000  0.4830720000000 1.0
C      1  0.4237230000000  0.5647870000000  0.4837210000000 1.0
C      1  0.4011910000000  0.4809230000000  0.4833380000000 1.0
C      1  0.4510580000000  0.4130720000000  0.4841180000000 1.0
C      1  0.5421360000000  0.4092220000000  0.4841690000000 1.0
C      1  0.5325330000000  0.5195910000000  0.5617540000000 1.0
C      1  0.4950190000000  0.5408460000000  0.5633370000000 1.0
C      1  0.4739800000000  0.5233320000000  0.5604050000000 1.0
C      1  0.4661650000000  0.4842670000000  0.5575370000000 1.0
C      1  0.4825160000000  0.4692440000000  0.5734840000000 1.0
C      1  0.5279990000000  0.4672890000000  0.5493740000000 1.0
C      1  0.5329940000000  0.4899960000000  0.5646810000000 1.0
C      1  0.5341150000000  0.5733790000000  0.5356030000000 1.0
C      1  0.4672860000000  0.5728670000000  0.5341480000000 1.0
C      1  0.4297330000000  0.5177990000000  0.5320650000000 1.0
C      1  0.4544310000000  0.4576440000000  0.5437420000000 1.0
C      1  0.4954900000000  0.4393020000000  0.5382020000000 1.0
C      1  0.5535930000000  0.4544320000000  0.5369930000000 1.0
C      1  0.5636880000000  0.5055900000000  0.5360970000000 1.0
C      1  0.4212010000000  0.5104440000000  0.4264330000000 1.0
C      1  0.4426190000000  0.4449020000000  0.4265100000000 1.0
C      1  0.5106460000000  0.4199540000000  0.4291320000000 1.0
C      1  0.5666500000000  0.4567290000000  0.4271900000000 1.0
C      1  0.5760190000000  0.5256270000000  0.4263340000000 1.0
C      1  0.5264640000000  0.5770690000000  0.4287950000000 1.0
C      1  0.4601970000000  0.5692420000000  0.4262710000000 1.0
C      1  0.4062760000000  0.5029140000000  0.5184520000000 1.0
C      1  0.4329580000000  0.4229210000000  0.5245610000000 1.0
C      1  0.5229750000000  0.4074570000000  0.5215050000000 1.0
C      1  0.5824620000000  0.4577330000000  0.5186630000000 1.0
C      1  0.5909090000000  0.5426900000000  0.5241400000000 1.0
C      1  0.5192880000000  0.5893580000000  0.5191220000000 1.0
C      1  0.4441230000000  0.5725560000000  0.5184170000000 1.0
C      1  0.5090440000000  0.4190780000000  0.5557750000000 1.0
C      1  0.5727060000000  0.4546950000000  0.5588630000000 1.0
C      1  0.5776360000000  0.5295050000000  0.5459900000000 1.0
C      1  0.5258240000000  0.5784820000000  0.5619770000000 1.0
C      1  0.4525640000000  0.5709120000000  0.5588820000000 1.0
C      1  0.4190260000000  0.5085280000000  0.5572760000000 1.0
C      1  0.4304380000000  0.4429610000000  0.5466180000000 1.0
C      1  0.5023410000000  0.4717570000000  0.4764110000000 1.0
C      1  0.5254900000000  0.4882520000000  0.4812960000000 1.0
C      1  0.5277810000000  0.5125000000000  0.4685940000000 1.0
C      1  0.5099220000000  0.5324220000000  0.4734000000000 1.0
C      1  0.4861210000000  0.5289350000000  0.4659650000000 1.0
C      1  0.4732680000000  0.5080900000000  0.4784380000000 1.0
C      1  0.4768440000000  0.4818450000000  0.4698770000000 1.0
C      1  0.5566070000000  0.4560070000000  0.4659430000000 1.0
C      1  0.5695260000000  0.5164920000000  0.4644680000000 1.0
C      1  0.5334600000000  0.5615390000000  0.4636860000000 1.0
C      1  0.4671590000000  0.5663460000000  0.4652020000000 1.0
C      1  0.4284360000000  0.5154460000000  0.4651880000000 1.0
C      1  0.4434180000000  0.4539100000000  0.4653980000000 1.0
C      1  0.5004100000000  0.4260290000000  0.4665650000000 1.0
C      1  0.5416900000000  0.4658100000000  0.4159090000000 1.0
C      1  0.5532490000000  0.5118520000000  0.4162600000000 1.0
C      1  0.5239820000000  0.5491630000000  0.4163790000000 1.0
C      1  0.4776540000000  0.5493250000000  0.4158580000000 1.0
C      1  0.4476620000000  0.5125690000000  0.4152880000000 1.0
C      1  0.4578590000000  0.4672280000000  0.4178910000000 1.0
C      1  0.4999660000000  0.4452930000000  0.4166570000000 1.0
C      1  0.4930900000000  0.5000900000000  0.5521050000000 1.0
C      1  0.5024580000000  0.5021540000000  0.5817700000000 1.0
C      1  0.4982910000000  0.5010050000000  0.6055730000000 1.0
END
