TITL C-2441169-1362-477 0.00378545403906877 125000 -8344.84843555757 0 0 59 (C1) n - 1
REM
REM in /home/bkarasulu/work/CARBON/AIRSS/Generating-Clusters/ReaxFF-fromJPCA2015/Units_Real/with-SteepDescent/Higher-Symm
REM
REM
REM
REM
REM
REM ./C.cell (1df0a924f5614ab8850e4351716899ee)
REM
REM compiler GCC version 9.2.1 20190827 (Red Hat 9.2.1-1)
REM options -cpp -mtune=generic -march=x86-64 -g -O0 -fpre-include=/usr/include/finclude/math-vector-fortran.h
REM seed 385611374 -1332190090 -879967058 1139799707 92767731 -595444845 1612780621 -865493452 -480802496 -2099114551 1362437223 454078831 -1813259189 1313103515 -508623570 94079265 307615823 -1286037166 -1003399643 102296795 1582694625 -2053835096 796498049 1529336998 -670459856 -2059630068 2131830082 1040713047 -2122468603 -1488932155 1867478171 -843256046 -517909441
REM
CELL 1.54180   50.00000   50.00000   50.00000   90.00000   90.00000   90.00000
LATT -1
SFAC C  
C      1  0.5466000000000  0.5318260000000  0.5205620000000 1.0
C      1  0.5565370000000  0.5096160000000  0.4627480000000 1.0
C      1  0.5569250000000  0.4595790000000  0.5139660000000 1.0
C      1  0.5278290000000  0.4616650000000  0.5142960000000 1.0
C      1  0.5201920000000  0.5379190000000  0.5071530000000 1.0
C      1  0.5342930000000  0.5164370000000  0.4436200000000 1.0
C      1  0.4775720000000  0.4593920000000  0.5440110000000 1.0
C      1  0.4756900000000  0.5611870000000  0.5119930000000 1.0
C      1  0.4797740000000  0.4816410000000  0.4399560000000 1.0
C      1  0.5104940000000  0.4879600000000  0.5692840000000 1.0
C      1  0.5115610000000  0.5717290000000  0.4741600000000 1.0
C      1  0.5148970000000  0.4462260000000  0.4529190000000 1.0
C      1  0.5395470000000  0.4408060000000  0.4679720000000 1.0
C      1  0.5349650000000  0.5022070000000  0.5611910000000 1.0
C      1  0.5362080000000  0.5573090000000  0.4653440000000 1.0
C      1  0.5203120000000  0.5613480000000  0.5160390000000 1.0
C      1  0.5233180000000  0.4935480000000  0.4410820000000 1.0
C      1  0.5272650000000  0.4533580000000  0.5405230000000 1.0
C      1  0.4705330000000  0.4852300000000  0.5343200000000 1.0
C      1  0.4665910000000  0.5350680000000  0.4973650000000 1.0
C      1  0.4710330000000  0.4764860000000  0.4658330000000 1.0
C      1  0.4996990000000  0.5752150000000  0.5021830000000 1.0
C      1  0.5076820000000  0.4714480000000  0.4374640000000 1.0
C      1  0.5055860000000  0.4607380000000  0.5567960000000 1.0
C      1  0.4973750000000  0.5624690000000  0.4507220000000 1.0
C      1  0.4988460000000  0.4297470000000  0.4721900000000 1.0
C      1  0.4910570000000  0.5115530000000  0.5707830000000 1.0
C      1  0.5245220000000  0.4175800000000  0.4823150000000 1.0
C      1  0.5286350000000  0.5246260000000  0.5755790000000 1.0
C      1  0.5222350000000  0.5462050000000  0.4434610000000 1.0
C      1  0.4598520000000  0.4410340000000  0.4820420000000 1.0
C      1  0.4606530000000  0.5099550000000  0.5711210000000 1.0
C      1  0.4716070000000  0.5479650000000  0.4548380000000 1.0
C      1  0.4704310000000  0.5474660000000  0.5366430000000 1.0
C      1  0.4701640000000  0.5087670000000  0.4432070000000 1.0
C      1  0.4643850000000  0.4455460000000  0.5221860000000 1.0
C      1  0.4872930000000  0.5238890000000  0.4597510000000 1.0
C      1  0.4849050000000  0.4472770000000  0.4955930000000 1.0
C      1  0.4888760000000  0.5255410000000  0.5444370000000 1.0
C      1  0.4450700000000  0.5107860000000  0.4584480000000 1.0
C      1  0.4417700000000  0.4610120000000  0.5130210000000 1.0
C      1  0.4438160000000  0.5344390000000  0.5340420000000 1.0
C      1  0.5588520000000  0.5366510000000  0.4742440000000 1.0
C      1  0.5574690000000  0.4589000000000  0.4841140000000 1.0
C      1  0.5443000000000  0.5028250000000  0.5289720000000 1.0
C      1  0.5626960000000  0.4876410000000  0.4834000000000 1.0
C      1  0.5657260000000  0.4879440000000  0.5128740000000 1.0
C      1  0.5652080000000  0.5262660000000  0.4993220000000 1.0
C      1  0.4888670000000  0.5029840000000  0.5276010000000 1.0
C      1  0.4964000000000  0.5234330000000  0.4877250000000 1.0
C      1  0.4881880000000  0.4751430000000  0.4870660000000 1.0
C      1  0.4396580000000  0.5107080000000  0.5505060000000 1.0
C      1  0.4501810000000  0.5363780000000  0.4720600000000 1.0
C      1  0.4376320000000  0.4591230000000  0.4841270000000 1.0
C      1  0.4446990000000  0.4840090000000  0.4694650000000 1.0
C      1  0.4437490000000  0.4920110000000  0.5237500000000 1.0
C      1  0.4432450000000  0.5193320000000  0.5094320000000 1.0
C      1  0.5235940000000  0.4905690000000  0.5133280000000 1.0
C      1  0.4988550000000  0.4978450000000  0.5016260000000 1.0
END
