TITL C-2441163-1170-966 0.0866448019246477 125000 -16498.3817029852 0 0 126 (C1) n - 1
REM
REM in /home/bkarasulu/work/CARBON/AIRSS/Generating-Clusters/ReaxFF-fromJPCA2015/Units_Real/with-SteepDescent/Higher-Symm
REM
REM
REM
REM
REM
REM ./C.cell (1df0a924f5614ab8850e4351716899ee)
REM
REM compiler GCC version 9.2.1 20190827 (Red Hat 9.2.1-1)
REM options -cpp -mtune=generic -march=x86-64 -g -O0 -fpre-include=/usr/include/finclude/math-vector-fortran.h
REM seed 1475420596 -2020934176 -2045675473 -1841488628 798361517 1716822026 -950829223 -1585613658 -1774409491 -1977914557 1107318344 -195752097 309941904 -76457582 1607420726 1107772747 -726662959 -14457404 1133862961 924689505 429621569 -1143919507 -1882437933 2066320803 944460679 762700883 1519074162 -761575553 -1847347471 689132446 412914650 804148397 -1978897141
REM
CELL 1.54180   50.00000   50.00000   50.00000   90.00000   90.00000   90.00000
LATT -1
SFAC C  
C      1  0.4568930000000  0.4495800000000  0.4351630000000 1.0
C      1  0.4599290000000  0.5526760000000  0.5656120000000 1.0
C      1  0.4603110000000  0.4479610000000  0.5655900000000 1.0
C      1  0.4592640000000  0.5511510000000  0.4341990000000 1.0
C      1  0.4784230000000  0.5292040000000  0.4239170000000 1.0
C      1  0.4827490000000  0.4709390000000  0.5785010000000 1.0
C      1  0.4794710000000  0.5304170000000  0.5770890000000 1.0
C      1  0.4892360000000  0.4753070000000  0.4175000000000 1.0
C      1  0.5748530000000  0.5147800000000  0.4430030000000 1.0
C      1  0.5766070000000  0.4859090000000  0.5576770000000 1.0
C      1  0.5754280000000  0.5145980000000  0.5569180000000 1.0
C      1  0.5786490000000  0.4860840000000  0.4428500000000 1.0
C      1  0.5361280000000  0.5284270000000  0.4853320000000 1.0
C      1  0.5362320000000  0.4721130000000  0.5148930000000 1.0
C      1  0.5359850000000  0.5280420000000  0.5146940000000 1.0
C      1  0.5356390000000  0.4728780000000  0.4845590000000 1.0
C      1  0.4799760000000  0.5734710000000  0.5674590000000 1.0
C      1  0.4767330000000  0.4290340000000  0.4328770000000 1.0
C      1  0.4794330000000  0.5712600000000  0.4343560000000 1.0
C      1  0.4790440000000  0.4261800000000  0.5670440000000 1.0
C      1  0.5604800000000  0.4866860000000  0.5209870000000 1.0
C      1  0.5624490000000  0.5126740000000  0.4844160000000 1.0
C      1  0.5602950000000  0.4867430000000  0.4785310000000 1.0
C      1  0.5624750000000  0.5125380000000  0.5153700000000 1.0
C      1  0.5552200000000  0.5546490000000  0.4744650000000 1.0
C      1  0.5559280000000  0.4444720000000  0.5261330000000 1.0
C      1  0.5552930000000  0.5552130000000  0.5255320000000 1.0
C      1  0.5564310000000  0.4441060000000  0.4737040000000 1.0
C      1  0.4902410000000  0.4696050000000  0.4858370000000 1.0
C      1  0.4910600000000  0.5308990000000  0.5144380000000 1.0
C      1  0.4904490000000  0.4691040000000  0.5145390000000 1.0
C      1  0.4910220000000  0.5308200000000  0.4858510000000 1.0
C      1  0.5290280000000  0.4813860000000  0.5791910000000 1.0
C      1  0.5232370000000  0.5249380000000  0.4186240000000 1.0
C      1  0.5328100000000  0.4842430000000  0.4200730000000 1.0
C      1  0.5262920000000  0.5212970000000  0.5815810000000 1.0
C      1  0.5104120000000  0.4165110000000  0.5409300000000 1.0
C      1  0.5106410000000  0.5842790000000  0.4581490000000 1.0
C      1  0.5097150000000  0.4166040000000  0.4586960000000 1.0
C      1  0.5104350000000  0.5838500000000  0.5401360000000 1.0
C      1  0.4555980000000  0.4447520000000  0.5368240000000 1.0
C      1  0.4561280000000  0.5556890000000  0.4639140000000 1.0
C      1  0.4549920000000  0.4451520000000  0.4641560000000 1.0
C      1  0.4563480000000  0.5546170000000  0.5362090000000 1.0
C      1  0.4780970000000  0.5824570000000  0.4860180000000 1.0
C      1  0.4766040000000  0.4168350000000  0.5142970000000 1.0
C      1  0.4781790000000  0.5827020000000  0.5148050000000 1.0
C      1  0.4777320000000  0.4176460000000  0.4850860000000 1.0
C      1  0.4165420000000  0.4546400000000  0.5264860000000 1.0
C      1  0.4167560000000  0.5452520000000  0.4733510000000 1.0
C      1  0.4160510000000  0.4547410000000  0.4742350000000 1.0
C      1  0.4168620000000  0.5458070000000  0.5267750000000 1.0
C      1  0.5499830000000  0.5805140000000  0.4856490000000 1.0
C      1  0.5494770000000  0.4196520000000  0.5136540000000 1.0
C      1  0.5487620000000  0.5793560000000  0.5135060000000 1.0
C      1  0.5483810000000  0.4211190000000  0.4858310000000 1.0
C      1  0.4630110000000  0.4849550000000  0.4855500000000 1.0
C      1  0.4623350000000  0.5147460000000  0.5157970000000 1.0
C      1  0.4625700000000  0.4850870000000  0.5160470000000 1.0
C      1  0.4623860000000  0.5144960000000  0.4848390000000 1.0
C      1  0.5452960000000  0.4486190000000  0.4467020000000 1.0
C      1  0.5444190000000  0.5511890000000  0.5523550000000 1.0
C      1  0.5457510000000  0.4481500000000  0.5530910000000 1.0
C      1  0.5454620000000  0.5511460000000  0.4470520000000 1.0
C      1  0.4993760000000  0.4441480000000  0.5777380000000 1.0
C      1  0.5064880000000  0.5488230000000  0.4196610000000 1.0
C      1  0.4979770000000  0.4461500000000  0.4228070000000 1.0
C      1  0.5000390000000  0.5543860000000  0.5777080000000 1.0
C      1  0.5208440000000  0.4173540000000  0.4848750000000 1.0
C      1  0.5216680000000  0.5853440000000  0.5144530000000 1.0
C      1  0.5214230000000  0.4131320000000  0.5144310000000 1.0
C      1  0.5221780000000  0.5882340000000  0.4846680000000 1.0
C      1  0.4284520000000  0.5214070000000  0.4853450000000 1.0
C      1  0.4286300000000  0.4786770000000  0.5144900000000 1.0
C      1  0.4283370000000  0.5216960000000  0.5146510000000 1.0
C      1  0.4290560000000  0.4785830000000  0.4856710000000 1.0
C      1  0.4821580000000  0.5904720000000  0.4562060000000 1.0
C      1  0.4827980000000  0.4084940000000  0.5425790000000 1.0
C      1  0.4829270000000  0.5916850000000  0.5435450000000 1.0
C      1  0.4818800000000  0.4095490000000  0.4564600000000 1.0
C      1  0.4913210000000  0.5133220000000  0.5542540000000 1.0
C      1  0.4896360000000  0.4854130000000  0.4456430000000 1.0
C      1  0.4905490000000  0.5129270000000  0.4465740000000 1.0
C      1  0.4923390000000  0.4865590000000  0.5542700000000 1.0
C      1  0.4178220000000  0.5202800000000  0.4587510000000 1.0
C      1  0.4174580000000  0.4796740000000  0.5407650000000 1.0
C      1  0.4170030000000  0.5205240000000  0.5407770000000 1.0
C      1  0.4178550000000  0.4796500000000  0.4597780000000 1.0
C      1  0.4408270000000  0.5131370000000  0.4427840000000 1.0
C      1  0.4407010000000  0.4858130000000  0.5575120000000 1.0
C      1  0.4396790000000  0.5138250000000  0.5577810000000 1.0
C      1  0.4422640000000  0.4857460000000  0.4452180000000 1.0
C      1  0.5826030000000  0.4522750000000  0.4858190000000 1.0
C      1  0.5835170000000  0.5474910000000  0.5147060000000 1.0
C      1  0.5825200000000  0.4522820000000  0.5146550000000 1.0
C      1  0.5835150000000  0.5474180000000  0.4854930000000 1.0
C      1  0.5098180000000  0.4845570000000  0.5299300000000 1.0
C      1  0.5097410000000  0.5150190000000  0.4693120000000 1.0
C      1  0.5099140000000  0.4851980000000  0.4701370000000 1.0
C      1  0.5099550000000  0.5148090000000  0.5300450000000 1.0
C      1  0.4805550000000  0.4445110000000  0.4767530000000 1.0
C      1  0.4821670000000  0.5561760000000  0.5241200000000 1.0
C      1  0.4803900000000  0.4438470000000  0.5227980000000 1.0
C      1  0.4813960000000  0.5556940000000  0.4770220000000 1.0
C      1  0.5855740000000  0.5247080000000  0.4685730000000 1.0
C      1  0.5853630000000  0.4755930000000  0.5313330000000 1.0
C      1  0.5856970000000  0.5245010000000  0.5313780000000 1.0
C      1  0.5858800000000  0.4758760000000  0.4695710000000 1.0
C      1  0.4546810000000  0.4853160000000  0.5831720000000 1.0
C      1  0.4544520000000  0.5121680000000  0.4173670000000 1.0
C      1  0.4570010000000  0.4806280000000  0.4195910000000 1.0
C      1  0.4531770000000  0.5147390000000  0.5837290000000 1.0
C      1  0.4357370000000  0.4372420000000  0.4855010000000 1.0
C      1  0.4371930000000  0.5623520000000  0.5153250000000 1.0
C      1  0.4362180000000  0.4368890000000  0.5157430000000 1.0
C      1  0.4367610000000  0.5622560000000  0.4847790000000 1.0
C      1  0.5549230000000  0.4716890000000  0.4319510000000 1.0
C      1  0.5504740000000  0.5281860000000  0.5676250000000 1.0
C      1  0.5523830000000  0.4717440000000  0.5671010000000 1.0
C      1  0.5494920000000  0.5271380000000  0.4331880000000 1.0
C      1  0.5196680000000  0.4378130000000  0.4405050000000 1.0
C      1  0.5184940000000  0.5611840000000  0.5562500000000 1.0
C      1  0.5204740000000  0.4372050000000  0.5588550000000 1.0
C      1  0.5200510000000  0.5621540000000  0.4413690000000 1.0
C      1  0.5132910000000  0.4976780000000  0.4100450000000 1.0
C      1  0.5129070000000  0.4987110000000  0.5882200000000 1.0
END
