TITL C-2441158-471-1110 0.0934008845632596 125000 -22942.2055419811 0 0 171 (C1) n - 1
REM
REM in /home/bkarasulu/work/CARBON/AIRSS/Generating-Clusters/ReaxFF-fromJPCA2015/Units_Real/with-SteepDescent/Higher-Symm
REM
REM
REM
REM
REM
REM ./C.cell (1df0a924f5614ab8850e4351716899ee)
REM
REM compiler GCC version 9.2.1 20190827 (Red Hat 9.2.1-1)
REM options -cpp -mtune=generic -march=x86-64 -g -O0 -fpre-include=/usr/include/finclude/math-vector-fortran.h
REM seed -105518240 -460650168 1528385371 1726945060 1247226970 732792504 1771765848 2056282655 1478825156 -171677844 -343233698 -388759207 -909411332 -1751504229 1528707010 1181819949 -799927391 -1274591705 1747834924 -568095850 -102410595 1048901990 1967800338 -441658119 1175069358 368469400 -1871752470 1354759927 -1635169175 964534955 615291881 -1083871807 571516055
REM
CELL 1.54180   50.00000   50.00000   50.00000   90.00000   90.00000   90.00000
LATT -1
SFAC C  
C      1  0.5801520000000  0.5550240000000  0.4980520000000 1.0
C      1  0.4150990000000  0.5577550000000  0.4989920000000 1.0
C      1  0.5784020000000  0.4401330000000  0.5035190000000 1.0
C      1  0.4209490000000  0.4464010000000  0.4981200000000 1.0
C      1  0.4985840000000  0.5534340000000  0.5791750000000 1.0
C      1  0.5025580000000  0.5536700000000  0.4219980000000 1.0
C      1  0.5028410000000  0.4446680000000  0.5746440000000 1.0
C      1  0.4991390000000  0.4457080000000  0.4166920000000 1.0
C      1  0.5538020000000  0.5807850000000  0.5327450000000 1.0
C      1  0.4546890000000  0.5757810000000  0.4722030000000 1.0
C      1  0.5519520000000  0.4164550000000  0.4699810000000 1.0
C      1  0.4485190000000  0.4180840000000  0.5304180000000 1.0
C      1  0.5327610000000  0.5809090000000  0.5527290000000 1.0
C      1  0.4695850000000  0.5820130000000  0.4471140000000 1.0
C      1  0.4682630000000  0.4170130000000  0.5511590000000 1.0
C      1  0.5286320000000  0.4228260000000  0.4524690000000 1.0
C      1  0.5189820000000  0.5813270000000  0.4620340000000 1.0
C      1  0.4856260000000  0.5932660000000  0.5350030000000 1.0
C      1  0.5171150000000  0.4093730000000  0.5422030000000 1.0
C      1  0.4840500000000  0.4159890000000  0.4637790000000 1.0
C      1  0.4663370000000  0.5911080000000  0.5134400000000 1.0
C      1  0.5378230000000  0.5830580000000  0.4841920000000 1.0
C      1  0.5391690000000  0.4111290000000  0.5193310000000 1.0
C      1  0.4603480000000  0.4145780000000  0.4820090000000 1.0
C      1  0.4289460000000  0.5711210000000  0.5215270000000 1.0
C      1  0.5777910000000  0.5720490000000  0.4748910000000 1.0
C      1  0.4227450000000  0.4262840000000  0.4768930000000 1.0
C      1  0.5709210000000  0.4209710000000  0.5242770000000 1.0
C      1  0.5240950000000  0.5726350000000  0.4171300000000 1.0
C      1  0.4733560000000  0.5694890000000  0.5821660000000 1.0
C      1  0.4775860000000  0.4279240000000  0.4251490000000 1.0
C      1  0.5234130000000  0.4236880000000  0.5680750000000 1.0
C      1  0.4815570000000  0.4453610000000  0.4616520000000 1.0
C      1  0.5259660000000  0.4541600000000  0.5411470000000 1.0
C      1  0.4797400000000  0.5657990000000  0.5419700000000 1.0
C      1  0.5292650000000  0.5540820000000  0.4556310000000 1.0
C      1  0.4570700000000  0.4473850000000  0.4755860000000 1.0
C      1  0.5360290000000  0.4409790000000  0.5177260000000 1.0
C      1  0.5418330000000  0.5538140000000  0.4809840000000 1.0
C      1  0.4580480000000  0.5624420000000  0.5222860000000 1.0
C      1  0.4040710000000  0.5188250000000  0.4520690000000 1.0
C      1  0.5877670000000  0.5176440000000  0.5451510000000 1.0
C      1  0.4074950000000  0.4795910000000  0.5473000000000 1.0
C      1  0.5876150000000  0.4793920000000  0.4532440000000 1.0
C      1  0.4532750000000  0.5198300000000  0.4110070000000 1.0
C      1  0.5483350000000  0.5207150000000  0.5916200000000 1.0
C      1  0.5476560000000  0.4813860000000  0.4046110000000 1.0
C      1  0.4540130000000  0.4786200000000  0.5928250000000 1.0
C      1  0.4245190000000  0.5688990000000  0.5504530000000 1.0
C      1  0.5724480000000  0.5754420000000  0.4458650000000 1.0
C      1  0.4280340000000  0.4239080000000  0.4482890000000 1.0
C      1  0.5747930000000  0.4290420000000  0.5516070000000 1.0
C      1  0.5525580000000  0.5777980000000  0.4240880000000 1.0
C      1  0.4462720000000  0.5739340000000  0.5713700000000 1.0
C      1  0.4487690000000  0.4252790000000  0.4288740000000 1.0
C      1  0.5516040000000  0.4295660000000  0.5727020000000 1.0
C      1  0.5025340000000  0.5491880000000  0.5394140000000 1.0
C      1  0.4940060000000  0.5488320000000  0.4748470000000 1.0
C      1  0.5235320000000  0.4482180000000  0.4668880000000 1.0
C      1  0.4985010000000  0.4539030000000  0.5349590000000 1.0
C      1  0.5199600000000  0.5555150000000  0.5170460000000 1.0
C      1  0.4678690000000  0.5518660000000  0.4812920000000 1.0
C      1  0.4691000000000  0.4548840000000  0.4988380000000 1.0
C      1  0.5216580000000  0.4530800000000  0.4958100000000 1.0
C      1  0.3986410000000  0.5067680000000  0.5431060000000 1.0
C      1  0.6000080000000  0.5048380000000  0.4597530000000 1.0
C      1  0.3969450000000  0.4924520000000  0.4618420000000 1.0
C      1  0.6009910000000  0.4915450000000  0.5418010000000 1.0
C      1  0.5382570000000  0.5072800000000  0.3960390000000 1.0
C      1  0.4601900000000  0.5055030000000  0.6000330000000 1.0
C      1  0.4623730000000  0.4949510000000  0.3984890000000 1.0
C      1  0.5448700000000  0.4920970000000  0.6002760000000 1.0
C      1  0.3947230000000  0.5118210000000  0.5098120000000 1.0
C      1  0.6049390000000  0.5109410000000  0.4913070000000 1.0
C      1  0.3905320000000  0.4884380000000  0.4899690000000 1.0
C      1  0.6040410000000  0.4844370000000  0.5122860000000 1.0
C      1  0.5092180000000  0.5119020000000  0.3914510000000 1.0
C      1  0.4910150000000  0.5112940000000  0.6036830000000 1.0
C      1  0.4905700000000  0.4898400000000  0.3910350000000 1.0
C      1  0.5146030000000  0.4868730000000  0.6000630000000 1.0
C      1  0.5608020000000  0.5162230000000  0.4708470000000 1.0
C      1  0.4386240000000  0.5144070000000  0.5303960000000 1.0
C      1  0.5614350000000  0.4830170000000  0.5420890000000 1.0
C      1  0.4425520000000  0.4756380000000  0.4605560000000 1.0
C      1  0.4687170000000  0.5157710000000  0.5592230000000 1.0
C      1  0.5304940000000  0.5254440000000  0.4382690000000 1.0
C      1  0.5343000000000  0.4794150000000  0.5515810000000 1.0
C      1  0.4623190000000  0.4796980000000  0.4389100000000 1.0
C      1  0.4128020000000  0.5446040000000  0.5474700000000 1.0
C      1  0.5888300000000  0.5535690000000  0.4549160000000 1.0
C      1  0.4086920000000  0.4431340000000  0.4559300000000 1.0
C      1  0.5877210000000  0.4533470000000  0.5483670000000 1.0
C      1  0.5457860000000  0.5560970000000  0.4062210000000 1.0
C      1  0.4512050000000  0.5521070000000  0.5891380000000 1.0
C      1  0.4576550000000  0.4438160000000  0.4100290000000 1.0
C      1  0.5474270000000  0.4531930000000  0.5853760000000 1.0
C      1  0.5317230000000  0.5353830000000  0.5007850000000 1.0
C      1  0.4686240000000  0.5334840000000  0.5049220000000 1.0
C      1  0.5423890000000  0.4837330000000  0.5018450000000 1.0
C      1  0.4662530000000  0.4835560000000  0.5012590000000 1.0
C      1  0.4916700000000  0.5275220000000  0.5241040000000 1.0
C      1  0.5008070000000  0.5219780000000  0.4689980000000 1.0
C      1  0.4966330000000  0.4837630000000  0.5302940000000 1.0
C      1  0.5020540000000  0.4657290000000  0.4597990000000 1.0
C      1  0.5815480000000  0.5250760000000  0.4511870000000 1.0
C      1  0.4191660000000  0.5212550000000  0.5532240000000 1.0
C      1  0.5832860000000  0.4761430000000  0.5591920000000 1.0
C      1  0.4148290000000  0.4709740000000  0.4516690000000 1.0
C      1  0.4478490000000  0.5230310000000  0.5800750000000 1.0
C      1  0.5473970000000  0.5278950000000  0.4149270000000 1.0
C      1  0.5632360000000  0.4745190000000  0.5870130000000 1.0
C      1  0.4512430000000  0.4721710000000  0.4130870000000 1.0
C      1  0.5324030000000  0.4585950000000  0.3953750000000 1.0
C      1  0.4711490000000  0.4559350000000  0.5990470000000 1.0
C      1  0.5330970000000  0.5441890000000  0.6003150000000 1.0
C      1  0.4674390000000  0.5436000000000  0.4025390000000 1.0
C      1  0.3990250000000  0.4569220000000  0.5315760000000 1.0
C      1  0.5952620000000  0.4556810000000  0.4686130000000 1.0
C      1  0.5977540000000  0.5422870000000  0.5333190000000 1.0
C      1  0.3947040000000  0.5417390000000  0.4668640000000 1.0
C      1  0.5191000000000  0.4987790000000  0.5684590000000 1.0
C      1  0.4883580000000  0.4945400000000  0.4385600000000 1.0
C      1  0.5176810000000  0.4995760000000  0.4364820000000 1.0
C      1  0.4928740000000  0.5099680000000  0.5735140000000 1.0
C      1  0.5690810000000  0.4867060000000  0.5131210000000 1.0
C      1  0.4353200000000  0.5050260000000  0.4782740000000 1.0
C      1  0.4243790000000  0.5100980000000  0.5057440000000 1.0
C      1  0.5753810000000  0.5097630000000  0.4944310000000 1.0
C      1  0.4650010000000  0.4085080000000  0.5097760000000 1.0
C      1  0.5337420000000  0.4041360000000  0.4893470000000 1.0
C      1  0.4710980000000  0.5972210000000  0.4857160000000 1.0
C      1  0.5359230000000  0.5932230000000  0.5125340000000 1.0
C      1  0.5115760000000  0.4051540000000  0.4700520000000 1.0
C      1  0.4897250000000  0.4073360000000  0.5354520000000 1.0
C      1  0.4912160000000  0.5930190000000  0.4633890000000 1.0
C      1  0.5152050000000  0.5964180000000  0.5343140000000 1.0
C      1  0.3923180000000  0.5400340000000  0.4960160000000 1.0
C      1  0.6030230000000  0.5386570000000  0.5048010000000 1.0
C      1  0.3970850000000  0.4634030000000  0.5029050000000 1.0
C      1  0.6005230000000  0.4591580000000  0.4976140000000 1.0
C      1  0.4958300000000  0.5371640000000  0.3987070000000 1.0
C      1  0.5049860000000  0.5380590000000  0.6029310000000 1.0
C      1  0.5030000000000  0.4630460000000  0.3930390000000 1.0
C      1  0.5001200000000  0.4610660000000  0.5989370000000 1.0
C      1  0.4553860000000  0.5290000000000  0.4394370000000 1.0
C      1  0.5406610000000  0.5255850000000  0.5634670000000 1.0
C      1  0.4573760000000  0.4681820000000  0.5637310000000 1.0
C      1  0.5387200000000  0.4749980000000  0.4328750000000 1.0
C      1  0.4315040000000  0.5277870000000  0.4575350000000 1.0
C      1  0.5594250000000  0.5256190000000  0.5396440000000 1.0
C      1  0.5587590000000  0.4714940000000  0.4558560000000 1.0
C      1  0.4361310000000  0.4685830000000  0.5432660000000 1.0
C      1  0.4270100000000  0.4425120000000  0.5267150000000 1.0
C      1  0.5689420000000  0.4411620000000  0.4741900000000 1.0
C      1  0.4210420000000  0.5551990000000  0.4700000000000 1.0
C      1  0.5703010000000  0.5552390000000  0.5267800000000 1.0
C      1  0.5279570000000  0.4467660000000  0.4221980000000 1.0
C      1  0.4729900000000  0.4418570000000  0.5712000000000 1.0
C      1  0.4729950000000  0.5576170000000  0.4297420000000 1.0
C      1  0.5276070000000  0.5568440000000  0.5727360000000 1.0
C      1  0.5086830000000  0.4948700000000  0.4777390000000 1.0
C      1  0.4719070000000  0.4884480000000  0.5468870000000 1.0
C      1  0.5117200000000  0.5084680000000  0.5296810000000 1.0
C      1  0.4754460000000  0.5140310000000  0.4570750000000 1.0
C      1  0.4525020000000  0.4878290000000  0.5280050000000 1.0
C      1  0.5431150000000  0.4908520000000  0.4731200000000 1.0
C      1  0.5370600000000  0.5114890000000  0.5165620000000 1.0
C      1  0.4625380000000  0.5083390000000  0.4850330000000 1.0
C      1  0.5023370000000  0.5635560000000  0.4968220000000 1.0
C      1  0.4942250000000  0.4449260000000  0.5080050000000 1.0
C      1  0.4943090000000  0.4866980000000  0.5014400000000 1.0
END
