TITL C-2441162-9305-588 0.0377726923108754 125000 -26549.6983428415 0 0 178 (C1) n - 1
REM
REM in /home/bkarasulu/work/CARBON/AIRSS/Generating-Clusters/ReaxFF-fromJPCA2015/Units_Real/with-SteepDescent/Higher-Symm
REM
REM
REM
REM
REM
REM ./C.cell (1df0a924f5614ab8850e4351716899ee)
REM
REM compiler GCC version 9.2.1 20190827 (Red Hat 9.2.1-1)
REM options -cpp -mtune=generic -march=x86-64 -g -O0 -fpre-include=/usr/include/finclude/math-vector-fortran.h
REM seed -860387516 2052144171 -1889081209 -1579284265 -1252046549 -1037634614 632068042 597632472 699680014 455793262 1550000111 -136225038 -1222978323 1359869592 247067644 1699751165 967338200 1648679432 620435307 222434822 -685241089 -728579097 -785689650 -27534209 -1468717840 -1313009608 -128179074 794022511 347792857 -644789621 -2081024325 -1342565134 139516359
REM
CELL 1.54180   50.00000   50.00000   50.00000   90.00000   90.00000   90.00000
LATT -1
SFAC C  
C      1  0.4077350000000  0.5208260000000  0.5412570000000 1.0
C      1  0.4360640000000  0.5674020000000  0.5415340000000 1.0
C      1  0.4846760000000  0.5882980000000  0.5379780000000 1.0
C      1  0.5455060000000  0.6027620000000  0.5396500000000 1.0
C      1  0.5734780000000  0.5417200000000  0.5302250000000 1.0
C      1  0.6099700000000  0.5076580000000  0.5428970000000 1.0
C      1  0.5857500000000  0.4501020000000  0.5397090000000 1.0
C      1  0.5458550000000  0.4040410000000  0.5416090000000 1.0
C      1  0.4817700000000  0.3987900000000  0.5404070000000 1.0
C      1  0.4390660000000  0.4216550000000  0.5334440000000 1.0
C      1  0.4067830000000  0.4646820000000  0.5349050000000 1.0
C      1  0.4549710000000  0.4848250000000  0.5894450000000 1.0
C      1  0.4528720000000  0.5140770000000  0.5949530000000 1.0
C      1  0.4729990000000  0.5318680000000  0.5986860000000 1.0
C      1  0.4870070000000  0.5554700000000  0.5964640000000 1.0
C      1  0.5170560000000  0.5576220000000  0.5967080000000 1.0
C      1  0.5363800000000  0.5368730000000  0.5903510000000 1.0
C      1  0.5508470000000  0.5117780000000  0.5937420000000 1.0
C      1  0.5450570000000  0.4841330000000  0.5890130000000 1.0
C      1  0.5288750000000  0.4614010000000  0.5904800000000 1.0
C      1  0.5004990000000  0.4532890000000  0.5879560000000 1.0
C      1  0.4729340000000  0.4620130000000  0.5932090000000 1.0
C      1  0.5611850000000  0.5606630000000  0.5485820000000 1.0
C      1  0.5960380000000  0.5229460000000  0.5625780000000 1.0
C      1  0.5901890000000  0.4693850000000  0.5586080000000 1.0
C      1  0.5558200000000  0.4221430000000  0.5609880000000 1.0
C      1  0.5034020000000  0.4047820000000  0.5578910000000 1.0
C      1  0.4566720000000  0.4121890000000  0.5808130000000 1.0
C      1  0.4311890000000  0.4527320000000  0.5681780000000 1.0
C      1  0.4047370000000  0.4971770000000  0.5627910000000 1.0
C      1  0.4125840000000  0.5481570000000  0.5719200000000 1.0
C      1  0.4666190000000  0.5917330000000  0.5605360000000 1.0
C      1  0.5257250000000  0.5982730000000  0.5591290000000 1.0
C      1  0.4598750000000  0.4633320000000  0.4839260000000 1.0
C      1  0.4511320000000  0.4879950000000  0.4913220000000 1.0
C      1  0.4413820000000  0.5119150000000  0.4946020000000 1.0
C      1  0.4776110000000  0.5508920000000  0.4959230000000 1.0
C      1  0.5051810000000  0.5487750000000  0.5037590000000 1.0
C      1  0.5254510000000  0.5369230000000  0.4910540000000 1.0
C      1  0.5368190000000  0.5130070000000  0.5026820000000 1.0
C      1  0.5429090000000  0.4890530000000  0.4866810000000 1.0
C      1  0.5331410000000  0.4636110000000  0.4977340000000 1.0
C      1  0.5087600000000  0.4521920000000  0.4852700000000 1.0
C      1  0.4816010000000  0.4474630000000  0.4967790000000 1.0
C      1  0.5092190000000  0.6147760000000  0.5134010000000 1.0
C      1  0.5780430000000  0.5877840000000  0.5104820000000 1.0
C      1  0.6129670000000  0.5474730000000  0.5192630000000 1.0
C      1  0.6133780000000  0.4748790000000  0.5151990000000 1.0
C      1  0.5809100000000  0.4148110000000  0.5156910000000 1.0
C      1  0.5181970000000  0.3854630000000  0.5137300000000 1.0
C      1  0.4519200000000  0.3970150000000  0.5031480000000 1.0
C      1  0.4062370000000  0.4373960000000  0.5054780000000 1.0
C      1  0.3843370000000  0.4964080000000  0.5119170000000 1.0
C      1  0.4027510000000  0.5566460000000  0.5139770000000 1.0
C      1  0.4499730000000  0.5986070000000  0.5121100000000 1.0
C      1  0.5560710000000  0.4034960000000  0.5145940000000 1.0
C      1  0.4905070000000  0.3892800000000  0.5144110000000 1.0
C      1  0.4492630000000  0.4251460000000  0.5068360000000 1.0
C      1  0.4094380000000  0.4609940000000  0.5079620000000 1.0
C      1  0.4051770000000  0.5128460000000  0.5150400000000 1.0
C      1  0.4278580000000  0.5617870000000  0.5154580000000 1.0
C      1  0.4746740000000  0.5847260000000  0.5106120000000 1.0
C      1  0.5374120000000  0.6097150000000  0.5133740000000 1.0
C      1  0.5741890000000  0.5467170000000  0.5014630000000 1.0
C      1  0.6136950000000  0.5184600000000  0.5160430000000 1.0
C      1  0.5947670000000  0.4545030000000  0.5135470000000 1.0
C      1  0.5781570000000  0.4963260000000  0.4152260000000 1.0
C      1  0.5614430000000  0.4557960000000  0.4176240000000 1.0
C      1  0.5277470000000  0.4289350000000  0.4152430000000 1.0
C      1  0.4849610000000  0.4241450000000  0.4146460000000 1.0
C      1  0.4462590000000  0.4444740000000  0.4128250000000 1.0
C      1  0.4229910000000  0.4827060000000  0.4144500000000 1.0
C      1  0.4267370000000  0.5263980000000  0.4161940000000 1.0
C      1  0.4520610000000  0.5609120000000  0.4173770000000 1.0
C      1  0.4922770000000  0.5764680000000  0.4171880000000 1.0
C      1  0.5351290000000  0.5691810000000  0.4163040000000 1.0
C      1  0.5691380000000  0.5394900000000  0.4159440000000 1.0
C      1  0.5980860000000  0.4935750000000  0.4700570000000 1.0
C      1  0.5778480000000  0.4418770000000  0.4688760000000 1.0
C      1  0.5341590000000  0.4087660000000  0.4682390000000 1.0
C      1  0.4799100000000  0.4042850000000  0.4650440000000 1.0
C      1  0.4317700000000  0.4299810000000  0.4640680000000 1.0
C      1  0.4042560000000  0.4763480000000  0.4658850000000 1.0
C      1  0.4180170000000  0.5266310000000  0.4746400000000 1.0
C      1  0.4402560000000  0.5751830000000  0.4698930000000 1.0
C      1  0.4901370000000  0.5967370000000  0.4684140000000 1.0
C      1  0.5441720000000  0.5861650000000  0.4689750000000 1.0
C      1  0.5729040000000  0.5403720000000  0.4701560000000 1.0
C      1  0.5168150000000  0.5924120000000  0.4572070000000 1.0
C      1  0.5630730000000  0.5676190000000  0.4569630000000 1.0
C      1  0.5925880000000  0.5193800000000  0.4572130000000 1.0
C      1  0.5883110000000  0.4676650000000  0.4578890000000 1.0
C      1  0.5563340000000  0.4253540000000  0.4567760000000 1.0
C      1  0.5075230000000  0.4062360000000  0.4548240000000 1.0
C      1  0.4559470000000  0.4171040000000  0.4532180000000 1.0
C      1  0.4167990000000  0.4525150000000  0.4530710000000 1.0
C      1  0.4082910000000  0.5034890000000  0.4568730000000 1.0
C      1  0.4270080000000  0.5521580000000  0.4590550000000 1.0
C      1  0.4645150000000  0.5871320000000  0.4571900000000 1.0
C      1  0.3868510000000  0.4853700000000  0.5393920000000 1.0
C      1  0.3999850000000  0.5483860000000  0.5439390000000 1.0
C      1  0.4445260000000  0.5953880000000  0.5411650000000 1.0
C      1  0.5050320000000  0.6074480000000  0.5409110000000 1.0
C      1  0.5667300000000  0.5861730000000  0.5374630000000 1.0
C      1  0.5985580000000  0.5465670000000  0.5450880000000 1.0
C      1  0.6099420000000  0.4813270000000  0.5429280000000 1.0
C      1  0.5798460000000  0.4249930000000  0.5438060000000 1.0
C      1  0.5224990000000  0.3928090000000  0.5409980000000 1.0
C      1  0.4557780000000  0.4059480000000  0.5514280000000 1.0
C      1  0.4191310000000  0.4399680000000  0.5448650000000 1.0
C      1  0.4500400000000  0.5190810000000  0.4018600000000 1.0
C      1  0.4676130000000  0.5417610000000  0.4029240000000 1.0
C      1  0.4951600000000  0.5516960000000  0.4034190000000 1.0
C      1  0.5237100000000  0.5464090000000  0.4031170000000 1.0
C      1  0.5460450000000  0.5269400000000  0.4030110000000 1.0
C      1  0.5526540000000  0.4989300000000  0.4021120000000 1.0
C      1  0.5386160000000  0.4727530000000  0.4092480000000 1.0
C      1  0.5184840000000  0.4521260000000  0.4020600000000 1.0
C      1  0.4897590000000  0.4493120000000  0.4019820000000 1.0
C      1  0.4645060000000  0.4629800000000  0.4016220000000 1.0
C      1  0.4522300000000  0.4902920000000  0.4092940000000 1.0
C      1  0.4302590000000  0.5820770000000  0.4973960000000 1.0
C      1  0.4871830000000  0.6055640000000  0.4962360000000 1.0
C      1  0.5544870000000  0.5961390000000  0.4944270000000 1.0
C      1  0.5961040000000  0.5655010000000  0.5028850000000 1.0
C      1  0.6119550000000  0.4968660000000  0.4960060000000 1.0
C      1  0.5891350000000  0.4334370000000  0.4946200000000 1.0
C      1  0.5375800000000  0.3956860000000  0.4941220000000 1.0
C      1  0.4744400000000  0.3880860000000  0.4891370000000 1.0
C      1  0.4250800000000  0.4238900000000  0.4909760000000 1.0
C      1  0.3912980000000  0.4736930000000  0.4924110000000 1.0
C      1  0.3979230000000  0.5322530000000  0.4973450000000 1.0
C      1  0.5267190000000  0.5387110000000  0.4630470000000 1.0
C      1  0.5506430000000  0.5237580000000  0.4566270000000 1.0
C      1  0.5464080000000  0.4949580000000  0.4590790000000 1.0
C      1  0.5258470000000  0.4830830000000  0.4400490000000 1.0
C      1  0.5122370000000  0.4579680000000  0.4565360000000 1.0
C      1  0.4873710000000  0.4631790000000  0.4507730000000 1.0
C      1  0.4609150000000  0.4677980000000  0.4536290000000 1.0
C      1  0.4562500000000  0.4941310000000  0.4413200000000 1.0
C      1  0.4635020000000  0.5168780000000  0.4558950000000 1.0
C      1  0.4771790000000  0.5364860000000  0.4677680000000 1.0
C      1  0.5016860000000  0.5314460000000  0.4496180000000 1.0
C      1  0.4691290000000  0.5668740000000  0.5751390000000 1.0
C      1  0.5256460000000  0.5732670000000  0.5740770000000 1.0
C      1  0.5387740000000  0.5504620000000  0.5634830000000 1.0
C      1  0.5739960000000  0.5111170000000  0.5766290000000 1.0
C      1  0.5642890000000  0.4851290000000  0.5659480000000 1.0
C      1  0.5368430000000  0.4367750000000  0.5768250000000 1.0
C      1  0.5097370000000  0.4279980000000  0.5748860000000 1.0
C      1  0.4522260000000  0.4414760000000  0.5854720000000 1.0
C      1  0.4347190000000  0.4822980000000  0.5668680000000 1.0
C      1  0.4382250000000  0.5333170000000  0.5746130000000 1.0
C      1  0.4560580000000  0.5487860000000  0.5548550000000 1.0
C      1  0.4596350000000  0.4226330000000  0.4254470000000 1.0
C      1  0.4221260000000  0.4562030000000  0.4247390000000 1.0
C      1  0.4117830000000  0.5051710000000  0.4280620000000 1.0
C      1  0.4295700000000  0.5503490000000  0.4303280000000 1.0
C      1  0.4672670000000  0.5808320000000  0.4291170000000 1.0
C      1  0.5157130000000  0.5857770000000  0.4292650000000 1.0
C      1  0.5615070000000  0.5649070000000  0.4284270000000 1.0
C      1  0.5877500000000  0.5206360000000  0.4283420000000 1.0
C      1  0.5827800000000  0.4707430000000  0.4293100000000 1.0
C      1  0.5525270000000  0.4312180000000  0.4285480000000 1.0
C      1  0.5075650000000  0.4133520000000  0.4267380000000 1.0
C      1  0.4528310000000  0.5163400000000  0.5211230000000 1.0
C      1  0.4712850000000  0.5376800000000  0.5238100000000 1.0
C      1  0.4994320000000  0.5400660000000  0.5291300000000 1.0
C      1  0.5190310000000  0.5246510000000  0.5462270000000 1.0
C      1  0.5379050000000  0.5097600000000  0.5299150000000 1.0
C      1  0.5481580000000  0.4866350000000  0.5396360000000 1.0
C      1  0.5363560000000  0.4641510000000  0.5270650000000 1.0
C      1  0.5105240000000  0.4582420000000  0.5317120000000 1.0
C      1  0.4837970000000  0.4519480000000  0.5267140000000 1.0
C      1  0.4673250000000  0.4735320000000  0.5339440000000 1.0
C      1  0.4526210000000  0.4928850000000  0.5403130000000 1.0
C      1  0.5061400000000  0.5053540000000  0.4367500000000 1.0
C      1  0.5028230000000  0.5052830000000  0.5610070000000 1.0
END
