TITL C-2441160-1326-322 0.162659106959145 125000 -20231.916561113 0 0 163 (C1) n - 1
REM
REM in /home/bkarasulu/work/CARBON/AIRSS/Generating-Clusters/ReaxFF-fromJPCA2015/Units_Real/with-SteepDescent/Higher-Symm
REM
REM
REM
REM
REM
REM ./C.cell (1df0a924f5614ab8850e4351716899ee)
REM
REM compiler GCC version 9.2.1 20190827 (Red Hat 9.2.1-1)
REM options -cpp -mtune=generic -march=x86-64 -g -O0 -fpre-include=/usr/include/finclude/math-vector-fortran.h
REM seed 170376895 -1125417880 -612273237 1312547702 1028143550 18456139 1240809204 -1466761791 139525214 -526449727 -1163397907 -407188411 1251554642 2101936148 -120817091 -781200418 1732200538 76768004 1211288967 -2001794710 -1317707830 -968853503 -1198263768 -1234789199 866157659 -1088912548 -1884661305 1965271143 -1958890005 366438624 1868481689 1874864756 -2112197593
REM
CELL 1.54180   50.00000   50.00000   50.00000   90.00000   90.00000   90.00000
LATT -1
SFAC C  
C      1  0.6039840000000  0.5145120000000  0.4509580000000 1.0
C      1  0.4690460000000  0.4079050000000  0.4500860000000 1.0
C      1  0.4353530000000  0.5733560000000  0.4502610000000 1.0
C      1  0.4885280000000  0.5039150000000  0.4241070000000 1.0
C      1  0.5109120000000  0.5180500000000  0.4146430000000 1.0
C      1  0.5041520000000  0.4807450000000  0.4159310000000 1.0
C      1  0.5004390000000  0.5645210000000  0.5901810000000 1.0
C      1  0.5502940000000  0.4651310000000  0.5891420000000 1.0
C      1  0.4439970000000  0.4636300000000  0.5892670000000 1.0
C      1  0.4527140000000  0.6000310000000  0.4934490000000 1.0
C      1  0.6026840000000  0.4914480000000  0.4862870000000 1.0
C      1  0.4270750000000  0.4204170000000  0.4833770000000 1.0
C      1  0.5815550000000  0.5602180000000  0.4673770000000 1.0
C      1  0.5133770000000  0.4001150000000  0.4687550000000 1.0
C      1  0.4045090000000  0.5400960000000  0.4675190000000 1.0
C      1  0.4457910000000  0.4385340000000  0.4655470000000 1.0
C      1  0.4755530000000  0.5780250000000  0.4701500000000 1.0
C      1  0.5774810000000  0.4820700000000  0.4737190000000 1.0
C      1  0.4880390000000  0.4151920000000  0.4702150000000 1.0
C      1  0.4222920000000  0.5623520000000  0.4729460000000 1.0
C      1  0.5839220000000  0.5335930000000  0.4559210000000 1.0
C      1  0.5057640000000  0.4199620000000  0.5686690000000 1.0
C      1  0.4263440000000  0.5340010000000  0.5669230000000 1.0
C      1  0.5682830000000  0.5418820000000  0.5659070000000 1.0
C      1  0.4284670000000  0.5635940000000  0.5029040000000 1.0
C      1  0.5940270000000  0.5145300000000  0.5032240000000 1.0
C      1  0.4777630000000  0.4024480000000  0.5066200000000 1.0
C      1  0.5259390000000  0.5498770000000  0.5940150000000 1.0
C      1  0.5283340000000  0.4461650000000  0.5916110000000 1.0
C      1  0.4439120000000  0.4930470000000  0.5933020000000 1.0
C      1  0.5682750000000  0.5261340000000  0.4341470000000 1.0
C      1  0.4853000000000  0.4219090000000  0.4296620000000 1.0
C      1  0.4437280000000  0.5502170000000  0.4333790000000 1.0
C      1  0.4678890000000  0.5933860000000  0.5318060000000 1.0
C      1  0.5937270000000  0.4859680000000  0.5345540000000 1.0
C      1  0.4417660000000  0.4247640000000  0.5347060000000 1.0
C      1  0.5175550000000  0.4570120000000  0.5234190000000 1.0
C      1  0.4425080000000  0.5081390000000  0.5275640000000 1.0
C      1  0.5263880000000  0.5371890000000  0.5257530000000 1.0
C      1  0.5003970000000  0.5350590000000  0.4882360000000 1.0
C      1  0.5268960000000  0.4821630000000  0.4880550000000 1.0
C      1  0.4726710000000  0.4822480000000  0.4874410000000 1.0
C      1  0.4815270000000  0.5595060000000  0.4906910000000 1.0
C      1  0.5560120000000  0.4853960000000  0.4916810000000 1.0
C      1  0.4596220000000  0.4538270000000  0.4906400000000 1.0
C      1  0.5322400000000  0.5764090000000  0.5539020000000 1.0
C      1  0.5551550000000  0.4305710000000  0.5539130000000 1.0
C      1  0.4143010000000  0.4867790000000  0.5565510000000 1.0
C      1  0.4426290000000  0.5888980000000  0.5165750000000 1.0
C      1  0.5952930000000  0.5162250000000  0.5312170000000 1.0
C      1  0.4665090000000  0.4088790000000  0.5325780000000 1.0
C      1  0.4057870000000  0.5240370000000  0.4911040000000 1.0
C      1  0.5678730000000  0.5680790000000  0.4914950000000 1.0
C      1  0.5260880000000  0.4070810000000  0.4937880000000 1.0
C      1  0.5006160000000  0.5268500000000  0.5180140000000 1.0
C      1  0.5206870000000  0.4848670000000  0.5188870000000 1.0
C      1  0.4743980000000  0.4866970000000  0.5175980000000 1.0
C      1  0.5630770000000  0.5168990000000  0.4976150000000 1.0
C      1  0.4804640000000  0.4311310000000  0.4962460000000 1.0
C      1  0.4563750000000  0.5447390000000  0.4958160000000 1.0
C      1  0.4335570000000  0.4908660000000  0.5055910000000 1.0
C      1  0.5261540000000  0.5612920000000  0.5101370000000 1.0
C      1  0.5413430000000  0.4455880000000  0.5129310000000 1.0
C      1  0.4856450000000  0.5271750000000  0.4053760000000 1.0
C      1  0.5248770000000  0.4950940000000  0.4022840000000 1.0
C      1  0.4846580000000  0.4645540000000  0.4098610000000 1.0
C      1  0.5147850000000  0.4947880000000  0.4644470000000 1.0
C      1  0.4864650000000  0.4937010000000  0.4600870000000 1.0
C      1  0.4984390000000  0.5180130000000  0.4662820000000 1.0
C      1  0.5041980000000  0.5748500000000  0.5608430000000 1.0
C      1  0.5613890000000  0.4579780000000  0.5629330000000 1.0
C      1  0.4342420000000  0.4664750000000  0.5611010000000 1.0
C      1  0.4577080000000  0.4730370000000  0.4048050000000 1.0
C      1  0.4959620000000  0.5540290000000  0.4064100000000 1.0
C      1  0.5446580000000  0.4748590000000  0.4066640000000 1.0
C      1  0.4007640000000  0.4957860000000  0.4794860000000 1.0
C      1  0.5472090000000  0.5888740000000  0.4803880000000 1.0
C      1  0.5536910000000  0.4135040000000  0.4825490000000 1.0
C      1  0.5871530000000  0.4379400000000  0.4973800000000 1.0
C      1  0.4109320000000  0.4429370000000  0.4911220000000 1.0
C      1  0.5132430000000  0.6074070000000  0.4966120000000 1.0
C      1  0.4522670000000  0.5926440000000  0.4659420000000 1.0
C      1  0.6169420000000  0.4987810000000  0.4626180000000 1.0
C      1  0.4422330000000  0.4096470000000  0.4613660000000 1.0
C      1  0.5462840000000  0.5212580000000  0.4735740000000 1.0
C      1  0.4989560000000  0.4544050000000  0.4605880000000 1.0
C      1  0.4573060000000  0.5269030000000  0.4724740000000 1.0
C      1  0.4403300000000  0.4634360000000  0.5104690000000 1.0
C      1  0.4995290000000  0.5708710000000  0.5108970000000 1.0
C      1  0.5606740000000  0.4662170000000  0.5115100000000 1.0
C      1  0.5797700000000  0.5411840000000  0.5388800000000 1.0
C      1  0.4954570000000  0.4113470000000  0.5432480000000 1.0
C      1  0.4236090000000  0.5291180000000  0.5385170000000 1.0
C      1  0.5053590000000  0.4028560000000  0.5166450000000 1.0
C      1  0.4126320000000  0.5409360000000  0.5144320000000 1.0
C      1  0.5704640000000  0.5622790000000  0.5198940000000 1.0
C      1  0.5346010000000  0.4379820000000  0.4570580000000 1.0
C      1  0.4303530000000  0.5087730000000  0.4493350000000 1.0
C      1  0.5361540000000  0.5603030000000  0.4540620000000 1.0
C      1  0.4730780000000  0.4633550000000  0.5938190000000 1.0
C      1  0.4756340000000  0.5512460000000  0.5897040000000 1.0
C      1  0.5516200000000  0.4940670000000  0.5955060000000 1.0
C      1  0.3956510000000  0.4932210000000  0.5334830000000 1.0
C      1  0.5470830000000  0.5807840000000  0.5271150000000 1.0
C      1  0.5509950000000  0.4207090000000  0.5267620000000 1.0
C      1  0.4737010000000  0.4921140000000  0.5905310000000 1.0
C      1  0.5121880000000  0.5241960000000  0.5959030000000 1.0
C      1  0.5228280000000  0.4959260000000  0.5954050000000 1.0
C      1  0.4052450000000  0.5199610000000  0.4459140000000 1.0
C      1  0.5634270000000  0.5702820000000  0.4466730000000 1.0
C      1  0.5287320000000  0.4115270000000  0.4455470000000 1.0
C      1  0.4591720000000  0.5290770000000  0.5182350000000 1.0
C      1  0.5478660000000  0.5211130000000  0.5214070000000 1.0
C      1  0.4936010000000  0.4454280000000  0.5181080000000 1.0
C      1  0.5566210000000  0.5514780000000  0.4249230000000 1.0
C      1  0.5138110000000  0.4250280000000  0.4241750000000 1.0
C      1  0.4276320000000  0.5256610000000  0.4260320000000 1.0
C      1  0.4496860000000  0.4664720000000  0.4373450000000 1.0
C      1  0.4917940000000  0.5573990000000  0.4391350000000 1.0
C      1  0.5536650000000  0.4782100000000  0.4378580000000 1.0
C      1  0.5879870000000  0.4604190000000  0.5182370000000 1.0
C      1  0.4217390000000  0.4424320000000  0.5188980000000 1.0
C      1  0.4949540000000  0.5980590000000  0.5190110000000 1.0
C      1  0.4773340000000  0.4622210000000  0.5358030000000 1.0
C      1  0.4764500000000  0.5405510000000  0.5374220000000 1.0
C      1  0.5430170000000  0.4983100000000  0.5371550000000 1.0
C      1  0.4238280000000  0.5066560000000  0.5760430000000 1.0
C      1  0.5453260000000  0.5593090000000  0.5734650000000 1.0
C      1  0.5336950000000  0.4252310000000  0.5732500000000 1.0
C      1  0.4516850000000  0.4485140000000  0.5468180000000 1.0
C      1  0.4787660000000  0.5711770000000  0.5471670000000 1.0
C      1  0.5689260000000  0.4822660000000  0.5485640000000 1.0
C      1  0.4490480000000  0.5004600000000  0.4817010000000 1.0
C      1  0.5304090000000  0.5447550000000  0.4798840000000 1.0
C      1  0.5192920000000  0.4522140000000  0.4790040000000 1.0
C      1  0.4527660000000  0.5366100000000  0.5822580000000 1.0
C      1  0.5556310000000  0.5177300000000  0.5775210000000 1.0
C      1  0.4983330000000  0.4444320000000  0.5844860000000 1.0
C      1  0.5722680000000  0.4618390000000  0.4547720000000 1.0
C      1  0.4285360000000  0.4573280000000  0.4530160000000 1.0
C      1  0.4964670000000  0.5822270000000  0.4545170000000 1.0
C      1  0.5711070000000  0.4134730000000  0.5057600000000 1.0
C      1  0.3930580000000  0.4869440000000  0.5055610000000 1.0
C      1  0.5408320000000  0.6024460000000  0.5049740000000 1.0
C      1  0.5330170000000  0.5157290000000  0.5585190000000 1.0
C      1  0.4981460000000  0.4614290000000  0.5595060000000 1.0
C      1  0.4660870000000  0.5240910000000  0.5585930000000 1.0
C      1  0.5066730000000  0.5196560000000  0.5671960000000 1.0
C      1  0.5162320000000  0.4801200000000  0.5687690000000 1.0
C      1  0.4829600000000  0.5035510000000  0.5635750000000 1.0
C      1  0.4662680000000  0.5395110000000  0.4478660000000 1.0
C      1  0.5489260000000  0.5082670000000  0.4477320000000 1.0
C      1  0.4801140000000  0.4527680000000  0.4370990000000 1.0
C      1  0.5176550000000  0.5923550000000  0.4715770000000 1.0
C      1  0.5719180000000  0.4389800000000  0.4724460000000 1.0
C      1  0.4110560000000  0.4673040000000  0.4734010000000 1.0
C      1  0.5182290000000  0.5486610000000  0.4379220000000 1.0
C      1  0.5330070000000  0.4564520000000  0.4391330000000 1.0
C      1  0.4452680000000  0.4924710000000  0.4359970000000 1.0
C      1  0.4437900000000  0.4965510000000  0.4089830000000 1.0
C      1  0.5245890000000  0.5544200000000  0.4109140000000 1.0
C      1  0.5311280000000  0.4493270000000  0.4114600000000 1.0
C      1  0.4972620000000  0.4997510000000  0.5263830000000 1.0
END
