TITL C-2441154-10-422 0.0284585402569423 125000 -24360.9852844368 0 0 167 (C1) n - 1
REM
REM in /home/bkarasulu/work/CARBON/AIRSS/Generating-Clusters/ReaxFF-fromJPCA2015/Units_Real/with-SteepDescent/Higher-Symm
REM
REM
REM
REM
REM
REM ./C.cell (1df0a924f5614ab8850e4351716899ee)
REM
REM compiler GCC version 9.2.1 20190827 (Red Hat 9.2.1-1)
REM options -cpp -mtune=generic -march=x86-64 -g -O0 -fpre-include=/usr/include/finclude/math-vector-fortran.h
REM seed -79426760 -262268253 1128050206 -384655386 1013302915 200328289 -202378774 -799549476 -629932076 -2117170307 530950474 -1616537092 1650852027 824806788 -85162340 -146974772 888805622 -1451104341 292487938 -885535039 247354380 563211484 -348494102 1937331441 592325032 2041268238 -1290073634 918456453 -147586111 -334446964 -480606152 1664231798 1434772381
REM
CELL 1.54180   50.00000   50.00000   50.00000   90.00000   90.00000   90.00000
LATT -1
SFAC C  
C      1  0.4159100000000  0.5205430000000  0.4568730000000 1.0
C      1  0.4104680000000  0.4453660000000  0.5002870000000 1.0
C      1  0.4159710000000  0.5248860000000  0.5401350000000 1.0
C      1  0.5893190000000  0.5256360000000  0.4498120000000 1.0
C      1  0.5811080000000  0.4537550000000  0.5020660000000 1.0
C      1  0.5863450000000  0.5261700000000  0.5417840000000 1.0
C      1  0.5150300000000  0.5940380000000  0.4875380000000 1.0
C      1  0.5107900000000  0.4424190000000  0.4208400000000 1.0
C      1  0.5234470000000  0.4487510000000  0.5800100000000 1.0
C      1  0.4782760000000  0.5943170000000  0.5042420000000 1.0
C      1  0.4743830000000  0.4544170000000  0.4144360000000 1.0
C      1  0.4855220000000  0.4618440000000  0.5911310000000 1.0
C      1  0.5208290000000  0.4961330000000  0.4080770000000 1.0
C      1  0.5237200000000  0.4195920000000  0.5463190000000 1.0
C      1  0.5266420000000  0.5815700000000  0.5394470000000 1.0
C      1  0.4793810000000  0.4963840000000  0.4060220000000 1.0
C      1  0.4715610000000  0.4245250000000  0.5514150000000 1.0
C      1  0.4753460000000  0.5795040000000  0.5438050000000 1.0
C      1  0.4618220000000  0.5499590000000  0.4957560000000 1.0
C      1  0.4669550000000  0.4765940000000  0.4684610000000 1.0
C      1  0.4620500000000  0.4866590000000  0.5592310000000 1.0
C      1  0.5405510000000  0.5520220000000  0.4839990000000 1.0
C      1  0.5356660000000  0.4649980000000  0.4596100000000 1.0
C      1  0.5338790000000  0.4784480000000  0.5424250000000 1.0
C      1  0.5777400000000  0.4411680000000  0.4523780000000 1.0
C      1  0.5713690000000  0.4907210000000  0.5787480000000 1.0
C      1  0.5826840000000  0.5717100000000  0.4708490000000 1.0
C      1  0.4285600000000  0.4350720000000  0.4518740000000 1.0
C      1  0.4171210000000  0.4892010000000  0.5759300000000 1.0
C      1  0.4272510000000  0.5714200000000  0.4688340000000 1.0
C      1  0.4341500000000  0.5117860000000  0.4778910000000 1.0
C      1  0.4328810000000  0.4922260000000  0.4989490000000 1.0
C      1  0.4329440000000  0.5056800000000  0.5242920000000 1.0
C      1  0.5656310000000  0.5070870000000  0.4946570000000 1.0
C      1  0.5646030000000  0.4787370000000  0.4958740000000 1.0
C      1  0.5669400000000  0.5134850000000  0.5227970000000 1.0
C      1  0.5418910000000  0.4649830000000  0.4868830000000 1.0
C      1  0.5458000000000  0.5062710000000  0.5398530000000 1.0
C      1  0.5492390000000  0.5249700000000  0.4777740000000 1.0
C      1  0.4501630000000  0.4697400000000  0.4915980000000 1.0
C      1  0.4550120000000  0.5072920000000  0.5414560000000 1.0
C      1  0.4587210000000  0.5270150000000  0.4778400000000 1.0
C      1  0.4260380000000  0.4352970000000  0.5242130000000 1.0
C      1  0.4327530000000  0.5520370000000  0.5419770000000 1.0
C      1  0.4284110000000  0.5083830000000  0.4280500000000 1.0
C      1  0.5656390000000  0.4382490000000  0.5234530000000 1.0
C      1  0.5737910000000  0.5567930000000  0.5449640000000 1.0
C      1  0.5706550000000  0.5126770000000  0.4302130000000 1.0
C      1  0.4555450000000  0.3896700000000  0.4767090000000 1.0
C      1  0.4546270000000  0.5225190000000  0.5981820000000 1.0
C      1  0.4548510000000  0.5738360000000  0.4188760000000 1.0
C      1  0.5425540000000  0.3981010000000  0.4695850000000 1.0
C      1  0.5442670000000  0.5344620000000  0.6055870000000 1.0
C      1  0.5444030000000  0.5799380000000  0.4263440000000 1.0
C      1  0.3927780000000  0.5196980000000  0.4798680000000 1.0
C      1  0.3969710000000  0.4704850000000  0.4904790000000 1.0
C      1  0.3908590000000  0.5075850000000  0.5269600000000 1.0
C      1  0.6023640000000  0.5206460000000  0.4772120000000 1.0
C      1  0.6063000000000  0.4728700000000  0.4915300000000 1.0
C      1  0.6075200000000  0.5056550000000  0.5283450000000 1.0
C      1  0.5145310000000  0.5582840000000  0.5264420000000 1.0
C      1  0.5126040000000  0.4942700000000  0.4350340000000 1.0
C      1  0.5103600000000  0.4403050000000  0.5310590000000 1.0
C      1  0.4870560000000  0.5556340000000  0.5332290000000 1.0
C      1  0.4841750000000  0.4968280000000  0.4366520000000 1.0
C      1  0.4841540000000  0.4467980000000  0.5389490000000 1.0
C      1  0.4838830000000  0.5667570000000  0.4927710000000 1.0
C      1  0.4808120000000  0.4666840000000  0.4447960000000 1.0
C      1  0.4867160000000  0.4692720000000  0.5594070000000 1.0
C      1  0.5138100000000  0.5628550000000  0.4960880000000 1.0
C      1  0.5111590000000  0.4670960000000  0.4435950000000 1.0
C      1  0.5145130000000  0.4724020000000  0.5636070000000 1.0
C      1  0.5997350000000  0.5410120000000  0.4934530000000 1.0
C      1  0.6002570000000  0.4733700000000  0.4654270000000 1.0
C      1  0.5963880000000  0.4859080000000  0.5437330000000 1.0
C      1  0.4018860000000  0.5437140000000  0.4889420000000 1.0
C      1  0.4056580000000  0.4685820000000  0.4647720000000 1.0
C      1  0.3968780000000  0.4845070000000  0.5389190000000 1.0
C      1  0.4349830000000  0.4053960000000  0.4917210000000 1.0
C      1  0.4336430000000  0.5361410000000  0.5851800000000 1.0
C      1  0.4338470000000  0.5523340000000  0.4238200000000 1.0
C      1  0.5627240000000  0.4096820000000  0.4879730000000 1.0
C      1  0.5655790000000  0.5395490000000  0.5842860000000 1.0
C      1  0.5628290000000  0.5560080000000  0.4253510000000 1.0
C      1  0.4199800000000  0.4281740000000  0.4791420000000 1.0
C      1  0.4168620000000  0.5173820000000  0.5694270000000 1.0
C      1  0.4212830000000  0.5500290000000  0.4503760000000 1.0
C      1  0.5791940000000  0.4327890000000  0.4797590000000 1.0
C      1  0.5789550000000  0.5172690000000  0.5701920000000 1.0
C      1  0.5831860000000  0.5529920000000  0.4476770000000 1.0
C      1  0.4892740000000  0.5115970000000  0.5154880000000 1.0
C      1  0.4895440000000  0.4880440000000  0.4812050000000 1.0
C      1  0.4871910000000  0.4826710000000  0.5099840000000 1.0
C      1  0.5173270000000  0.5090160000000  0.5080390000000 1.0
C      1  0.5142920000000  0.5017500000000  0.4787750000000 1.0
C      1  0.5161090000000  0.4799450000000  0.5170190000000 1.0
C      1  0.4819720000000  0.5642820000000  0.4285720000000 1.0
C      1  0.4817690000000  0.4058410000000  0.4813580000000 1.0
C      1  0.4789570000000  0.5122740000000  0.5923080000000 1.0
C      1  0.5224300000000  0.5723350000000  0.4451190000000 1.0
C      1  0.5249940000000  0.4221690000000  0.4612990000000 1.0
C      1  0.5171970000000  0.5318580000000  0.5922620000000 1.0
C      1  0.5382740000000  0.4499580000000  0.4160430000000 1.0
C      1  0.5457000000000  0.4600130000000  0.5932640000000 1.0
C      1  0.5428560000000  0.5977300000000  0.4950280000000 1.0
C      1  0.4521240000000  0.4379560000000  0.4182810000000 1.0
C      1  0.4573920000000  0.4540920000000  0.5886080000000 1.0
C      1  0.4543820000000  0.6031510000000  0.4923330000000 1.0
C      1  0.4266190000000  0.4443940000000  0.5512540000000 1.0
C      1  0.4402450000000  0.5640800000000  0.5156820000000 1.0
C      1  0.4332050000000  0.4814910000000  0.4227310000000 1.0
C      1  0.5580380000000  0.4525310000000  0.5472330000000 1.0
C      1  0.5727730000000  0.5739510000000  0.5230400000000 1.0
C      1  0.5687990000000  0.4846640000000  0.4247440000000 1.0
C      1  0.5096770000000  0.4384650000000  0.4825530000000 1.0
C      1  0.5152180000000  0.5216480000000  0.5634820000000 1.0
C      1  0.5144220000000  0.5445420000000  0.4506030000000 1.0
C      1  0.4829730000000  0.4361380000000  0.4879440000000 1.0
C      1  0.4889950000000  0.5188970000000  0.5650320000000 1.0
C      1  0.4868210000000  0.5439450000000  0.4519440000000 1.0
C      1  0.5554950000000  0.5605050000000  0.5666650000000 1.0
C      1  0.5508130000000  0.5310790000000  0.4175710000000 1.0
C      1  0.5512530000000  0.4158230000000  0.5144850000000 1.0
C      1  0.4470550000000  0.5550890000000  0.5659290000000 1.0
C      1  0.4443060000000  0.5271410000000  0.4137490000000 1.0
C      1  0.4444120000000  0.4133110000000  0.5178190000000 1.0
C      1  0.4719010000000  0.4064930000000  0.5283180000000 1.0
C      1  0.4758210000000  0.5681520000000  0.5708000000000 1.0
C      1  0.4735230000000  0.5244820000000  0.4031350000000 1.0
C      1  0.5236430000000  0.4024080000000  0.5221720000000 1.0
C      1  0.5267850000000  0.5717570000000  0.5667450000000 1.0
C      1  0.5226800000000  0.5255060000000  0.4078890000000 1.0
C      1  0.5874510000000  0.4669470000000  0.4416440000000 1.0
C      1  0.5803620000000  0.4700440000000  0.5598650000000 1.0
C      1  0.5907640000000  0.5663520000000  0.4987980000000 1.0
C      1  0.4190480000000  0.4615810000000  0.4416290000000 1.0
C      1  0.4078380000000  0.4673970000000  0.5575840000000 1.0
C      1  0.4161370000000  0.5664470000000  0.4952930000000 1.0
C      1  0.5433340000000  0.4332220000000  0.5639070000000 1.0
C      1  0.5487760000000  0.5909990000000  0.5229960000000 1.0
C      1  0.5445020000000  0.4776730000000  0.4099840000000 1.0
C      1  0.4494920000000  0.4354160000000  0.5671440000000 1.0
C      1  0.4556150000000  0.5913400000000  0.5244370000000 1.0
C      1  0.4572720000000  0.4766450000000  0.4052320000000 1.0
C      1  0.5048590000000  0.5924190000000  0.4597940000000 1.0
C      1  0.5044440000000  0.4195160000000  0.4382000000000 1.0
C      1  0.5205630000000  0.4998180000000  0.6014500000000 1.0
C      1  0.4780410000000  0.5857790000000  0.4521150000000 1.0
C      1  0.4797080000000  0.4121080000000  0.4503150000000 1.0
C      1  0.4951320000000  0.4872020000000  0.6028380000000 1.0
C      1  0.4756010000000  0.5186760000000  0.4564710000000 1.0
C      1  0.4696930000000  0.4545600000000  0.5076860000000 1.0
C      1  0.4776390000000  0.5266020000000  0.5385350000000 1.0
C      1  0.5275820000000  0.5177590000000  0.4569790000000 1.0
C      1  0.5216140000000  0.4532830000000  0.5051950000000 1.0
C      1  0.5268900000000  0.5279200000000  0.5369310000000 1.0
C      1  0.4451080000000  0.4797210000000  0.5807630000000 1.0
C      1  0.4525330000000  0.5896040000000  0.4673720000000 1.0
C      1  0.4524050000000  0.4200440000000  0.4394920000000 1.0
C      1  0.5475140000000  0.4868940000000  0.5992570000000 1.0
C      1  0.5543220000000  0.5764190000000  0.4777120000000 1.0
C      1  0.5477960000000  0.4430310000000  0.4444480000000 1.0
C      1  0.5031910000000  0.5600970000000  0.5787930000000 1.0
C      1  0.4970810000000  0.5393590000000  0.4097500000000 1.0
C      1  0.4958320000000  0.4011670000000  0.5124370000000 1.0
C      1  0.3879800000000  0.4984940000000  0.4997730000000 1.0
C      1  0.6109270000000  0.5005720000000  0.4989960000000 1.0
END
