TITL C-2441166-8118-220 0.026563538113136 125000 -6589.63685803266 0 0 53 (C1) n - 1
REM
REM in /home/bkarasulu/work/CARBON/AIRSS/Generating-Clusters/ReaxFF-fromJPCA2015/Units_Real/with-SteepDescent/Higher-Symm
REM
REM
REM
REM
REM
REM ./C.cell (1df0a924f5614ab8850e4351716899ee)
REM
REM compiler GCC version 9.2.1 20190827 (Red Hat 9.2.1-1)
REM options -cpp -mtune=generic -march=x86-64 -g -O0 -fpre-include=/usr/include/finclude/math-vector-fortran.h
REM seed 1773176684 2095838326 1946024428 -988713670 -2004446457 -1295640424 -1850717897 226369518 -1011034763 2130718832 -1371534831 -1452186098 -1065151112 1435273972 1194357821 1308343780 497703069 -1278612017 536121436 -1047296910 -1292094115 393590513 1376316580 -1406825662 -1398709254 187815373 1062898987 -1922340930 -1372911657 1631997339 -713192769 843759372 1659244557
REM
CELL 1.54180   50.00000   50.00000   50.00000   90.00000   90.00000   90.00000
LATT -1
SFAC C  
C      1  0.5324810000000  0.5253900000000  0.5403380000000 1.0
C      1  0.5322140000000  0.5251030000000  0.4602460000000 1.0
C      1  0.5573340000000  0.4582110000000  0.4865850000000 1.0
C      1  0.5582510000000  0.4575940000000  0.5162270000000 1.0
C      1  0.4690480000000  0.5392280000000  0.4771960000000 1.0
C      1  0.4657780000000  0.5415810000000  0.5238110000000 1.0
C      1  0.5742400000000  0.5320500000000  0.4854320000000 1.0
C      1  0.5744980000000  0.5322520000000  0.5166690000000 1.0
C      1  0.5299810000000  0.4972430000000  0.5330430000000 1.0
C      1  0.5244390000000  0.4986240000000  0.4716930000000 1.0
C      1  0.5031100000000  0.4430190000000  0.4722260000000 1.0
C      1  0.5060190000000  0.4427240000000  0.5282940000000 1.0
C      1  0.4927720000000  0.4647620000000  0.4598040000000 1.0
C      1  0.4932450000000  0.4641770000000  0.5387380000000 1.0
C      1  0.4788500000000  0.5662840000000  0.4857240000000 1.0
C      1  0.4780370000000  0.5670140000000  0.5154290000000 1.0
C      1  0.4459230000000  0.4724760000000  0.5239430000000 1.0
C      1  0.4457450000000  0.4718290000000  0.4786600000000 1.0
C      1  0.4576790000000  0.4437210000000  0.4883090000000 1.0
C      1  0.4585110000000  0.4440370000000  0.5161100000000 1.0
C      1  0.4845110000000  0.4288630000000  0.5174460000000 1.0
C      1  0.4837360000000  0.4286190000000  0.4855500000000 1.0
C      1  0.4928560000000  0.5181870000000  0.4871500000000 1.0
C      1  0.4892020000000  0.5199760000000  0.5156290000000 1.0
C      1  0.5410930000000  0.4750670000000  0.4696550000000 1.0
C      1  0.5430950000000  0.4727070000000  0.5356860000000 1.0
C      1  0.5726730000000  0.5026150000000  0.5159270000000 1.0
C      1  0.5720970000000  0.5026520000000  0.4867110000000 1.0
C      1  0.4732910000000  0.5470450000000  0.5509890000000 1.0
C      1  0.4743080000000  0.5469160000000  0.4496750000000 1.0
C      1  0.4464640000000  0.4901570000000  0.5469710000000 1.0
C      1  0.4447280000000  0.4878780000000  0.4541250000000 1.0
C      1  0.5823780000000  0.4742110000000  0.4863170000000 1.0
C      1  0.5828100000000  0.4741590000000  0.5157200000000 1.0
C      1  0.4726300000000  0.5262520000000  0.5651760000000 1.0
C      1  0.4714750000000  0.5272480000000  0.4371100000000 1.0
C      1  0.4395680000000  0.5353640000000  0.4907680000000 1.0
C      1  0.4347190000000  0.5357730000000  0.5119640000000 1.0
C      1  0.5574470000000  0.5426880000000  0.5385060000000 1.0
C      1  0.5572890000000  0.5414790000000  0.4627470000000 1.0
C      1  0.4734700000000  0.4596700000000  0.5617490000000 1.0
C      1  0.4742120000000  0.4607800000000  0.4359360000000 1.0
C      1  0.5074410000000  0.5654640000000  0.5159910000000 1.0
C      1  0.5079740000000  0.5658740000000  0.4866990000000 1.0
C      1  0.4636780000000  0.4870740000000  0.5682600000000 1.0
C      1  0.4623130000000  0.4882050000000  0.4320750000000 1.0
C      1  0.5106340000000  0.5376430000000  0.5258250000000 1.0
C      1  0.5124660000000  0.5376840000000  0.4774240000000 1.0
C      1  0.5180810000000  0.4761550000000  0.5471850000000 1.0
C      1  0.5184070000000  0.4757610000000  0.4546680000000 1.0
C      1  0.4671410000000  0.5043030000000  0.4528030000000 1.0
C      1  0.4712790000000  0.5039850000000  0.5475110000000 1.0
C      1  0.4433690000000  0.4861770000000  0.5009580000000 1.0
END
