TITL C-2441160-1326-1423 0.0251233680548592 125000 -14266.3959108502 0 0 101 (C1) n - 1
REM
REM in /home/bkarasulu/work/CARBON/AIRSS/Generating-Clusters/ReaxFF-fromJPCA2015/Units_Real/with-SteepDescent/Higher-Symm
REM
REM
REM
REM
REM
REM ./C.cell (1df0a924f5614ab8850e4351716899ee)
REM
REM compiler GCC version 9.2.1 20190827 (Red Hat 9.2.1-1)
REM options -cpp -mtune=generic -march=x86-64 -g -O0 -fpre-include=/usr/include/finclude/math-vector-fortran.h
REM seed 900639881 914654019 -208116136 771128976 1340314567 -2022680689 718386415 955023917 783940691 1424924392 788666703 83603122 1336645663 -2136863462 -1960142700 1451693873 -1295016906 1416596612 -604438449 1538511764 -230358733 -1083083538 1803212967 452300829 -1829127971 -379230582 17314341 2123222691 478589574 1705401009 571100657 -840315471 251318667
REM
CELL 1.54180   50.00000   50.00000   50.00000   90.00000   90.00000   90.00000
LATT -1
SFAC C  
C      1  0.4867930000000  0.5620500000000  0.4520100000000 1.0
C      1  0.4909380000000  0.4286170000000  0.4803140000000 1.0
C      1  0.4901290000000  0.5183670000000  0.5723200000000 1.0
C      1  0.5129300000000  0.5533120000000  0.4482520000000 1.0
C      1  0.5171930000000  0.4273790000000  0.4712170000000 1.0
C      1  0.5162460000000  0.5101130000000  0.5779530000000 1.0
C      1  0.5536710000000  0.4219380000000  0.5143520000000 1.0
C      1  0.5533880000000  0.5509280000000  0.5609130000000 1.0
C      1  0.5528640000000  0.5267660000000  0.4256800000000 1.0
C      1  0.4493680000000  0.4220180000000  0.5150520000000 1.0
C      1  0.4500270000000  0.5514160000000  0.5608500000000 1.0
C      1  0.4496380000000  0.5265930000000  0.4257990000000 1.0
C      1  0.4875570000000  0.4853190000000  0.4176290000000 1.0
C      1  0.4870460000000  0.4361510000000  0.5538410000000 1.0
C      1  0.4870770000000  0.5781350000000  0.5289360000000 1.0
C      1  0.5158800000000  0.4851610000000  0.4190900000000 1.0
C      1  0.5154720000000  0.4354840000000  0.5531930000000 1.0
C      1  0.5154250000000  0.5786060000000  0.5292460000000 1.0
C      1  0.5412060000000  0.5748760000000  0.4839200000000 1.0
C      1  0.5427940000000  0.4485390000000  0.4411590000000 1.0
C      1  0.5413330000000  0.4743630000000  0.5750810000000 1.0
C      1  0.4603610000000  0.5768170000000  0.4859540000000 1.0
C      1  0.4623450000000  0.4479660000000  0.4437890000000 1.0
C      1  0.4610320000000  0.4770550000000  0.5741610000000 1.0
C      1  0.4626420000000  0.4346680000000  0.4694180000000 1.0
C      1  0.4619920000000  0.5059500000000  0.5725910000000 1.0
C      1  0.4599760000000  0.5637000000000  0.4599150000000 1.0
C      1  0.5443030000000  0.4324590000000  0.4657340000000 1.0
C      1  0.5432730000000  0.5034260000000  0.5763890000000 1.0
C      1  0.5409920000000  0.5594200000000  0.4594390000000 1.0
C      1  0.4674040000000  0.5041290000000  0.5255210000000 1.0
C      1  0.4669010000000  0.5231290000000  0.4815130000000 1.0
C      1  0.4681900000000  0.4763740000000  0.4896010000000 1.0
C      1  0.5355950000000  0.5040350000000  0.5295290000000 1.0
C      1  0.5347020000000  0.5206370000000  0.4853680000000 1.0
C      1  0.5341770000000  0.4750870000000  0.4910100000000 1.0
C      1  0.5731040000000  0.5549650000000  0.5050910000000 1.0
C      1  0.5733050000000  0.4757870000000  0.4495840000000 1.0
C      1  0.5749010000000  0.4661960000000  0.5443240000000 1.0
C      1  0.4300300000000  0.5553430000000  0.5040900000000 1.0
C      1  0.4301630000000  0.4768520000000  0.4496350000000 1.0
C      1  0.4301180000000  0.4682510000000  0.5455790000000 1.0
C      1  0.4640250000000  0.4993980000000  0.4286440000000 1.0
C      1  0.4620080000000  0.4368190000000  0.5382800000000 1.0
C      1  0.4615690000000  0.5664320000000  0.5374510000000 1.0
C      1  0.5409330000000  0.4991260000000  0.4248580000000 1.0
C      1  0.5392040000000  0.4388880000000  0.5359370000000 1.0
C      1  0.5391650000000  0.5621090000000  0.5357970000000 1.0
C      1  0.5918460000000  0.4960350000000  0.5227830000000 1.0
C      1  0.5914010000000  0.5214170000000  0.4914760000000 1.0
C      1  0.5910850000000  0.4816950000000  0.4855700000000 1.0
C      1  0.4118000000000  0.4970830000000  0.5233410000000 1.0
C      1  0.4114470000000  0.5208410000000  0.4925610000000 1.0
C      1  0.4118410000000  0.4811970000000  0.4856370000000 1.0
C      1  0.5869050000000  0.4937820000000  0.4618880000000 1.0
C      1  0.5892840000000  0.4694450000000  0.5243200000000 1.0
C      1  0.5878830000000  0.5358670000000  0.5137500000000 1.0
C      1  0.4151560000000  0.4935750000000  0.4619170000000 1.0
C      1  0.4158370000000  0.4701500000000  0.5240810000000 1.0
C      1  0.4159480000000  0.5359510000000  0.5143110000000 1.0
C      1  0.5817030000000  0.5182680000000  0.5361120000000 1.0
C      1  0.5810170000000  0.5220050000000  0.4658500000000 1.0
C      1  0.5820110000000  0.4584820000000  0.4978270000000 1.0
C      1  0.4221020000000  0.5187280000000  0.5370830000000 1.0
C      1  0.4213920000000  0.5215080000000  0.4664840000000 1.0
C      1  0.4220940000000  0.4588120000000  0.4979140000000 1.0
C      1  0.4421170000000  0.5380750000000  0.4515770000000 1.0
C      1  0.4414450000000  0.4363230000000  0.4905600000000 1.0
C      1  0.4410660000000  0.5233440000000  0.5603630000000 1.0
C      1  0.5618640000000  0.5401040000000  0.4504190000000 1.0
C      1  0.5634870000000  0.4359440000000  0.4910030000000 1.0
C      1  0.5608160000000  0.5229260000000  0.5575320000000 1.0
C      1  0.4465810000000  0.4559050000000  0.5593100000000 1.0
C      1  0.4459080000000  0.5739200000000  0.5107620000000 1.0
C      1  0.4478710000000  0.4713370000000  0.4330340000000 1.0
C      1  0.5566010000000  0.4556150000000  0.5581260000000 1.0
C      1  0.5555530000000  0.5722400000000  0.5094480000000 1.0
C      1  0.5566790000000  0.4719350000000  0.4304790000000 1.0
C      1  0.5257380000000  0.5093280000000  0.4608800000000 1.0
C      1  0.5230100000000  0.4591020000000  0.5117460000000 1.0
C      1  0.5232730000000  0.5305860000000  0.5311470000000 1.0
C      1  0.4797890000000  0.5115820000000  0.4583310000000 1.0
C      1  0.4772260000000  0.4610290000000  0.5120030000000 1.0
C      1  0.4773760000000  0.5304860000000  0.5277880000000 1.0
C      1  0.5167220000000  0.4811910000000  0.5321440000000 1.0
C      1  0.5165650000000  0.5367080000000  0.5022100000000 1.0
C      1  0.5180180000000  0.4826250000000  0.4679740000000 1.0
C      1  0.4854560000000  0.4812980000000  0.5317440000000 1.0
C      1  0.4844990000000  0.5376410000000  0.5008030000000 1.0
C      1  0.4863680000000  0.4835140000000  0.4676120000000 1.0
C      1  0.5153970000000  0.5715480000000  0.4997940000000 1.0
C      1  0.5169130000000  0.4639420000000  0.4407950000000 1.0
C      1  0.5157930000000  0.4646840000000  0.5619630000000 1.0
C      1  0.4859520000000  0.5709320000000  0.4992860000000 1.0
C      1  0.4878190000000  0.4636280000000  0.4387850000000 1.0
C      1  0.4862660000000  0.4652870000000  0.5623860000000 1.0
C      1  0.4986340000000  0.4453920000000  0.5030340000000 1.0
C      1  0.5048630000000  0.5252090000000  0.4509640000000 1.0
C      1  0.4982180000000  0.5303260000000  0.5467610000000 1.0
C      1  0.5446420000000  0.4994500000000  0.5022410000000 1.0
C      1  0.4574820000000  0.5014550000000  0.4985140000000 1.0
END
