TITL C-2441168-9922-315 0.0490883745066765 125000 -25483.6442263583 0 0 178 (C1) n - 1
REM
REM in /home/bkarasulu/work/CARBON/AIRSS/Generating-Clusters/ReaxFF-fromJPCA2015/Units_Real/with-SteepDescent/Higher-Symm
REM
REM
REM
REM
REM
REM ./C.cell (1df0a924f5614ab8850e4351716899ee)
REM
REM compiler GCC version 9.2.1 20190827 (Red Hat 9.2.1-1)
REM options -cpp -mtune=generic -march=x86-64 -g -O0 -fpre-include=/usr/include/finclude/math-vector-fortran.h
REM seed 1021139139 883608907 -1329113334 457460555 -1368948264 -1210380365 601788062 -2016812556 -107571652 1441136538 1352885766 -2129963597 -1837121953 733476077 80167677 -1158798078 1812423721 1897507837 -200162986 -487747075 -268798547 -141181481 563681423 288955581 -1955362253 -592585124 605644708 1110632338 1765746601 -1630529512 732465850 1946201826 -1587334349
REM
CELL 1.54180   50.00000   50.00000   50.00000   90.00000   90.00000   90.00000
LATT -1
SFAC C  
C      1  0.5238680000000  0.4675080000000  0.5988330000000 1.0
C      1  0.4755480000000  0.4676000000000  0.4015110000000 1.0
C      1  0.5243580000000  0.5322020000000  0.5972280000000 1.0
C      1  0.4770220000000  0.5331260000000  0.4028340000000 1.0
C      1  0.4798100000000  0.5692850000000  0.5902580000000 1.0
C      1  0.5173950000000  0.5691650000000  0.4082220000000 1.0
C      1  0.4823710000000  0.4318540000000  0.5908460000000 1.0
C      1  0.5200830000000  0.4318470000000  0.4102750000000 1.0
C      1  0.4752120000000  0.3976050000000  0.5261690000000 1.0
C      1  0.5256870000000  0.3971330000000  0.4718990000000 1.0
C      1  0.4743910000000  0.6051460000000  0.5285840000000 1.0
C      1  0.5215500000000  0.6062410000000  0.4798400000000 1.0
C      1  0.4712670000000  0.4766320000000  0.5971620000000 1.0
C      1  0.5198280000000  0.4737060000000  0.4090080000000 1.0
C      1  0.4765820000000  0.5253520000000  0.5895620000000 1.0
C      1  0.5268130000000  0.5170820000000  0.4014980000000 1.0
C      1  0.3969300000000  0.4632510000000  0.4847910000000 1.0
C      1  0.6037280000000  0.4625080000000  0.5155850000000 1.0
C      1  0.3976870000000  0.5363150000000  0.4842300000000 1.0
C      1  0.5987430000000  0.5338440000000  0.5126800000000 1.0
C      1  0.5034390000000  0.4861240000000  0.6055550000000 1.0
C      1  0.4963100000000  0.4856790000000  0.3930600000000 1.0
C      1  0.5034920000000  0.5142330000000  0.6049550000000 1.0
C      1  0.4977030000000  0.5148690000000  0.3928960000000 1.0
C      1  0.5305150000000  0.4802060000000  0.5070790000000 1.0
C      1  0.4765470000000  0.4890340000000  0.4925400000000 1.0
C      1  0.5253400000000  0.5187670000000  0.5021580000000 1.0
C      1  0.4816030000000  0.5181200000000  0.4957380000000 1.0
C      1  0.5440690000000  0.4434320000000  0.4197980000000 1.0
C      1  0.4581590000000  0.4477340000000  0.5913510000000 1.0
C      1  0.5409070000000  0.5545880000000  0.4071120000000 1.0
C      1  0.4563970000000  0.5556970000000  0.5840550000000 1.0
C      1  0.4618020000000  0.4766400000000  0.4518660000000 1.0
C      1  0.5432790000000  0.4729530000000  0.5448270000000 1.0
C      1  0.4593310000000  0.5275630000000  0.4571430000000 1.0
C      1  0.5377710000000  0.5271030000000  0.5472950000000 1.0
C      1  0.5185090000000  0.4815290000000  0.4787300000000 1.0
C      1  0.4848440000000  0.4831860000000  0.5215650000000 1.0
C      1  0.5192180000000  0.5113330000000  0.4749310000000 1.0
C      1  0.4841730000000  0.5142540000000  0.5238310000000 1.0
C      1  0.5221290000000  0.5524970000000  0.4618680000000 1.0
C      1  0.4745600000000  0.5596940000000  0.5431920000000 1.0
C      1  0.5226020000000  0.4413740000000  0.4597610000000 1.0
C      1  0.4779030000000  0.4456240000000  0.5375960000000 1.0
C      1  0.5328330000000  0.4151350000000  0.4480890000000 1.0
C      1  0.4699840000000  0.4192320000000  0.5479020000000 1.0
C      1  0.5372920000000  0.5733790000000  0.4487730000000 1.0
C      1  0.4663410000000  0.5872610000000  0.5517980000000 1.0
C      1  0.4370910000000  0.5165020000000  0.5571170000000 1.0
C      1  0.5674790000000  0.5168100000000  0.4347540000000 1.0
C      1  0.4365640000000  0.4844380000000  0.5588330000000 1.0
C      1  0.5687610000000  0.4870430000000  0.4341340000000 1.0
C      1  0.4862750000000  0.5182250000000  0.4548640000000 1.0
C      1  0.5159820000000  0.5094630000000  0.5563020000000 1.0
C      1  0.4838460000000  0.4924480000000  0.4436400000000 1.0
C      1  0.5187490000000  0.4826820000000  0.5519690000000 1.0
C      1  0.5754220000000  0.5596260000000  0.5462680000000 1.0
C      1  0.4241630000000  0.5600760000000  0.4514660000000 1.0
C      1  0.5779920000000  0.4393350000000  0.5484730000000 1.0
C      1  0.4237350000000  0.4395900000000  0.4519140000000 1.0
C      1  0.5513480000000  0.5344370000000  0.5853230000000 1.0
C      1  0.4489410000000  0.5355240000000  0.4130570000000 1.0
C      1  0.5525120000000  0.4654220000000  0.5874950000000 1.0
C      1  0.4485820000000  0.4652430000000  0.4124600000000 1.0
C      1  0.4439070000000  0.4404280000000  0.4290990000000 1.0
C      1  0.5572460000000  0.4418850000000  0.5703690000000 1.0
C      1  0.4442620000000  0.5593840000000  0.4295280000000 1.0
C      1  0.5559610000000  0.5594740000000  0.5692910000000 1.0
C      1  0.4681090000000  0.4020980000000  0.4705190000000 1.0
C      1  0.5321120000000  0.4003290000000  0.5281040000000 1.0
C      1  0.4689560000000  0.6010390000000  0.4722810000000 1.0
C      1  0.5316880000000  0.5980680000000  0.5288120000000 1.0
C      1  0.5178660000000  0.5580560000000  0.4894920000000 1.0
C      1  0.4744630000000  0.5617130000000  0.5138090000000 1.0
C      1  0.5211650000000  0.4413160000000  0.4896080000000 1.0
C      1  0.4784710000000  0.4418320000000  0.5089890000000 1.0
C      1  0.4991530000000  0.5519370000000  0.5554520000000 1.0
C      1  0.5062250000000  0.5353450000000  0.4433150000000 1.0
C      1  0.4965910000000  0.4638230000000  0.5578880000000 1.0
C      1  0.4997830000000  0.4496460000000  0.4450100000000 1.0
C      1  0.5108490000000  0.5403160000000  0.5112740000000 1.0
C      1  0.4755930000000  0.5452350000000  0.4902010000000 1.0
C      1  0.5155180000000  0.4579770000000  0.5156840000000 1.0
C      1  0.4849340000000  0.4615210000000  0.4871040000000 1.0
C      1  0.4915660000000  0.3973120000000  0.4597180000000 1.0
C      1  0.5080920000000  0.3940660000000  0.5389070000000 1.0
C      1  0.4947560000000  0.6087050000000  0.4636590000000 1.0
C      1  0.5085770000000  0.6036470000000  0.5400570000000 1.0
C      1  0.4401460000000  0.4858580000000  0.4692430000000 1.0
C      1  0.5637150000000  0.4909970000000  0.5376810000000 1.0
C      1  0.4430240000000  0.5139700000000  0.4761710000000 1.0
C      1  0.5565310000000  0.5163710000000  0.5273720000000 1.0
C      1  0.4382020000000  0.4783650000000  0.5016690000000 1.0
C      1  0.5583260000000  0.4758020000000  0.4971220000000 1.0
C      1  0.4370360000000  0.5211650000000  0.5034330000000 1.0
C      1  0.5541260000000  0.5238560000000  0.4988500000000 1.0
C      1  0.4334750000000  0.4261090000000  0.5296620000000 1.0
C      1  0.5657750000000  0.4273870000000  0.4703270000000 1.0
C      1  0.4336750000000  0.5744320000000  0.5289720000000 1.0
C      1  0.5621490000000  0.5775750000000  0.4640660000000 1.0
C      1  0.5737630000000  0.5723430000000  0.5202250000000 1.0
C      1  0.4255910000000  0.5727890000000  0.4776350000000 1.0
C      1  0.5753900000000  0.4276040000000  0.5214040000000 1.0
C      1  0.4254370000000  0.4278000000000  0.4784120000000 1.0
C      1  0.4801840000000  0.4850800000000  0.5693240000000 1.0
C      1  0.5100770000000  0.4880230000000  0.4330330000000 1.0
C      1  0.4888300000000  0.5116810000000  0.5663280000000 1.0
C      1  0.5219070000000  0.5135430000000  0.4300750000000 1.0
C      1  0.4154460000000  0.4467170000000  0.5285400000000 1.0
C      1  0.5828520000000  0.4487500000000  0.4720370000000 1.0
C      1  0.4160400000000  0.5534820000000  0.5275430000000 1.0
C      1  0.5800780000000  0.5552180000000  0.4707400000000 1.0
C      1  0.4921670000000  0.5946210000000  0.4386320000000 1.0
C      1  0.5146810000000  0.5966250000000  0.5671100000000 1.0
C      1  0.4853990000000  0.4034320000000  0.4323510000000 1.0
C      1  0.5131370000000  0.4040590000000  0.5649000000000 1.0
C      1  0.4147250000000  0.4863550000000  0.4447890000000 1.0
C      1  0.5875490000000  0.4865390000000  0.5555100000000 1.0
C      1  0.4072600000000  0.5154540000000  0.4375310000000 1.0
C      1  0.5938440000000  0.5160890000000  0.5624450000000 1.0
C      1  0.5132650000000  0.4138540000000  0.4934730000000 1.0
C      1  0.4873190000000  0.4146550000000  0.5052790000000 1.0
C      1  0.5108190000000  0.5850730000000  0.4960270000000 1.0
C      1  0.4856950000000  0.5870580000000  0.5083710000000 1.0
C      1  0.5296140000000  0.4311470000000  0.5637490000000 1.0
C      1  0.4675920000000  0.4255460000000  0.4235190000000 1.0
C      1  0.5325710000000  0.5746390000000  0.5759490000000 1.0
C      1  0.4723810000000  0.5694270000000  0.4376960000000 1.0
C      1  0.5532490000000  0.5299870000000  0.4093430000000 1.0
C      1  0.4484890000000  0.5161830000000  0.5865960000000 1.0
C      1  0.5496900000000  0.4703990000000  0.4169140000000 1.0
C      1  0.4441880000000  0.4875570000000  0.5885660000000 1.0
C      1  0.4852630000000  0.4093220000000  0.5718540000000 1.0
C      1  0.5145550000000  0.4077660000000  0.4255270000000 1.0
C      1  0.4853730000000  0.5929460000000  0.5739320000000 1.0
C      1  0.5192580000000  0.5886990000000  0.4297500000000 1.0
C      1  0.4084570000000  0.5155480000000  0.5024080000000 1.0
C      1  0.5963910000000  0.5095070000000  0.4958730000000 1.0
C      1  0.4094950000000  0.4846390000000  0.5016520000000 1.0
C      1  0.5861530000000  0.4831440000000  0.5035870000000 1.0
C      1  0.4769050000000  0.4541970000000  0.4604810000000 1.0
C      1  0.5325120000000  0.4467030000000  0.5368460000000 1.0
C      1  0.4667840000000  0.5542570000000  0.4641070000000 1.0
C      1  0.5201170000000  0.5475860000000  0.5378050000000 1.0
C      1  0.4048600000000  0.5379990000000  0.4557350000000 1.0
C      1  0.5936150000000  0.5369180000000  0.5420080000000 1.0
C      1  0.4043080000000  0.4608030000000  0.4566600000000 1.0
C      1  0.5980540000000  0.4593500000000  0.5437680000000 1.0
C      1  0.4286790000000  0.4859120000000  0.4170610000000 1.0
C      1  0.5726520000000  0.4857970000000  0.5839260000000 1.0
C      1  0.4276350000000  0.5151080000000  0.4162040000000 1.0
C      1  0.5739220000000  0.5146030000000  0.5836940000000 1.0
C      1  0.4921930000000  0.5530600000000  0.4183220000000 1.0
C      1  0.5100590000000  0.5559790000000  0.5843220000000 1.0
C      1  0.4903500000000  0.4446040000000  0.4158520000000 1.0
C      1  0.5090380000000  0.4469430000000  0.5836300000000 1.0
C      1  0.5881220000000  0.5570360000000  0.4990430000000 1.0
C      1  0.4096220000000  0.5586360000000  0.4985640000000 1.0
C      1  0.5913270000000  0.4409960000000  0.4998630000000 1.0
C      1  0.4089270000000  0.4413110000000  0.4996290000000 1.0
C      1  0.5849920000000  0.4777530000000  0.4564040000000 1.0
C      1  0.4129550000000  0.4741090000000  0.5449530000000 1.0
C      1  0.5846430000000  0.5301210000000  0.4546370000000 1.0
C      1  0.4125270000000  0.5267600000000  0.5442220000000 1.0
C      1  0.5490470000000  0.5968210000000  0.4823460000000 1.0
C      1  0.4466300000000  0.5954250000000  0.5162720000000 1.0
C      1  0.5529460000000  0.4060180000000  0.4835720000000 1.0
C      1  0.4468310000000  0.4053280000000  0.5160550000000 1.0
C      1  0.4533830000000  0.4836630000000  0.5264240000000 1.0
C      1  0.5483010000000  0.4834010000000  0.4707270000000 1.0
C      1  0.4533010000000  0.5156860000000  0.5273700000000 1.0
C      1  0.5488880000000  0.5134340000000  0.4710530000000 1.0
C      1  0.5555320000000  0.4071000000000  0.5137580000000 1.0
C      1  0.4449830000000  0.4072690000000  0.4858020000000 1.0
C      1  0.5537600000000  0.5925090000000  0.5123950000000 1.0
C      1  0.4452700000000  0.5936210000000  0.4856840000000 1.0
C      1  0.4026750000000  0.5003000000000  0.5381180000000 1.0
C      1  0.5940860000000  0.5049070000000  0.4667740000000 1.0
END
