TITL C-2441161-5029-1463 0.0689722573557234 125000 -23691.6500084084 0 0 171 (C1) n - 1
REM
REM in /home/bkarasulu/work/CARBON/AIRSS/Generating-Clusters/ReaxFF-fromJPCA2015/Units_Real/with-SteepDescent/Higher-Symm
REM
REM
REM
REM
REM
REM ./C.cell (1df0a924f5614ab8850e4351716899ee)
REM
REM compiler GCC version 9.2.1 20190827 (Red Hat 9.2.1-1)
REM options -cpp -mtune=generic -march=x86-64 -g -O0 -fpre-include=/usr/include/finclude/math-vector-fortran.h
REM seed -1165691785 -1976707528 -474531954 342666727 519988605 -493794075 458890941 -1179365270 -1956135785 1208904543 1936482494 -302317663 1294029921 119184087 -26429087 -965666836 -1617614862 -1158735283 -382146402 -1654183974 2099704068 -460709449 633869540 -669587612 1042329921 292720067 -1740921463 970079990 -1826564126 -641859951 -1650907679 1483758630 1768814972
REM
CELL 1.54180   50.00000   50.00000   50.00000   90.00000   90.00000   90.00000
LATT -1
SFAC C  
C      1  0.5698930000000  0.4390520000000  0.5461480000000 1.0
C      1  0.4707490000000  0.4468880000000  0.5903630000000 1.0
C      1  0.4576850000000  0.4699790000000  0.5793340000000 1.0
C      1  0.4808370000000  0.5324720000000  0.4697790000000 1.0
C      1  0.4906970000000  0.4447150000000  0.4312470000000 1.0
C      1  0.5351880000000  0.5547170000000  0.4654020000000 1.0
C      1  0.4586260000000  0.5237980000000  0.5280570000000 1.0
C      1  0.4838410000000  0.4350990000000  0.4961580000000 1.0
C      1  0.4892690000000  0.5993510000000  0.4574510000000 1.0
C      1  0.4770460000000  0.5927240000000  0.5349500000000 1.0
C      1  0.5054930000000  0.5956880000000  0.5405100000000 1.0
C      1  0.5096160000000  0.4820450000000  0.5003900000000 1.0
C      1  0.5273560000000  0.5757370000000  0.5472830000000 1.0
C      1  0.4379640000000  0.5136850000000  0.5099270000000 1.0
C      1  0.4231250000000  0.4477400000000  0.4573110000000 1.0
C      1  0.5349090000000  0.4216370000000  0.4402620000000 1.0
C      1  0.4660580000000  0.5529830000000  0.4557320000000 1.0
C      1  0.4624560000000  0.6005500000000  0.5084440000000 1.0
C      1  0.4588300000000  0.5002490000000  0.4427070000000 1.0
C      1  0.5352460000000  0.5259060000000  0.4025270000000 1.0
C      1  0.5277580000000  0.5179460000000  0.4420870000000 1.0
C      1  0.4235390000000  0.5460730000000  0.4443550000000 1.0
C      1  0.5047870000000  0.3945000000000  0.4709040000000 1.0
C      1  0.4419090000000  0.4069540000000  0.4794400000000 1.0
C      1  0.5322420000000  0.5428410000000  0.5105080000000 1.0
C      1  0.5322740000000  0.4059200000000  0.4636390000000 1.0
C      1  0.5058950000000  0.5445690000000  0.5772560000000 1.0
C      1  0.5696530000000  0.5788840000000  0.5279760000000 1.0
C      1  0.5091030000000  0.4833630000000  0.5996000000000 1.0
C      1  0.4925000000000  0.4219690000000  0.5643060000000 1.0
C      1  0.3890740000000  0.4981330000000  0.4891550000000 1.0
C      1  0.4811540000000  0.4743290000000  0.4641920000000 1.0
C      1  0.4362720000000  0.5075020000000  0.4254950000000 1.0
C      1  0.5324710000000  0.5109630000000  0.5359330000000 1.0
C      1  0.5039670000000  0.5146740000000  0.4589410000000 1.0
C      1  0.4582680000000  0.4139290000000  0.4563470000000 1.0
C      1  0.4567490000000  0.4698500000000  0.5059400000000 1.0
C      1  0.5119390000000  0.5416980000000  0.4105960000000 1.0
C      1  0.4004570000000  0.5269950000000  0.5439030000000 1.0
C      1  0.5179160000000  0.6007620000000  0.4637070000000 1.0
C      1  0.4866700000000  0.5013210000000  0.6010340000000 1.0
C      1  0.5698700000000  0.5517520000000  0.5379430000000 1.0
C      1  0.5730500000000  0.4312900000000  0.4676120000000 1.0
C      1  0.5017250000000  0.4690240000000  0.5488480000000 1.0
C      1  0.5682630000000  0.4839550000000  0.5462220000000 1.0
C      1  0.5882730000000  0.5633740000000  0.4401400000000 1.0
C      1  0.5944580000000  0.4479060000000  0.5129500000000 1.0
C      1  0.4120920000000  0.4991320000000  0.4390670000000 1.0
C      1  0.4551380000000  0.5337860000000  0.5744760000000 1.0
C      1  0.4153020000000  0.5262180000000  0.5693910000000 1.0
C      1  0.4863970000000  0.4062310000000  0.4510600000000 1.0
C      1  0.4397820000000  0.5610580000000  0.4632100000000 1.0
C      1  0.4310840000000  0.4158560000000  0.5306580000000 1.0
C      1  0.5005350000000  0.4622420000000  0.4811140000000 1.0
C      1  0.5192280000000  0.4477360000000  0.5311940000000 1.0
C      1  0.6084120000000  0.4743210000000  0.5161940000000 1.0
C      1  0.4660570000000  0.4235330000000  0.5729250000000 1.0
C      1  0.4740920000000  0.6014800000000  0.4822600000000 1.0
C      1  0.4100300000000  0.4811240000000  0.4776640000000 1.0
C      1  0.4449770000000  0.4356110000000  0.4418170000000 1.0
C      1  0.4579400000000  0.4123730000000  0.5438270000000 1.0
C      1  0.4935790000000  0.3901960000000  0.4966840000000 1.0
C      1  0.4814710000000  0.5407310000000  0.5241850000000 1.0
C      1  0.5190570000000  0.5069270000000  0.4889300000000 1.0
C      1  0.4737080000000  0.5023460000000  0.5392820000000 1.0
C      1  0.4855390000000  0.5283570000000  0.4062100000000 1.0
C      1  0.4324140000000  0.5702180000000  0.5383310000000 1.0
C      1  0.4625560000000  0.5458210000000  0.4113840000000 1.0
C      1  0.4402290000000  0.5818320000000  0.5121370000000 1.0
C      1  0.4344800000000  0.4073040000000  0.5042860000000 1.0
C      1  0.4266040000000  0.4446330000000  0.4864580000000 1.0
C      1  0.5129050000000  0.5674220000000  0.4255460000000 1.0
C      1  0.5453970000000  0.5056410000000  0.4771600000000 1.0
C      1  0.5613770000000  0.5394790000000  0.5119380000000 1.0
C      1  0.5544040000000  0.4768330000000  0.5721880000000 1.0
C      1  0.6015430000000  0.5461980000000  0.4862190000000 1.0
C      1  0.4766540000000  0.4132130000000  0.5244780000000 1.0
C      1  0.5393520000000  0.5859420000000  0.4943180000000 1.0
C      1  0.5499420000000  0.4770450000000  0.4159010000000 1.0
C      1  0.4070750000000  0.5241360000000  0.4546700000000 1.0
C      1  0.4791820000000  0.4944720000000  0.5060830000000 1.0
C      1  0.4689770000000  0.5644270000000  0.4308450000000 1.0
C      1  0.5307970000000  0.4194840000000  0.5427160000000 1.0
C      1  0.6180920000000  0.4830170000000  0.4906810000000 1.0
C      1  0.5097800000000  0.4305010000000  0.5088550000000 1.0
C      1  0.5663790000000  0.5784490000000  0.4982780000000 1.0
C      1  0.5489220000000  0.4780370000000  0.4675510000000 1.0
C      1  0.5902910000000  0.4962950000000  0.4811090000000 1.0
C      1  0.4991410000000  0.4559600000000  0.5974520000000 1.0
C      1  0.5287240000000  0.5771660000000  0.4485760000000 1.0
C      1  0.4244180000000  0.4938610000000  0.5329320000000 1.0
C      1  0.5788470000000  0.5450580000000  0.4206240000000 1.0
C      1  0.5559590000000  0.5253990000000  0.5514010000000 1.0
C      1  0.4081180000000  0.4721170000000  0.4500460000000 1.0
C      1  0.4288860000000  0.4661960000000  0.5415720000000 1.0
C      1  0.4190100000000  0.5394950000000  0.5006850000000 1.0
C      1  0.4695570000000  0.5482520000000  0.5942900000000 1.0
C      1  0.5310820000000  0.4710220000000  0.5178840000000 1.0
C      1  0.5151210000000  0.5218080000000  0.5153330000000 1.0
C      1  0.5593310000000  0.4394670000000  0.4437240000000 1.0
C      1  0.3962480000000  0.4985580000000  0.5346580000000 1.0
C      1  0.4891540000000  0.5819420000000  0.4327050000000 1.0
C      1  0.4412110000000  0.5616030000000  0.4918380000000 1.0
C      1  0.5723510000000  0.5519790000000  0.4860810000000 1.0
C      1  0.5171310000000  0.5521170000000  0.4878590000000 1.0
C      1  0.4737230000000  0.5590100000000  0.5024860000000 1.0
C      1  0.5631620000000  0.4682130000000  0.4399980000000 1.0
C      1  0.5242840000000  0.4616880000000  0.4649280000000 1.0
C      1  0.5758810000000  0.4262890000000  0.5237310000000 1.0
C      1  0.4619970000000  0.5769080000000  0.5526400000000 1.0
C      1  0.5460730000000  0.5193220000000  0.5816060000000 1.0
C      1  0.5076480000000  0.4500100000000  0.5721650000000 1.0
C      1  0.5052920000000  0.4871350000000  0.3997800000000 1.0
C      1  0.4591140000000  0.4759360000000  0.4068810000000 1.0
C      1  0.5472450000000  0.5466600000000  0.5903380000000 1.0
C      1  0.5149820000000  0.4948670000000  0.5521520000000 1.0
C      1  0.5569310000000  0.4475350000000  0.5697160000000 1.0
C      1  0.5362940000000  0.4927190000000  0.5891140000000 1.0
C      1  0.3898560000000  0.4796780000000  0.5121440000000 1.0
C      1  0.5013580000000  0.5428110000000  0.5479430000000 1.0
C      1  0.4321520000000  0.5493870000000  0.5659300000000 1.0
C      1  0.5467750000000  0.5947520000000  0.5364020000000 1.0
C      1  0.5582020000000  0.4774180000000  0.5191490000000 1.0
C      1  0.4951090000000  0.5148790000000  0.5521800000000 1.0
C      1  0.4722490000000  0.4744260000000  0.5506650000000 1.0
C      1  0.4911040000000  0.5295810000000  0.5974030000000 1.0
C      1  0.5241270000000  0.6091310000000  0.4928650000000 1.0
C      1  0.5811240000000  0.5095050000000  0.5485850000000 1.0
C      1  0.5475410000000  0.5669830000000  0.5679230000000 1.0
C      1  0.4156380000000  0.4415330000000  0.5315110000000 1.0
C      1  0.5193040000000  0.4123570000000  0.5682010000000 1.0
C      1  0.4964200000000  0.5706650000000  0.4928890000000 1.0
C      1  0.5998640000000  0.5391100000000  0.4577890000000 1.0
C      1  0.4629320000000  0.4505070000000  0.4241860000000 1.0
C      1  0.4576850000000  0.4938070000000  0.5950870000000 1.0
C      1  0.4400380000000  0.5088190000000  0.5773030000000 1.0
C      1  0.4369540000000  0.4687960000000  0.3973570000000 1.0
C      1  0.4371570000000  0.4870530000000  0.4884690000000 1.0
C      1  0.4749560000000  0.5717730000000  0.5781250000000 1.0
C      1  0.5861950000000  0.5140060000000  0.5043430000000 1.0
C      1  0.4559770000000  0.4625940000000  0.5327870000000 1.0
C      1  0.5849480000000  0.4500860000000  0.4857210000000 1.0
C      1  0.6090480000000  0.5292430000000  0.5080220000000 1.0
C      1  0.5487700000000  0.5291130000000  0.4600970000000 1.0
C      1  0.4545430000000  0.4831370000000  0.4651480000000 1.0
C      1  0.5643760000000  0.5234440000000  0.4101990000000 1.0
C      1  0.6020250000000  0.5060310000000  0.5268140000000 1.0
C      1  0.4882750000000  0.3931590000000  0.5231500000000 1.0
C      1  0.4806590000000  0.5002510000000  0.4004280000000 1.0
C      1  0.5025430000000  0.5710860000000  0.5884860000000 1.0
C      1  0.4134960000000  0.5485600000000  0.5285870000000 1.0
C      1  0.5128490000000  0.4622660000000  0.4384790000000 1.0
C      1  0.5301070000000  0.5011870000000  0.4164980000000 1.0
C      1  0.3993550000000  0.5247160000000  0.4824240000000 1.0
C      1  0.5096070000000  0.4583520000000  0.3920220000000 1.0
C      1  0.5703040000000  0.4746460000000  0.4889280000000 1.0
C      1  0.4877100000000  0.4936300000000  0.4439370000000 1.0
C      1  0.5247660000000  0.6106420000000  0.5235770000000 1.0
C      1  0.5052210000000  0.4206130000000  0.4347230000000 1.0
C      1  0.5748650000000  0.5050530000000  0.4303250000000 1.0
C      1  0.5557720000000  0.4109270000000  0.4800570000000 1.0
C      1  0.4718110000000  0.5162390000000  0.4894130000000 1.0
C      1  0.4556390000000  0.4432500000000  0.4940960000000 1.0
C      1  0.5269500000000  0.4067280000000  0.5167680000000 1.0
C      1  0.5893600000000  0.5118930000000  0.4531000000000 1.0
C      1  0.5548490000000  0.4099390000000  0.5082380000000 1.0
C      1  0.4365480000000  0.5361040000000  0.4200750000000 1.0
C      1  0.4062130000000  0.4541100000000  0.5074210000000 1.0
C      1  0.5314160000000  0.4356200000000  0.5810580000000 1.0
C      1  0.5313570000000  0.5718870000000  0.5913950000000 1.0
C      1  0.5300970000000  0.4550830000000  0.4140950000000 1.0
END
