TITL C-2441161-5029-1057 0.0414897254683587 125000 -12821.1724294441 0 0 95 (C1) n - 1
REM
REM in /home/bkarasulu/work/CARBON/AIRSS/Generating-Clusters/ReaxFF-fromJPCA2015/Units_Real/with-SteepDescent/Higher-Symm
REM
REM
REM
REM
REM
REM ./C.cell (1df0a924f5614ab8850e4351716899ee)
REM
REM compiler GCC version 9.2.1 20190827 (Red Hat 9.2.1-1)
REM options -cpp -mtune=generic -march=x86-64 -g -O0 -fpre-include=/usr/include/finclude/math-vector-fortran.h
REM seed 418451939 -1989590532 1659358805 1179358075 1336550152 -1390419041 -1492498567 680927359 1838174938 340703132 1410165471 -608359619 -447107733 70198586 1328990276 -419238130 880086311 -1710707016 1643129960 -1144286880 -423935787 955536824 370517594 137463511 -1402963697 284493332 -186321005 -1486292301 -1615886412 -541045878 1605312540 1373202244 948905108
REM
CELL 1.54180   50.00000   50.00000   50.00000   90.00000   90.00000   90.00000
LATT -1
SFAC C  
C      1  0.5420370000000  0.4865570000000  0.4117000000000 1.0
C      1  0.4555890000000  0.5044610000000  0.5827820000000 1.0
C      1  0.5671130000000  0.5205300000000  0.4503730000000 1.0
C      1  0.4334090000000  0.4699690000000  0.5508550000000 1.0
C      1  0.5331260000000  0.4862790000000  0.4530770000000 1.0
C      1  0.4739140000000  0.5332630000000  0.5570050000000 1.0
C      1  0.5090160000000  0.4496830000000  0.4412510000000 1.0
C      1  0.4893890000000  0.5577630000000  0.5573140000000 1.0
C      1  0.4466630000000  0.4333180000000  0.4767800000000 1.0
C      1  0.5507110000000  0.5698040000000  0.5221290000000 1.0
C      1  0.4712760000000  0.4306770000000  0.4626270000000 1.0
C      1  0.5248660000000  0.5712830000000  0.5359660000000 1.0
C      1  0.5335400000000  0.4792930000000  0.4791180000000 1.0
C      1  0.4645560000000  0.5191150000000  0.5141500000000 1.0
C      1  0.4837200000000  0.4937220000000  0.5832700000000 1.0
C      1  0.5160620000000  0.4988700000000  0.4183850000000 1.0
C      1  0.4909560000000  0.4773580000000  0.5310480000000 1.0
C      1  0.5088390000000  0.5326850000000  0.4719040000000 1.0
C      1  0.4717380000000  0.4673020000000  0.5756370000000 1.0
C      1  0.5215610000000  0.5277170000000  0.4276160000000 1.0
C      1  0.4654220000000  0.4898340000000  0.5143540000000 1.0
C      1  0.5332290000000  0.5272420000000  0.4854070000000 1.0
C      1  0.4399630000000  0.4624050000000  0.4827810000000 1.0
C      1  0.5608880000000  0.5450350000000  0.5344180000000 1.0
C      1  0.5532160000000  0.4432080000000  0.4959170000000 1.0
C      1  0.4452280000000  0.5579430000000  0.4985430000000 1.0
C      1  0.5814050000000  0.4827070000000  0.5071360000000 1.0
C      1  0.4178680000000  0.5078030000000  0.4965270000000 1.0
C      1  0.4649340000000  0.4924620000000  0.4208990000000 1.0
C      1  0.5359790000000  0.4961430000000  0.5819410000000 1.0
C      1  0.5747280000000  0.5193220000000  0.4930810000000 1.0
C      1  0.4354930000000  0.4802570000000  0.5241840000000 1.0
C      1  0.4707550000000  0.5095460000000  0.4434590000000 1.0
C      1  0.5247070000000  0.4874010000000  0.5568570000000 1.0
C      1  0.5437700000000  0.5706330000000  0.4941810000000 1.0
C      1  0.4527890000000  0.4281460000000  0.5051500000000 1.0
C      1  0.4871300000000  0.5275110000000  0.4249120000000 1.0
C      1  0.5184030000000  0.4708500000000  0.5804730000000 1.0
C      1  0.4150160000000  0.5040140000000  0.5252670000000 1.0
C      1  0.5782060000000  0.5012260000000  0.4701770000000 1.0
C      1  0.4475920000000  0.4803500000000  0.5721010000000 1.0
C      1  0.5391650000000  0.5130940000000  0.4489720000000 1.0
C      1  0.4746320000000  0.5666070000000  0.5327020000000 1.0
C      1  0.5277080000000  0.4414500000000  0.4619590000000 1.0
C      1  0.5446760000000  0.4488040000000  0.5424500000000 1.0
C      1  0.4563580000000  0.5512130000000  0.4542690000000 1.0
C      1  0.4622940000000  0.4636700000000  0.4263430000000 1.0
C      1  0.5438670000000  0.5395690000000  0.5574460000000 1.0
C      1  0.4401300000000  0.4818730000000  0.4321260000000 1.0
C      1  0.5535750000000  0.5136790000000  0.5672770000000 1.0
C      1  0.5356710000000  0.4339580000000  0.5174910000000 1.0
C      1  0.4646440000000  0.5665960000000  0.4780720000000 1.0
C      1  0.5726970000000  0.5209210000000  0.5220240000000 1.0
C      1  0.4207960000000  0.4859720000000  0.4776630000000 1.0
C      1  0.5702350000000  0.4726840000000  0.4585890000000 1.0
C      1  0.4269210000000  0.5187470000000  0.5459530000000 1.0
C      1  0.4709600000000  0.4455410000000  0.5555770000000 1.0
C      1  0.5316130000000  0.5531290000000  0.4409370000000 1.0
C      1  0.4844040000000  0.4493460000000  0.4836570000000 1.0
C      1  0.5103100000000  0.5488080000000  0.5157500000000 1.0
C      1  0.5140690000000  0.4582090000000  0.4856870000000 1.0
C      1  0.4810880000000  0.5425820000000  0.5166610000000 1.0
C      1  0.4729310000000  0.5504790000000  0.4313180000000 1.0
C      1  0.5298650000000  0.4460410000000  0.5686260000000 1.0
C      1  0.5191730000000  0.5572740000000  0.5601700000000 1.0
C      1  0.4803750000000  0.4430450000000  0.4382640000000 1.0
C      1  0.4933610000000  0.5740980000000  0.4762200000000 1.0
C      1  0.5065250000000  0.4276070000000  0.5208080000000 1.0
C      1  0.5566840000000  0.4715640000000  0.4334420000000 1.0
C      1  0.4452900000000  0.5265980000000  0.5656620000000 1.0
C      1  0.5545670000000  0.4740680000000  0.4986090000000 1.0
C      1  0.4417480000000  0.5265420000000  0.4940730000000 1.0
C      1  0.4438590000000  0.4442070000000  0.5425980000000 1.0
C      1  0.5576600000000  0.5481580000000  0.4526730000000 1.0
C      1  0.4674300000000  0.4753320000000  0.4851580000000 1.0
C      1  0.5242820000000  0.5215380000000  0.5127160000000 1.0
C      1  0.4824410000000  0.4911540000000  0.4628010000000 1.0
C      1  0.5070620000000  0.5014830000000  0.5413100000000 1.0
C      1  0.5097100000000  0.4750690000000  0.5103260000000 1.0
C      1  0.4929670000000  0.5111780000000  0.4800460000000 1.0
C      1  0.4449660000000  0.5240050000000  0.4620200000000 1.0
C      1  0.5621080000000  0.4720630000000  0.5392130000000 1.0
C      1  0.5561390000000  0.4465040000000  0.4665410000000 1.0
C      1  0.4445670000000  0.5673280000000  0.5265730000000 1.0
C      1  0.5065280000000  0.4799030000000  0.4414690000000 1.0
C      1  0.4934300000000  0.5131640000000  0.5633260000000 1.0
C      1  0.4332000000000  0.4485640000000  0.5149720000000 1.0
C      1  0.5553680000000  0.5459460000000  0.4818240000000 1.0
C      1  0.5072030000000  0.5575510000000  0.4561600000000 1.0
C      1  0.4948470000000  0.4458720000000  0.5400800000000 1.0
C      1  0.4823500000000  0.4288840000000  0.5043880000000 1.0
C      1  0.5149090000000  0.5717120000000  0.4954140000000 1.0
C      1  0.4302980000000  0.4992600000000  0.4539470000000 1.0
C      1  0.5664440000000  0.4997990000000  0.5439910000000 1.0
C      1  0.5064930000000  0.5016730000000  0.5018460000000 1.0
END
