TITL C-2441169-1362-1087 0.0182768665972194 125000 -8781.57711863495 0 0 66 (C1) n - 1
REM
REM in /home/bkarasulu/work/CARBON/AIRSS/Generating-Clusters/ReaxFF-fromJPCA2015/Units_Real/with-SteepDescent/Higher-Symm
REM
REM
REM
REM
REM
REM ./C.cell (1df0a924f5614ab8850e4351716899ee)
REM
REM compiler GCC version 9.2.1 20190827 (Red Hat 9.2.1-1)
REM options -cpp -mtune=generic -march=x86-64 -g -O0 -fpre-include=/usr/include/finclude/math-vector-fortran.h
REM seed 1478481877 -421021432 1289987408 680653501 -1964575479 189188291 1732599706 1083213614 2098961065 -1797046302 -1364783518 -273155016 -1780674956 860373356 1779260571 1171747213 657966359 -329828946 897006398 -677002337 -1575180597 1138597531 1042836385 -1446684848 -96249045 -939459921 319755866 1258328629 -1396936578 -938432384 -399853223 684296263 -1090962212
REM
CELL 1.54180   50.00000   50.00000   50.00000   90.00000   90.00000   90.00000
LATT -1
SFAC C  
C      1  0.5123490000000  0.5660530000000  0.5293250000000 1.0
C      1  0.5259730000000  0.5090170000000  0.5773480000000 1.0
C      1  0.5286380000000  0.5229130000000  0.4820490000000 1.0
C      1  0.5119770000000  0.4351510000000  0.4622230000000 1.0
C      1  0.5040400000000  0.4896110000000  0.4201710000000 1.0
C      1  0.4317570000000  0.5204300000000  0.4935990000000 1.0
C      1  0.5013890000000  0.4650160000000  0.5646720000000 1.0
C      1  0.4711790000000  0.4994420000000  0.4826280000000 1.0
C      1  0.5083940000000  0.4466890000000  0.4371300000000 1.0
C      1  0.4416630000000  0.4895370000000  0.4512270000000 1.0
C      1  0.4645580000000  0.4986630000000  0.5599700000000 1.0
C      1  0.5051310000000  0.4902620000000  0.5805900000000 1.0
C      1  0.4846630000000  0.5125260000000  0.5761030000000 1.0
C      1  0.4849050000000  0.5722440000000  0.4689380000000 1.0
C      1  0.4416960000000  0.5386160000000  0.4716170000000 1.0
C      1  0.4943200000000  0.4313650000000  0.4840610000000 1.0
C      1  0.4890480000000  0.4664130000000  0.4281060000000 1.0
C      1  0.5512150000000  0.5064880000000  0.5633300000000 1.0
C      1  0.5596600000000  0.5389660000000  0.5193230000000 1.0
C      1  0.5375310000000  0.5441760000000  0.5006530000000 1.0
C      1  0.4793580000000  0.5164290000000  0.5250640000000 1.0
C      1  0.4650590000000  0.4341300000000  0.4830070000000 1.0
C      1  0.5031360000000  0.5202970000000  0.4264630000000 1.0
C      1  0.5288210000000  0.4628820000000  0.5530400000000 1.0
C      1  0.4525440000000  0.5149320000000  0.5376970000000 1.0
C      1  0.5240840000000  0.4720510000000  0.4953990000000 1.0
C      1  0.4867280000000  0.5768160000000  0.5189890000000 1.0
C      1  0.4826660000000  0.5360790000000  0.5047840000000 1.0
C      1  0.5398640000000  0.4880150000000  0.5423380000000 1.0
C      1  0.5154560000000  0.4975430000000  0.4448860000000 1.0
C      1  0.5113630000000  0.5461780000000  0.4317670000000 1.0
C      1  0.4962860000000  0.4409440000000  0.5307580000000 1.0
C      1  0.5375710000000  0.4816800000000  0.4547220000000 1.0
C      1  0.5733180000000  0.4576500000000  0.4831810000000 1.0
C      1  0.4246440000000  0.5000190000000  0.4726520000000 1.0
C      1  0.5614950000000  0.4921180000000  0.5001720000000 1.0
C      1  0.4989340000000  0.5813760000000  0.4924880000000 1.0
C      1  0.4619190000000  0.5571910000000  0.4625700000000 1.0
C      1  0.5593310000000  0.4948240000000  0.4706930000000 1.0
C      1  0.5427120000000  0.4473770000000  0.5333980000000 1.0
C      1  0.5726580000000  0.5126500000000  0.5180080000000 1.0
C      1  0.5505980000000  0.5238760000000  0.4628000000000 1.0
C      1  0.4998530000000  0.5336500000000  0.5639260000000 1.0
C      1  0.4399230000000  0.5021690000000  0.5149470000000 1.0
C      1  0.4701990000000  0.4727180000000  0.4506740000000 1.0
C      1  0.5020540000000  0.4231640000000  0.5095860000000 1.0
C      1  0.4898840000000  0.4797560000000  0.4751970000000 1.0
C      1  0.4754820000000  0.4729690000000  0.5536740000000 1.0
C      1  0.4470990000000  0.5402830000000  0.5278560000000 1.0
C      1  0.4883720000000  0.5457780000000  0.4580170000000 1.0
C      1  0.5491560000000  0.4619830000000  0.5060500000000 1.0
C      1  0.4647400000000  0.5577480000000  0.5141270000000 1.0
C      1  0.5653910000000  0.5243400000000  0.5440730000000 1.0
C      1  0.4580820000000  0.4807700000000  0.5042060000000 1.0
C      1  0.5247250000000  0.5706750000000  0.5032280000000 1.0
C      1  0.4985000000000  0.4954900000000  0.5253690000000 1.0
C      1  0.5222760000000  0.4275800000000  0.5283380000000 1.0
C      1  0.5161010000000  0.5392380000000  0.5426080000000 1.0
C      1  0.4526020000000  0.4505220000000  0.4623550000000 1.0
C      1  0.5315520000000  0.4534080000000  0.4527200000000 1.0
C      1  0.4841830000000  0.5243400000000  0.4797400000000 1.0
C      1  0.4837330000000  0.4685240000000  0.5257180000000 1.0
C      1  0.4473830000000  0.4561670000000  0.4903680000000 1.0
C      1  0.4352280000000  0.5178810000000  0.4511720000000 1.0
C      1  0.5217190000000  0.5089750000000  0.5323640000000 1.0
C      1  0.5131310000000  0.4932390000000  0.4857490000000 1.0
END
