TITL C-2441159-1093-1294 0.119632164928343 125000 -19138.4684843503 0 0 146 (C1) n - 1
REM
REM in /home/bkarasulu/work/CARBON/AIRSS/Generating-Clusters/ReaxFF-fromJPCA2015/Units_Real/with-SteepDescent/Higher-Symm
REM
REM
REM
REM
REM
REM ./C.cell (1df0a924f5614ab8850e4351716899ee)
REM
REM compiler GCC version 9.2.1 20190827 (Red Hat 9.2.1-1)
REM options -cpp -mtune=generic -march=x86-64 -g -O0 -fpre-include=/usr/include/finclude/math-vector-fortran.h
REM seed -246911186 -1312992646 1694361187 2030307741 -452723132 709628683 1233998708 -756019382 -400206329 -862444454 -1776093292 1656419771 -84555193 -1187917628 1099437758 683363535 1595130314 -1338769706 -1159345515 -1440162044 -792883308 -1010804357 -1179633549 -2038824664 1204578586 -1837292764 128090679 391618744 765574029 -530653894 1438049084 580536401 988080719
REM
CELL 1.54180   50.00000   50.00000   50.00000   90.00000   90.00000   90.00000
LATT -1
SFAC C  
C      1  0.5350570000000  0.5497800000000  0.4324220000000 1.0
C      1  0.4222590000000  0.5503870000000  0.5031720000000 1.0
C      1  0.5400350000000  0.5506200000000  0.5664980000000 1.0
C      1  0.5369630000000  0.4497460000000  0.4312680000000 1.0
C      1  0.4239930000000  0.4507950000000  0.5017120000000 1.0
C      1  0.5401400000000  0.4509030000000  0.5650560000000 1.0
C      1  0.4577680000000  0.5875240000000  0.5294400000000 1.0
C      1  0.5465740000000  0.5860270000000  0.5226650000000 1.0
C      1  0.4963910000000  0.5870060000000  0.4497150000000 1.0
C      1  0.4562720000000  0.4132700000000  0.5285060000000 1.0
C      1  0.5450770000000  0.4157520000000  0.5227370000000 1.0
C      1  0.4965580000000  0.4123540000000  0.4488270000000 1.0
C      1  0.5110680000000  0.5274860000000  0.4033660000000 1.0
C      1  0.4093860000000  0.5292100000000  0.5377110000000 1.0
C      1  0.5773520000000  0.5292380000000  0.5598300000000 1.0
C      1  0.5101870000000  0.4722660000000  0.4053170000000 1.0
C      1  0.4104680000000  0.4722700000000  0.5371150000000 1.0
C      1  0.5781500000000  0.4723510000000  0.5596690000000 1.0
C      1  0.4020790000000  0.4865600000000  0.5141690000000 1.0
C      1  0.5621800000000  0.4867440000000  0.5783800000000 1.0
C      1  0.5353430000000  0.4868100000000  0.4085930000000 1.0
C      1  0.4010380000000  0.5141790000000  0.5141720000000 1.0
C      1  0.5609540000000  0.5142670000000  0.5782320000000 1.0
C      1  0.5361800000000  0.5141510000000  0.4072770000000 1.0
C      1  0.5736630000000  0.5584500000000  0.4824870000000 1.0
C      1  0.4537030000000  0.5589510000000  0.4434330000000 1.0
C      1  0.4755900000000  0.5568130000000  0.5692370000000 1.0
C      1  0.5748550000000  0.4408990000000  0.4834190000000 1.0
C      1  0.4538300000000  0.4433350000000  0.4327710000000 1.0
C      1  0.4728420000000  0.4357740000000  0.5769460000000 1.0
C      1  0.4939180000000  0.4824100000000  0.5718230000000 1.0
C      1  0.5767390000000  0.4860760000000  0.4708270000000 1.0
C      1  0.4383710000000  0.4862990000000  0.4513650000000 1.0
C      1  0.4859610000000  0.5153180000000  0.5820640000000 1.0
C      1  0.5720610000000  0.5146490000000  0.4698820000000 1.0
C      1  0.4378750000000  0.5152790000000  0.4521550000000 1.0
C      1  0.5266360000000  0.5732180000000  0.4793700000000 1.0
C      1  0.4667740000000  0.5756340000000  0.4884830000000 1.0
C      1  0.5053990000000  0.5739850000000  0.5348000000000 1.0
C      1  0.5257740000000  0.4294200000000  0.4771870000000 1.0
C      1  0.4698810000000  0.4293750000000  0.4872690000000 1.0
C      1  0.5026840000000  0.4259140000000  0.5367370000000 1.0
C      1  0.4868920000000  0.5324090000000  0.5555420000000 1.0
C      1  0.5559390000000  0.5337880000000  0.4828060000000 1.0
C      1  0.4574870000000  0.5355040000000  0.4615780000000 1.0
C      1  0.4762640000000  0.4605720000000  0.5660120000000 1.0
C      1  0.5582430000000  0.4653940000000  0.4825850000000 1.0
C      1  0.4591920000000  0.4693140000000  0.4628160000000 1.0
C      1  0.4912160000000  0.4966060000000  0.4747250000000 1.0
C      1  0.4840680000000  0.4915510000000  0.5263240000000 1.0
C      1  0.5254060000000  0.4924030000000  0.5046880000000 1.0
C      1  0.5051030000000  0.5231620000000  0.4741920000000 1.0
C      1  0.4791170000000  0.5123070000000  0.5099990000000 1.0
C      1  0.5201960000000  0.5193000000000  0.5183780000000 1.0
C      1  0.4133190000000  0.5152050000000  0.5629760000000 1.0
C      1  0.5971800000000  0.5158530000000  0.5437760000000 1.0
C      1  0.4880510000000  0.5113470000000  0.3951150000000 1.0
C      1  0.4149410000000  0.4864120000000  0.5618320000000 1.0
C      1  0.5959760000000  0.4872270000000  0.5423130000000 1.0
C      1  0.4836690000000  0.4832960000000  0.4022380000000 1.0
C      1  0.5107780000000  0.4482270000000  0.4199060000000 1.0
C      1  0.4264300000000  0.4494500000000  0.5306420000000 1.0
C      1  0.5642050000000  0.4496080000000  0.5492860000000 1.0
C      1  0.5085160000000  0.5498350000000  0.4212360000000 1.0
C      1  0.4258890000000  0.5514120000000  0.5316250000000 1.0
C      1  0.5638950000000  0.5525400000000  0.5500140000000 1.0
C      1  0.5382620000000  0.4732630000000  0.5826980000000 1.0
C      1  0.5524140000000  0.4736480000000  0.4267650000000 1.0
C      1  0.4105090000000  0.4733370000000  0.4911050000000 1.0
C      1  0.5362070000000  0.5271570000000  0.5828140000000 1.0
C      1  0.5522680000000  0.5276540000000  0.4258280000000 1.0
C      1  0.4088680000000  0.5278840000000  0.4911220000000 1.0
C      1  0.5730060000000  0.5142310000000  0.4413280000000 1.0
C      1  0.4119910000000  0.5148720000000  0.4650050000000 1.0
C      1  0.5128440000000  0.5141380000000  0.5945480000000 1.0
C      1  0.5747210000000  0.4855760000000  0.4407500000000 1.0
C      1  0.4119470000000  0.4853710000000  0.4643090000000 1.0
C      1  0.5144930000000  0.4855980000000  0.5926780000000 1.0
C      1  0.4589470000000  0.5132270000000  0.5966910000000 1.0
C      1  0.6129660000000  0.5120490000000  0.4925270000000 1.0
C      1  0.4433230000000  0.5081380000000  0.4090570000000 1.0
C      1  0.4534350000000  0.4853710000000  0.5986750000000 1.0
C      1  0.6028610000000  0.4861460000000  0.4891900000000 1.0
C      1  0.4358690000000  0.4860870000000  0.4088030000000 1.0
C      1  0.4776380000000  0.5537920000000  0.5056310000000 1.0
C      1  0.5064950000000  0.5512220000000  0.5150300000000 1.0
C      1  0.5101070000000  0.5513490000000  0.4873420000000 1.0
C      1  0.4893450000000  0.4494730000000  0.4979760000000 1.0
C      1  0.4966280000000  0.4524260000000  0.5258990000000 1.0
C      1  0.5092370000000  0.4548370000000  0.4767050000000 1.0
C      1  0.4952010000000  0.4890430000000  0.4476680000000 1.0
C      1  0.4572150000000  0.4870510000000  0.5373860000000 1.0
C      1  0.5506150000000  0.4875760000000  0.5210290000000 1.0
C      1  0.4836990000000  0.5131020000000  0.4367930000000 1.0
C      1  0.4537050000000  0.5178260000000  0.5221590000000 1.0
C      1  0.5469480000000  0.5179270000000  0.5274180000000 1.0
C      1  0.4585340000000  0.4706260000000  0.4136170000000 1.0
C      1  0.4439660000000  0.4876010000000  0.5663700000000 1.0
C      1  0.5863040000000  0.4881650000000  0.5146030000000 1.0
C      1  0.4680670000000  0.5216050000000  0.4136980000000 1.0
C      1  0.4406590000000  0.5170500000000  0.5731320000000 1.0
C      1  0.5954640000000  0.5184390000000  0.5142800000000 1.0
C      1  0.5295920000000  0.4847380000000  0.4771070000000 1.0
C      1  0.4670950000000  0.4856510000000  0.4842770000000 1.0
C      1  0.5063420000000  0.4871330000000  0.5442940000000 1.0
C      1  0.5322620000000  0.5126580000000  0.4685030000000 1.0
C      1  0.4554130000000  0.5120330000000  0.4928110000000 1.0
C      1  0.5110030000000  0.5159400000000  0.5455060000000 1.0
C      1  0.5493180000000  0.4252260000000  0.4410110000000 1.0
C      1  0.4281930000000  0.4285100000000  0.4831430000000 1.0
C      1  0.5253940000000  0.4272490000000  0.5721090000000 1.0
C      1  0.5482940000000  0.5743330000000  0.4406730000000 1.0
C      1  0.4251650000000  0.5750700000000  0.4867260000000 1.0
C      1  0.5252910000000  0.5749550000000  0.5725250000000 1.0
C      1  0.5638660000000  0.4385700000000  0.5216510000000 1.0
C      1  0.4863850000000  0.4361510000000  0.4331410000000 1.0
C      1  0.4487580000000  0.4361850000000  0.5450770000000 1.0
C      1  0.5643330000000  0.5624480000000  0.5219500000000 1.0
C      1  0.4852380000000  0.5636320000000  0.4351670000000 1.0
C      1  0.4511840000000  0.5633010000000  0.5460890000000 1.0
C      1  0.5280680000000  0.4148380000000  0.5458200000000 1.0
C      1  0.5252300000000  0.4125100000000  0.4533700000000 1.0
C      1  0.4478210000000  0.4153940000000  0.5008000000000 1.0
C      1  0.5287410000000  0.5874510000000  0.5456610000000 1.0
C      1  0.5249600000000  0.5864520000000  0.4533900000000 1.0
C      1  0.4454980000000  0.5894720000000  0.5034130000000 1.0
C      1  0.4661000000000  0.5424320000000  0.5314310000000 1.0
C      1  0.5555490000000  0.5377400000000  0.5105670000000 1.0
C      1  0.4851380000000  0.5345770000000  0.4533830000000 1.0
C      1  0.4689460000000  0.4573800000000  0.5395630000000 1.0
C      1  0.5514030000000  0.4604310000000  0.5088530000000 1.0
C      1  0.4876120000000  0.4604920000000  0.4532740000000 1.0
C      1  0.4980690000000  0.5686510000000  0.5768900000000 1.0
C      1  0.5667940000000  0.5689070000000  0.4609480000000 1.0
C      1  0.4352230000000  0.5693030000000  0.4603440000000 1.0
C      1  0.4981800000000  0.4298100000000  0.5800920000000 1.0
C      1  0.5674470000000  0.4309490000000  0.4614970000000 1.0
C      1  0.4374130000000  0.4355150000000  0.4552120000000 1.0
C      1  0.4860640000000  0.5946560000000  0.4760270000000 1.0
C      1  0.4861520000000  0.5939800000000  0.5256580000000 1.0
C      1  0.5291870000000  0.5935170000000  0.5003460000000 1.0
C      1  0.4851910000000  0.4069510000000  0.4749410000000 1.0
C      1  0.4846640000000  0.4061220000000  0.5248990000000 1.0
C      1  0.5270920000000  0.4111240000000  0.5000400000000 1.0
C      1  0.4994470000000  0.4007820000000  0.5000790000000 1.0
C      1  0.5006480000000  0.6010880000000  0.5005340000000 1.0
END
