TITL C-2441157-2117-335 0.0243196582902742 125000 -18783.8715627317 0 0 130 (C1) n - 1
REM
REM in /home/bkarasulu/work/CARBON/AIRSS/Generating-Clusters/ReaxFF-fromJPCA2015/Units_Real/with-SteepDescent/Higher-Symm
REM
REM
REM
REM
REM
REM ./C.cell (1df0a924f5614ab8850e4351716899ee)
REM
REM compiler GCC version 9.2.1 20190827 (Red Hat 9.2.1-1)
REM options -cpp -mtune=generic -march=x86-64 -g -O0 -fpre-include=/usr/include/finclude/math-vector-fortran.h
REM seed -1220731817 -588659126 -1375324339 812265553 -458698174 1272441792 396570663 -1138382224 1929048822 1600737952 -859866522 1295817545 -994257346 1245326530 2046528044 94199594 1166721965 -2010340210 -420757821 1407667406 -1708584553 -1085964579 -745554079 573006625 283714574 1461224999 -2055517661 423115101 -715518114 -961686641 -864972274 -1040423415 1966492054
REM
CELL 1.54180   50.00000   50.00000   50.00000   90.00000   90.00000   90.00000
LATT -1
SFAC C  
C      1  0.5927140000000  0.4773960000000  0.5045370000000 1.0
C      1  0.4757700000000  0.4256620000000  0.4313130000000 1.0
C      1  0.5552680000000  0.5520990000000  0.5493650000000 1.0
C      1  0.5073940000000  0.5793990000000  0.4346290000000 1.0
C      1  0.5314160000000  0.4717420000000  0.5083800000000 1.0
C      1  0.4471020000000  0.5543430000000  0.5383770000000 1.0
C      1  0.5536480000000  0.5556570000000  0.4989640000000 1.0
C      1  0.5387730000000  0.4612350000000  0.4232050000000 1.0
C      1  0.5639800000000  0.5126560000000  0.4960970000000 1.0
C      1  0.4800260000000  0.5578390000000  0.5773740000000 1.0
C      1  0.4886890000000  0.4575730000000  0.4875780000000 1.0
C      1  0.5616280000000  0.4109370000000  0.4661220000000 1.0
C      1  0.5543840000000  0.5276240000000  0.5840110000000 1.0
C      1  0.4387890000000  0.4857680000000  0.5444590000000 1.0
C      1  0.5271720000000  0.5955670000000  0.5061800000000 1.0
C      1  0.5274150000000  0.5439270000000  0.4989560000000 1.0
C      1  0.4105670000000  0.4870550000000  0.4850190000000 1.0
C      1  0.5106810000000  0.4480160000000  0.5800940000000 1.0
C      1  0.5097660000000  0.4476440000000  0.5069180000000 1.0
C      1  0.4638360000000  0.4885220000000  0.5881840000000 1.0
C      1  0.4261020000000  0.5121930000000  0.5509630000000 1.0
C      1  0.4984090000000  0.4123030000000  0.5630840000000 1.0
C      1  0.5129450000000  0.5245000000000  0.5185150000000 1.0
C      1  0.4985960000000  0.4965680000000  0.4194290000000 1.0
C      1  0.4546850000000  0.4798220000000  0.4607410000000 1.0
C      1  0.5416980000000  0.4932460000000  0.4913440000000 1.0
C      1  0.4668360000000  0.4363890000000  0.4813390000000 1.0
C      1  0.4627230000000  0.5931840000000  0.5143930000000 1.0
C      1  0.5660160000000  0.5363640000000  0.4795850000000 1.0
C      1  0.4549610000000  0.5153250000000  0.5932580000000 1.0
C      1  0.4877470000000  0.4703070000000  0.4127880000000 1.0
C      1  0.5781210000000  0.5040020000000  0.5432970000000 1.0
C      1  0.5107500000000  0.5947520000000  0.5467360000000 1.0
C      1  0.5547910000000  0.4173850000000  0.4927060000000 1.0
C      1  0.4664620000000  0.4350960000000  0.5368490000000 1.0
C      1  0.5175640000000  0.5263950000000  0.4560700000000 1.0
C      1  0.4493330000000  0.4356830000000  0.4363670000000 1.0
C      1  0.5851330000000  0.4974510000000  0.4573680000000 1.0
C      1  0.4896650000000  0.5934460000000  0.5265890000000 1.0
C      1  0.4411300000000  0.4799430000000  0.4163670000000 1.0
C      1  0.4124270000000  0.5401290000000  0.4880560000000 1.0
C      1  0.5255830000000  0.5011940000000  0.4692010000000 1.0
C      1  0.5570290000000  0.5014800000000  0.5886030000000 1.0
C      1  0.4962990000000  0.4027960000000  0.4950620000000 1.0
C      1  0.4387100000000  0.5467390000000  0.4464130000000 1.0
C      1  0.5533760000000  0.4166330000000  0.5330610000000 1.0
C      1  0.4769910000000  0.4840490000000  0.5089420000000 1.0
C      1  0.4876940000000  0.5203960000000  0.4501600000000 1.0
C      1  0.4605150000000  0.4445830000000  0.5641370000000 1.0
C      1  0.4290750000000  0.5208440000000  0.5794640000000 1.0
C      1  0.5700650000000  0.5283490000000  0.5587030000000 1.0
C      1  0.4496630000000  0.4793460000000  0.5181880000000 1.0
C      1  0.5681230000000  0.5048030000000  0.4382710000000 1.0
C      1  0.5618260000000  0.5316860000000  0.4497220000000 1.0
C      1  0.5163140000000  0.4720220000000  0.5933440000000 1.0
C      1  0.5499460000000  0.4856780000000  0.4199110000000 1.0
C      1  0.4340680000000  0.5306630000000  0.5049510000000 1.0
C      1  0.5464230000000  0.4759190000000  0.5901810000000 1.0
C      1  0.4425390000000  0.4630570000000  0.4402050000000 1.0
C      1  0.4424340000000  0.5829910000000  0.4797020000000 1.0
C      1  0.4589940000000  0.5529860000000  0.4253720000000 1.0
C      1  0.4634370000000  0.5287560000000  0.4106890000000 1.0
C      1  0.4441960000000  0.5092660000000  0.4216350000000 1.0
C      1  0.4242170000000  0.4354840000000  0.5087770000000 1.0
C      1  0.5559680000000  0.4631630000000  0.5655690000000 1.0
C      1  0.5185840000000  0.4061250000000  0.5496440000000 1.0
C      1  0.5232130000000  0.5288890000000  0.4121770000000 1.0
C      1  0.5319420000000  0.4204810000000  0.4545990000000 1.0
C      1  0.5629690000000  0.4564080000000  0.4633920000000 1.0
C      1  0.4407910000000  0.4580280000000  0.4981140000000 1.0
C      1  0.4507920000000  0.4718220000000  0.5680640000000 1.0
C      1  0.5239560000000  0.5256820000000  0.5730720000000 1.0
C      1  0.5866140000000  0.4567680000000  0.4585090000000 1.0
C      1  0.5799550000000  0.4581220000000  0.5209600000000 1.0
C      1  0.4323840000000  0.5185550000000  0.4461710000000 1.0
C      1  0.4488560000000  0.4209690000000  0.5178520000000 1.0
C      1  0.4624160000000  0.4233840000000  0.4560220000000 1.0
C      1  0.4893130000000  0.6071180000000  0.4736650000000 1.0
C      1  0.5314640000000  0.4520680000000  0.5576190000000 1.0
C      1  0.4917820000000  0.4471640000000  0.5303390000000 1.0
C      1  0.4622800000000  0.5347320000000  0.4973140000000 1.0
C      1  0.4011570000000  0.5138560000000  0.4889400000000 1.0
C      1  0.5112910000000  0.4089880000000  0.4718620000000 1.0
C      1  0.5257160000000  0.4995310000000  0.4094200000000 1.0
C      1  0.5064870000000  0.4846210000000  0.4608700000000 1.0
C      1  0.5254380000000  0.4370220000000  0.4271600000000 1.0
C      1  0.5369700000000  0.5371440000000  0.4362880000000 1.0
C      1  0.4768640000000  0.5190250000000  0.5419680000000 1.0
C      1  0.5704580000000  0.4299410000000  0.5157860000000 1.0
C      1  0.4847730000000  0.5915560000000  0.4495500000000 1.0
C      1  0.4687710000000  0.4123020000000  0.4983170000000 1.0
C      1  0.5359510000000  0.4250970000000  0.5469500000000 1.0
C      1  0.4613120000000  0.4691410000000  0.3974760000000 1.0
C      1  0.4916980000000  0.4751050000000  0.5338810000000 1.0
C      1  0.5030110000000  0.5197460000000  0.5919890000000 1.0
C      1  0.4792020000000  0.5347670000000  0.5946140000000 1.0
C      1  0.5217420000000  0.5513410000000  0.4724060000000 1.0
C      1  0.5081480000000  0.5477000000000  0.5350230000000 1.0
C      1  0.4973660000000  0.4429660000000  0.4224880000000 1.0
C      1  0.5173470000000  0.5985470000000  0.4800500000000 1.0
C      1  0.5246640000000  0.5512020000000  0.5591280000000 1.0
C      1  0.4882950000000  0.5607040000000  0.4216260000000 1.0
C      1  0.5729310000000  0.4749770000000  0.5451440000000 1.0
C      1  0.5981740000000  0.4776200000000  0.4736280000000 1.0
C      1  0.5198770000000  0.4188130000000  0.4974170000000 1.0
C      1  0.4803860000000  0.4938420000000  0.4569600000000 1.0
C      1  0.4275580000000  0.5609030000000  0.4695330000000 1.0
C      1  0.5056540000000  0.5759370000000  0.5717230000000 1.0
C      1  0.4847100000000  0.4332660000000  0.5768310000000 1.0
C      1  0.4329900000000  0.4977570000000  0.4683240000000 1.0
C      1  0.5228540000000  0.5766910000000  0.4597160000000 1.0
C      1  0.4912310000000  0.5654720000000  0.5222560000000 1.0
C      1  0.4624950000000  0.6026060000000  0.4867900000000 1.0
C      1  0.5096670000000  0.4606320000000  0.4681620000000 1.0
C      1  0.4795940000000  0.5668160000000  0.4636760000000 1.0
C      1  0.5359690000000  0.4484010000000  0.4658290000000 1.0
C      1  0.4945190000000  0.4920450000000  0.5879080000000 1.0
C      1  0.4111580000000  0.4592630000000  0.4977280000000 1.0
C      1  0.4629300000000  0.5627880000000  0.5156560000000 1.0
C      1  0.4938460000000  0.5352620000000  0.4085840000000 1.0
C      1  0.4760340000000  0.5399720000000  0.4691100000000 1.0
C      1  0.4808080000000  0.5155730000000  0.5128890000000 1.0
C      1  0.4932570000000  0.4978500000000  0.5532470000000 1.0
C      1  0.5856270000000  0.5039150000000  0.5149880000000 1.0
C      1  0.5261010000000  0.4785000000000  0.5357840000000 1.0
C      1  0.4675260000000  0.5430370000000  0.5550290000000 1.0
C      1  0.5558000000000  0.5685880000000  0.5260400000000 1.0
C      1  0.4279650000000  0.5346620000000  0.5324330000000 1.0
C      1  0.5365980000000  0.5924200000000  0.5311640000000 1.0
C      1  0.5211760000000  0.5077500000000  0.5442770000000 1.0
END
