TITL C-2441166-8118-479 0.0667728677121286 125000 -15221.2440240773 0 0 117 (C1) n - 1
REM
REM in /home/bkarasulu/work/CARBON/AIRSS/Generating-Clusters/ReaxFF-fromJPCA2015/Units_Real/with-SteepDescent/Higher-Symm
REM
REM
REM
REM
REM
REM ./C.cell (1df0a924f5614ab8850e4351716899ee)
REM
REM compiler GCC version 9.2.1 20190827 (Red Hat 9.2.1-1)
REM options -cpp -mtune=generic -march=x86-64 -g -O0 -fpre-include=/usr/include/finclude/math-vector-fortran.h
REM seed 1419782213 541351320 1041261790 1705665641 630425920 -1843194315 196451803 1190915351 651896519 1530367118 1607068528 -1105804474 -2145984500 -1946779828 -1336414125 -408176221 -1206033605 1482875695 1335676718 -2120833321 996066875 -900670302 -1898570910 784440387 -378493618 -1588591520 631771824 -2008012200 -999860360 -1888653216 -1025404095 1185941511 -91694088
REM
CELL 1.54180   50.00000   50.00000   50.00000   90.00000   90.00000   90.00000
LATT -1
SFAC C  
C      1  0.5826190000000  0.5268220000000  0.5463250000000 1.0
C      1  0.5681880000000  0.5272730000000  0.4392500000000 1.0
C      1  0.4615170000000  0.5250870000000  0.4119240000000 1.0
C      1  0.4069760000000  0.5291070000000  0.5116970000000 1.0
C      1  0.4781480000000  0.5246680000000  0.5927140000000 1.0
C      1  0.5792070000000  0.4685360000000  0.4537630000000 1.0
C      1  0.5720750000000  0.4711440000000  0.5626230000000 1.0
C      1  0.4600190000000  0.4684360000000  0.5854680000000 1.0
C      1  0.4043490000000  0.4722730000000  0.4899580000000 1.0
C      1  0.4784680000000  0.4706790000000  0.4074620000000 1.0
C      1  0.5496460000000  0.5654120000000  0.5507390000000 1.0
C      1  0.5619920000000  0.5649490000000  0.4716350000000 1.0
C      1  0.4799300000000  0.5632540000000  0.4268740000000 1.0
C      1  0.4321160000000  0.5662560000000  0.4901800000000 1.0
C      1  0.4732420000000  0.5640020000000  0.5698630000000 1.0
C      1  0.5427720000000  0.4326000000000  0.4531970000000 1.0
C      1  0.5623540000000  0.4327270000000  0.5394220000000 1.0
C      1  0.4889270000000  0.4316970000000  0.5679800000000 1.0
C      1  0.4228520000000  0.4328620000000  0.5017600000000 1.0
C      1  0.4772050000000  0.4326380000000  0.4298100000000 1.0
C      1  0.5775750000000  0.4574810000000  0.5375100000000 1.0
C      1  0.5557490000000  0.4566280000000  0.4416980000000 1.0
C      1  0.4601360000000  0.4562850000000  0.4246690000000 1.0
C      1  0.4132920000000  0.4580530000000  0.5137980000000 1.0
C      1  0.4864070000000  0.4563950000000  0.5846100000000 1.0
C      1  0.5726170000000  0.5385330000000  0.4653750000000 1.0
C      1  0.5607840000000  0.5395710000000  0.5608230000000 1.0
C      1  0.4593410000000  0.5390400000000  0.5757670000000 1.0
C      1  0.4141270000000  0.5424920000000  0.4875560000000 1.0
C      1  0.4873430000000  0.5380570000000  0.4142000000000 1.0
C      1  0.4516390000000  0.4364570000000  0.5504080000000 1.0
C      1  0.5365410000000  0.4312400000000  0.5522250000000 1.0
C      1  0.5677540000000  0.4379500000000  0.4858510000000 1.0
C      1  0.5045790000000  0.4387910000000  0.4221260000000 1.0
C      1  0.4412140000000  0.4290980000000  0.4780750000000 1.0
C      1  0.4577090000000  0.5659020000000  0.4470320000000 1.0
C      1  0.5293110000000  0.5608710000000  0.4370900000000 1.0
C      1  0.5725310000000  0.5612790000000  0.5164340000000 1.0
C      1  0.5012530000000  0.5664800000000  0.5646260000000 1.0
C      1  0.4382020000000  0.5616510000000  0.5309330000000 1.0
C      1  0.5297060000000  0.5368290000000  0.4923420000000 1.0
C      1  0.4973630000000  0.5264580000000  0.4707910000000 1.0
C      1  0.4550500000000  0.5284970000000  0.4834090000000 1.0
C      1  0.4845950000000  0.5301590000000  0.5201010000000 1.0
C      1  0.5230680000000  0.5349000000000  0.5348430000000 1.0
C      1  0.5321520000000  0.4716400000000  0.5121300000000 1.0
C      1  0.5021720000000  0.4640960000000  0.5404900000000 1.0
C      1  0.4653290000000  0.4614900000000  0.5121460000000 1.0
C      1  0.4767740000000  0.4631290000000  0.4691670000000 1.0
C      1  0.5208450000000  0.4667560000000  0.4723710000000 1.0
C      1  0.5447640000000  0.4836110000000  0.4377940000000 1.0
C      1  0.4538890000000  0.4817340000000  0.4377100000000 1.0
C      1  0.4252050000000  0.4840410000000  0.5229690000000 1.0
C      1  0.4976160000000  0.4829460000000  0.5806290000000 1.0
C      1  0.5732370000000  0.4830810000000  0.5235870000000 1.0
C      1  0.5487510000000  0.5132990000000  0.5639830000000 1.0
C      1  0.4546700000000  0.5135260000000  0.5616010000000 1.0
C      1  0.4248770000000  0.5168030000000  0.4769080000000 1.0
C      1  0.4987310000000  0.5117650000000  0.4220580000000 1.0
C      1  0.5688540000000  0.5105730000000  0.4764760000000 1.0
C      1  0.5145540000000  0.5038230000000  0.5875680000000 1.0
C      1  0.5897990000000  0.5041190000000  0.5127220000000 1.0
C      1  0.5391350000000  0.5056000000000  0.4199090000000 1.0
C      1  0.4351800000000  0.5035610000000  0.4361130000000 1.0
C      1  0.4192360000000  0.5047230000000  0.5426600000000 1.0
C      1  0.5163280000000  0.4930000000000  0.4099220000000 1.0
C      1  0.5896380000000  0.4924010000000  0.4869390000000 1.0
C      1  0.5393840000000  0.4936500000000  0.5813150000000 1.0
C      1  0.4348220000000  0.4922590000000  0.5630730000000 1.0
C      1  0.4204920000000  0.4940610000000  0.4581820000000 1.0
C      1  0.4716790000000  0.5194680000000  0.4620320000000 1.0
C      1  0.4580480000000  0.5249210000000  0.5121020000000 1.0
C      1  0.4988290000000  0.5230800000000  0.5448950000000 1.0
C      1  0.5419560000000  0.5256090000000  0.5152190000000 1.0
C      1  0.5248690000000  0.5249420000000  0.4655500000000 1.0
C      1  0.4751600000000  0.4737350000000  0.5357980000000 1.0
C      1  0.4555760000000  0.4730920000000  0.4871570000000 1.0
C      1  0.4994530000000  0.4735830000000  0.4547220000000 1.0
C      1  0.5429970000000  0.4808370000000  0.4867300000000 1.0
C      1  0.5275960000000  0.4778910000000  0.5401390000000 1.0
C      1  0.4464350000000  0.4159370000000  0.5034250000000 1.0
C      1  0.4719970000000  0.4196440000000  0.5493190000000 1.0
C      1  0.5410230000000  0.4181330000000  0.5277360000000 1.0
C      1  0.5520260000000  0.4221360000000  0.4792130000000 1.0
C      1  0.4872240000000  0.4195050000000  0.4543310000000 1.0
C      1  0.4419130000000  0.5808860000000  0.5124960000000 1.0
C      1  0.4848860000000  0.5797210000000  0.4503050000000 1.0
C      1  0.5425740000000  0.5788700000000  0.4545950000000 1.0
C      1  0.5541670000000  0.5784920000000  0.5262800000000 1.0
C      1  0.4829180000000  0.5791790000000  0.5474170000000 1.0
C      1  0.4529970000000  0.5266050000000  0.4397080000000 1.0
C      1  0.4330750000000  0.5319370000000  0.5271210000000 1.0
C      1  0.5014580000000  0.5273610000000  0.5747620000000 1.0
C      1  0.5711950000000  0.5310640000000  0.5191950000000 1.0
C      1  0.5380470000000  0.5307430000000  0.4388310000000 1.0
C      1  0.4531480000000  0.4649360000000  0.5570670000000 1.0
C      1  0.4286480000000  0.4700410000000  0.4735770000000 1.0
C      1  0.5034990000000  0.4688250000000  0.4226730000000 1.0
C      1  0.5717890000000  0.4648670000000  0.4819580000000 1.0
C      1  0.5426980000000  0.4692910000000  0.5646420000000 1.0
C      1  0.5324530000000  0.4242610000000  0.5006780000000 1.0
C      1  0.5154330000000  0.4255070000000  0.4453320000000 1.0
C      1  0.4702060000000  0.4340610000000  0.4734130000000 1.0
C      1  0.4654550000000  0.4307110000000  0.5221650000000 1.0
C      1  0.5090850000000  0.4356130000000  0.5463110000000 1.0
C      1  0.5491950000000  0.5681090000000  0.4985150000000 1.0
C      1  0.5205980000000  0.5634990000000  0.5436210000000 1.0
C      1  0.4651530000000  0.5724680000000  0.5254610000000 1.0
C      1  0.4559380000000  0.5595040000000  0.4749600000000 1.0
C      1  0.5126420000000  0.5734120000000  0.4571470000000 1.0
C      1  0.4718980000000  0.4958080000000  0.5846980000000 1.0
C      1  0.4731530000000  0.4977570000000  0.4154170000000 1.0
C      1  0.5721370000000  0.4999230000000  0.5530830000000 1.0
C      1  0.5695930000000  0.4981080000000  0.4489000000000 1.0
C      1  0.4103050000000  0.5011060000000  0.5007160000000 1.0
C      1  0.5009900000000  0.5366910000000  0.4967420000000 1.0
C      1  0.5182010000000  0.4500180000000  0.4974420000000 1.0
END
