TITL C-2441164-471-583 0.212015735320493 125000 -22522.4310511418 0 0 189 (C1) n - 1
REM
REM in /home/bkarasulu/work/CARBON/AIRSS/Generating-Clusters/ReaxFF-fromJPCA2015/Units_Real/with-SteepDescent/Higher-Symm
REM
REM
REM
REM
REM
REM ./C.cell (1df0a924f5614ab8850e4351716899ee)
REM
REM compiler GCC version 9.2.1 20190827 (Red Hat 9.2.1-1)
REM options -cpp -mtune=generic -march=x86-64 -g -O0 -fpre-include=/usr/include/finclude/math-vector-fortran.h
REM seed -2092106625 -853271507 537879019 -158497143 -970329014 146724254 1122881785 792820184 210630925 -1177049558 1421137037 1370331879 -849582841 186294627 -1913028287 -1161350229 -595342270 1247724267 -1415914652 2039077057 1490972850 766255891 2036854730 -1451633137 825617528 739602973 1845591396 484585037 1826253251 -1195791286 2015950480 1605410819 908488845
REM
CELL 1.54180   50.00000   50.00000   50.00000   90.00000   90.00000   90.00000
LATT -1
SFAC C  
C      1  0.4523810000000  0.5387830000000  0.5691670000000 1.0
C      1  0.5486110000000  0.5458650000000  0.5741630000000 1.0
C      1  0.5498290000000  0.4584050000000  0.5761680000000 1.0
C      1  0.4587150000000  0.4503350000000  0.5751450000000 1.0
C      1  0.4518120000000  0.4569980000000  0.4236650000000 1.0
C      1  0.5416590000000  0.4570460000000  0.4296770000000 1.0
C      1  0.5488680000000  0.5393880000000  0.4288860000000 1.0
C      1  0.4524900000000  0.5456690000000  0.4257990000000 1.0
C      1  0.5325090000000  0.3951770000000  0.4922980000000 1.0
C      1  0.3936910000000  0.4650910000000  0.4938990000000 1.0
C      1  0.4687800000000  0.6049020000000  0.4924930000000 1.0
C      1  0.6087300000000  0.5306620000000  0.4912100000000 1.0
C      1  0.5333050000000  0.6054800000000  0.5070630000000 1.0
C      1  0.3928050000000  0.5325000000000  0.5079170000000 1.0
C      1  0.4680980000000  0.3938870000000  0.5094700000000 1.0
C      1  0.6057620000000  0.4657720000000  0.5086070000000 1.0
C      1  0.5425550000000  0.5247590000000  0.5915410000000 1.0
C      1  0.5255040000000  0.4586020000000  0.5916850000000 1.0
C      1  0.4587460000000  0.4750060000000  0.5901500000000 1.0
C      1  0.4742850000000  0.5418850000000  0.5908750000000 1.0
C      1  0.5420950000000  0.4759750000000  0.4082420000000 1.0
C      1  0.5270670000000  0.5420080000000  0.4086530000000 1.0
C      1  0.4570940000000  0.5252970000000  0.4080930000000 1.0
C      1  0.4741910000000  0.4579800000000  0.4065730000000 1.0
C      1  0.4276480000000  0.4585690000000  0.5292920000000 1.0
C      1  0.4551480000000  0.5778520000000  0.5242940000000 1.0
C      1  0.5787660000000  0.5450540000000  0.5256470000000 1.0
C      1  0.5405160000000  0.4306750000000  0.5297520000000 1.0
C      1  0.4280850000000  0.5418020000000  0.4720230000000 1.0
C      1  0.4603280000000  0.4303980000000  0.4695510000000 1.0
C      1  0.5717090000000  0.4602050000000  0.4709110000000 1.0
C      1  0.5402910000000  0.5717940000000  0.4700750000000 1.0
C      1  0.4894450000000  0.4834000000000  0.3947180000000 1.0
C      1  0.4833060000000  0.5117950000000  0.3953370000000 1.0
C      1  0.5122480000000  0.5186830000000  0.3961060000000 1.0
C      1  0.5184940000000  0.4893720000000  0.3948530000000 1.0
C      1  0.4880960000000  0.5184930000000  0.6035290000000 1.0
C      1  0.4817270000000  0.4887680000000  0.6032250000000 1.0
C      1  0.5109270000000  0.4827060000000  0.6042270000000 1.0
C      1  0.5168420000000  0.5113920000000  0.6043090000000 1.0
C      1  0.4990010000000  0.4550130000000  0.4510600000000 1.0
C      1  0.4536910000000  0.4990500000000  0.4474420000000 1.0
C      1  0.4979410000000  0.5454210000000  0.4488070000000 1.0
C      1  0.5424430000000  0.4927630000000  0.4506600000000 1.0
C      1  0.5037160000000  0.5462220000000  0.5533280000000 1.0
C      1  0.4597290000000  0.4969590000000  0.5481570000000 1.0
C      1  0.5042450000000  0.4604400000000  0.5418570000000 1.0
C      1  0.5415520000000  0.5034590000000  0.5442140000000 1.0
C      1  0.4581410000000  0.5571730000000  0.5077350000000 1.0
C      1  0.5585120000000  0.5440100000000  0.5040320000000 1.0
C      1  0.5429210000000  0.4411500000000  0.5040930000000 1.0
C      1  0.4390820000000  0.4575460000000  0.5034100000000 1.0
C      1  0.4579780000000  0.4437720000000  0.4925860000000 1.0
C      1  0.5597230000000  0.4586060000000  0.4947590000000 1.0
C      1  0.5407220000000  0.5572530000000  0.4925800000000 1.0
C      1  0.4426140000000  0.5419630000000  0.4954230000000 1.0
C      1  0.4013650000000  0.4412550000000  0.5013060000000 1.0
C      1  0.4449720000000  0.5988690000000  0.5043210000000 1.0
C      1  0.6001030000000  0.5540390000000  0.5055020000000 1.0
C      1  0.5547230000000  0.4012120000000  0.5028740000000 1.0
C      1  0.4000500000000  0.5570270000000  0.4974220000000 1.0
C      1  0.4482850000000  0.4032820000000  0.4968100000000 1.0
C      1  0.5990540000000  0.4439850000000  0.4978020000000 1.0
C      1  0.5573600000000  0.5986300000000  0.4958370000000 1.0
C      1  0.4862670000000  0.5677760000000  0.5865200000000 1.0
C      1  0.5670570000000  0.5098470000000  0.5856390000000 1.0
C      1  0.5106420000000  0.4343270000000  0.5846810000000 1.0
C      1  0.4332600000000  0.4897050000000  0.5834950000000 1.0
C      1  0.4877040000000  0.4333470000000  0.4135910000000 1.0
C      1  0.5681020000000  0.4906110000000  0.4147040000000 1.0
C      1  0.5145730000000  0.5680140000000  0.4133910000000 1.0
C      1  0.4310740000000  0.5119670000000  0.4132260000000 1.0
C      1  0.5668520000000  0.4818400000000  0.5769170000000 1.0
C      1  0.4823100000000  0.4337980000000  0.5757490000000 1.0
C      1  0.4323570000000  0.5176670000000  0.5761480000000 1.0
C      1  0.5126890000000  0.5668970000000  0.5732340000000 1.0
C      1  0.5681250000000  0.5181110000000  0.4242430000000 1.0
C      1  0.4887700000000  0.5651560000000  0.4274740000000 1.0
C      1  0.4346910000000  0.4852660000000  0.4279380000000 1.0
C      1  0.5130460000000  0.4379170000000  0.4303240000000 1.0
C      1  0.4093900000000  0.4832960000000  0.5374970000000 1.0
C      1  0.4823370000000  0.5892630000000  0.5362380000000 1.0
C      1  0.5871890000000  0.5168230000000  0.5362540000000 1.0
C      1  0.5184110000000  0.4117070000000  0.5368230000000 1.0
C      1  0.4147680000000  0.5172220000000  0.4638820000000 1.0
C      1  0.4832320000000  0.4138600000000  0.4615490000000 1.0
C      1  0.5901720000000  0.4836950000000  0.4617680000000 1.0
C      1  0.5155530000000  0.5864830000000  0.4632920000000 1.0
C      1  0.5603010000000  0.5661570000000  0.5581840000000 1.0
C      1  0.5664680000000  0.4396470000000  0.5596120000000 1.0
C      1  0.4400160000000  0.4336850000000  0.5584970000000 1.0
C      1  0.4330410000000  0.5593050000000  0.5575450000000 1.0
C      1  0.5595840000000  0.4361520000000  0.4408190000000 1.0
C      1  0.5668570000000  0.5591140000000  0.4434910000000 1.0
C      1  0.4411070000000  0.5660240000000  0.4423440000000 1.0
C      1  0.4353270000000  0.4385950000000  0.4395270000000 1.0
C      1  0.5309460000000  0.4819730000000  0.4750660000000 1.0
C      1  0.4801290000000  0.4800450000000  0.4766730000000 1.0
C      1  0.4764370000000  0.5106030000000  0.4791090000000 1.0
C      1  0.5187350000000  0.5189570000000  0.4821610000000 1.0
C      1  0.5289270000000  0.5209610000000  0.5237970000000 1.0
C      1  0.4839480000000  0.5212360000000  0.5207270000000 1.0
C      1  0.4662560000000  0.4797040000000  0.5275090000000 1.0
C      1  0.5167600000000  0.4742600000000  0.5196720000000 1.0
C      1  0.5291780000000  0.3981580000000  0.4639410000000 1.0
C      1  0.3985210000000  0.4698710000000  0.4663300000000 1.0
C      1  0.4698510000000  0.6014530000000  0.4649680000000 1.0
C      1  0.5991110000000  0.5334730000000  0.4646350000000 1.0
C      1  0.5315500000000  0.6011430000000  0.5345840000000 1.0
C      1  0.3985700000000  0.5337060000000  0.5363150000000 1.0
C      1  0.4694880000000  0.3975360000000  0.5371460000000 1.0
C      1  0.6010520000000  0.4683240000000  0.5364800000000 1.0
C      1  0.4802400000000  0.5384440000000  0.4702790000000 1.0
C      1  0.5417730000000  0.5189540000000  0.4644470000000 1.0
C      1  0.5201930000000  0.4565070000000  0.4710090000000 1.0
C      1  0.4539600000000  0.4783070000000  0.4657500000000 1.0
C      1  0.4784950000000  0.4537590000000  0.5304220000000 1.0
C      1  0.5449390000000  0.4789390000000  0.5298670000000 1.0
C      1  0.5217570000000  0.5479160000000  0.5332220000000 1.0
C      1  0.4610930000000  0.5240790000000  0.5381530000000 1.0
C      1  0.5874690000000  0.4228760000000  0.5127710000000 1.0
C      1  0.4256470000000  0.4114300000000  0.5116320000000 1.0
C      1  0.4108050000000  0.5779860000000  0.5123130000000 1.0
C      1  0.5778080000000  0.5883750000000  0.5122220000000 1.0
C      1  0.5894940000000  0.5753680000000  0.4887270000000 1.0
C      1  0.4233960000000  0.5881430000000  0.4871000000000 1.0
C      1  0.4132310000000  0.4213930000000  0.4865260000000 1.0
C      1  0.5758480000000  0.4121780000000  0.4876830000000 1.0
C      1  0.3930110000000  0.4855260000000  0.5116760000000 1.0
C      1  0.4889520000000  0.6045570000000  0.5110290000000 1.0
C      1  0.6007060000000  0.5064270000000  0.5054720000000 1.0
C      1  0.5146820000000  0.3948470000000  0.5119620000000 1.0
C      1  0.4011300000000  0.5074280000000  0.4941010000000 1.0
C      1  0.4886550000000  0.3998760000000  0.4922600000000 1.0
C      1  0.6078940000000  0.4832320000000  0.4890420000000 1.0
C      1  0.5100710000000  0.5997810000000  0.4920820000000 1.0
C      1  0.5884920000000  0.4779870000000  0.4324750000000 1.0
C      1  0.4789750000000  0.4114040000000  0.4326120000000 1.0
C      1  0.4117870000000  0.5201940000000  0.4348250000000 1.0
C      1  0.5216600000000  0.5891160000000  0.4345270000000 1.0
C      1  0.5878330000000  0.5192130000000  0.5646750000000 1.0
C      1  0.4780510000000  0.5884700000000  0.5649630000000 1.0
C      1  0.4114720000000  0.4777250000000  0.5668030000000 1.0
C      1  0.5203100000000  0.4126570000000  0.5661510000000 1.0
C      1  0.4818440000000  0.5478660000000  0.5033450000000 1.0
C      1  0.5505830000000  0.5211210000000  0.5054590000000 1.0
C      1  0.5192430000000  0.4485500000000  0.4980720000000 1.0
C      1  0.4488470000000  0.4817060000000  0.5064850000000 1.0
C      1  0.4810490000000  0.4540910000000  0.4977700000000 1.0
C      1  0.5507040000000  0.4831490000000  0.4975040000000 1.0
C      1  0.5185690000000  0.5463690000000  0.4904020000000 1.0
C      1  0.4534570000000  0.5181280000000  0.4947960000000 1.0
C      1  0.4249430000000  0.5383900000000  0.5407670000000 1.0
C      1  0.5374630000000  0.5726870000000  0.5371770000000 1.0
C      1  0.5732230000000  0.4614010000000  0.5415140000000 1.0
C      1  0.4616910000000  0.4254460000000  0.5412640000000 1.0
C      1  0.4273330000000  0.4606440000000  0.4602020000000 1.0
C      1  0.5380210000000  0.4260780000000  0.4597180000000 1.0
C      1  0.5709590000000  0.5368440000000  0.4617780000000 1.0
C      1  0.4638720000000  0.5726050000000  0.4598590000000 1.0
C      1  0.4307000000000  0.5787110000000  0.5366820000000 1.0
C      1  0.5796020000000  0.5708940000000  0.5369740000000 1.0
C      1  0.5674230000000  0.4217370000000  0.5364490000000 1.0
C      1  0.4217930000000  0.4314050000000  0.5356150000000 1.0
C      1  0.4338010000000  0.4210830000000  0.4628700000000 1.0
C      1  0.5775840000000  0.4328000000000  0.4642910000000 1.0
C      1  0.5686310000000  0.5785570000000  0.4649910000000 1.0
C      1  0.4215620000000  0.5689600000000  0.4643940000000 1.0
C      1  0.4800040000000  0.5003470000000  0.4364630000000 1.0
C      1  0.5012860000000  0.5193860000000  0.4363460000000 1.0
C      1  0.5192650000000  0.4977750000000  0.4337370000000 1.0
C      1  0.4986630000000  0.4791400000000  0.4360660000000 1.0
C      1  0.4819070000000  0.4980980000000  0.5648450000000 1.0
C      1  0.5015580000000  0.4786090000000  0.5631600000000 1.0
C      1  0.5213820000000  0.4992320000000  0.5632280000000 1.0
C      1  0.5006960000000  0.5189770000000  0.5629960000000 1.0
C      1  0.4785220000000  0.5887300000000  0.4408050000000 1.0
C      1  0.5864820000000  0.5160410000000  0.4469820000000 1.0
C      1  0.5210060000000  0.4118700000000  0.4413470000000 1.0
C      1  0.4115160000000  0.4768550000000  0.4430980000000 1.0
C      1  0.4796350000000  0.4116420000000  0.5586490000000 1.0
C      1  0.5875140000000  0.4791730000000  0.5580250000000 1.0
C      1  0.5215240000000  0.5899240000000  0.5576010000000 1.0
C      1  0.4124720000000  0.5165170000000  0.5548500000000 1.0
C      1  0.5024740000000  0.5683390000000  0.4980680000000 1.0
C      1  0.5712950000000  0.5036820000000  0.5012800000000 1.0
C      1  0.4975610000000  0.4293590000000  0.4970390000000 1.0
C      1  0.4312290000000  0.5019100000000  0.4976940000000 1.0
C      1  0.5050040000000  0.5041730000000  0.5097670000000 1.0
END
