TITL C-2441165-58-523 0.00896703415458344 125000 -15295.5353992894 0 0 107 (C1) n - 1
REM
REM in /home/bkarasulu/work/CARBON/AIRSS/Generating-Clusters/ReaxFF-fromJPCA2015/Units_Real/with-SteepDescent/Higher-Symm
REM
REM
REM
REM
REM
REM ./C.cell (1df0a924f5614ab8850e4351716899ee)
REM
REM compiler GCC version 9.2.1 20190827 (Red Hat 9.2.1-1)
REM options -cpp -mtune=generic -march=x86-64 -g -O0 -fpre-include=/usr/include/finclude/math-vector-fortran.h
REM seed -1824376043 267744107 -1678873716 -285369298 -1132871701 1017758061 2072487654 -1117813641 -181957492 1836060732 1152925943 -1816968698 -1011646054 -1111707966 -2076153232 -2023194337 -1536700948 1517378284 46913857 -223586200 973638562 105419899 -2146383800 -984387245 -469208392 665691521 -1293665911 1102302798 -1309048949 -745326881 -105791562 865138306 -323132495
REM
CELL 1.54180   50.00000   50.00000   50.00000   90.00000   90.00000   90.00000
LATT -1
SFAC C  
C      1  0.4675530000000  0.4220370000000  0.4860750000000 1.0
C      1  0.4718920000000  0.4848310000000  0.5781730000000 1.0
C      1  0.4686120000000  0.5791780000000  0.5137010000000 1.0
C      1  0.4727530000000  0.5081960000000  0.4207170000000 1.0
C      1  0.5183040000000  0.4214410000000  0.4815040000000 1.0
C      1  0.5292800000000  0.4856020000000  0.5756190000000 1.0
C      1  0.5288910000000  0.5811170000000  0.5174730000000 1.0
C      1  0.5297190000000  0.5125310000000  0.4233700000000 1.0
C      1  0.5174220000000  0.4626430000000  0.5089260000000 1.0
C      1  0.5203240000000  0.5013590000000  0.5336520000000 1.0
C      1  0.5163450000000  0.5418010000000  0.5070650000000 1.0
C      1  0.5125810000000  0.4982250000000  0.4623140000000 1.0
C      1  0.4757210000000  0.4616590000000  0.4955910000000 1.0
C      1  0.4787210000000  0.4967470000000  0.5342920000000 1.0
C      1  0.4825200000000  0.5400070000000  0.5052670000000 1.0
C      1  0.4859560000000  0.5094580000000  0.4639020000000 1.0
C      1  0.4158600000000  0.5331560000000  0.4789940000000 1.0
C      1  0.4195150000000  0.4693210000000  0.4673880000000 1.0
C      1  0.4138910000000  0.4632370000000  0.5270970000000 1.0
C      1  0.4133900000000  0.5243230000000  0.5314870000000 1.0
C      1  0.5817200000000  0.5373150000000  0.4778380000000 1.0
C      1  0.5833610000000  0.4791790000000  0.4612900000000 1.0
C      1  0.5807070000000  0.4677860000000  0.5324010000000 1.0
C      1  0.5864590000000  0.5269470000000  0.5375270000000 1.0
C      1  0.4352390000000  0.4446740000000  0.4730730000000 1.0
C      1  0.4402370000000  0.4666650000000  0.5588630000000 1.0
C      1  0.4409670000000  0.5541510000000  0.5308690000000 1.0
C      1  0.4460110000000  0.5319670000000  0.4419010000000 1.0
C      1  0.5547350000000  0.4342870000000  0.4675190000000 1.0
C      1  0.5630260000000  0.4707690000000  0.5562160000000 1.0
C      1  0.5582030000000  0.5564980000000  0.5321070000000 1.0
C      1  0.5566000000000  0.5361020000000  0.4438910000000 1.0
C      1  0.4412510000000  0.5722860000000  0.5075310000000 1.0
C      1  0.4438720000000  0.5094870000000  0.4235490000000 1.0
C      1  0.4394550000000  0.4251250000000  0.4944420000000 1.0
C      1  0.4436530000000  0.4917310000000  0.5755160000000 1.0
C      1  0.5558210000000  0.5747830000000  0.5091600000000 1.0
C      1  0.5585640000000  0.5112510000000  0.4273500000000 1.0
C      1  0.5461260000000  0.4169460000000  0.4894780000000 1.0
C      1  0.5576650000000  0.4933050000000  0.5741470000000 1.0
C      1  0.4384010000000  0.4864810000000  0.4570590000000 1.0
C      1  0.4376540000000  0.4604670000000  0.5294350000000 1.0
C      1  0.4366780000000  0.5272230000000  0.5403450000000 1.0
C      1  0.4392380000000  0.5382940000000  0.4711490000000 1.0
C      1  0.5567520000000  0.4653860000000  0.4651560000000 1.0
C      1  0.5673950000000  0.4482080000000  0.5145200000000 1.0
C      1  0.5625600000000  0.5282270000000  0.5396140000000 1.0
C      1  0.5580790000000  0.5419340000000  0.4734550000000 1.0
C      1  0.4591500000000  0.5777020000000  0.4612230000000 1.0
C      1  0.4490680000000  0.4582060000000  0.4201350000000 1.0
C      1  0.4612820000000  0.4211530000000  0.5397990000000 1.0
C      1  0.4606580000000  0.5390510000000  0.5801510000000 1.0
C      1  0.5294710000000  0.5745730000000  0.4690350000000 1.0
C      1  0.5555020000000  0.4636390000000  0.4336050000000 1.0
C      1  0.5342250000000  0.4264260000000  0.5370000000000 1.0
C      1  0.5370920000000  0.5363270000000  0.5740380000000 1.0
C      1  0.3979530000000  0.5141710000000  0.4879330000000 1.0
C      1  0.4012570000000  0.4847810000000  0.4851900000000 1.0
C      1  0.3961990000000  0.4805240000000  0.5133830000000 1.0
C      1  0.3941780000000  0.5106880000000  0.5179170000000 1.0
C      1  0.6008950000000  0.5200040000000  0.4887430000000 1.0
C      1  0.5966000000000  0.4909460000000  0.4846360000000 1.0
C      1  0.5953440000000  0.4865130000000  0.5142160000000 1.0
C      1  0.6033070000000  0.5144660000000  0.5190540000000 1.0
C      1  0.5368710000000  0.5288060000000  0.4910440000000 1.0
C      1  0.5347170000000  0.4876990000000  0.4767060000000 1.0
C      1  0.5458550000000  0.4655490000000  0.5073960000000 1.0
C      1  0.5460260000000  0.5066440000000  0.5244070000000 1.0
C      1  0.4590640000000  0.5282170000000  0.4912770000000 1.0
C      1  0.4622980000000  0.4943350000000  0.4710040000000 1.0
C      1  0.4521360000000  0.4734720000000  0.5069430000000 1.0
C      1  0.4547870000000  0.5084300000000  0.5266750000000 1.0
C      1  0.5084890000000  0.4358460000000  0.5032340000000 1.0
C      1  0.5143740000000  0.5054810000000  0.5609710000000 1.0
C      1  0.5138270000000  0.5741010000000  0.4939530000000 1.0
C      1  0.5144840000000  0.4859780000000  0.4337080000000 1.0
C      1  0.4826600000000  0.4356250000000  0.5082640000000 1.0
C      1  0.4865930000000  0.5062620000000  0.5617100000000 1.0
C      1  0.4852430000000  0.5675080000000  0.4917140000000 1.0
C      1  0.4851890000000  0.4822610000000  0.4265160000000 1.0
C      1  0.4367610000000  0.5680760000000  0.4782570000000 1.0
C      1  0.4331330000000  0.4833650000000  0.4309260000000 1.0
C      1  0.4378280000000  0.4295170000000  0.5238070000000 1.0
C      1  0.4397920000000  0.5205660000000  0.5713180000000 1.0
C      1  0.5561880000000  0.5695280000000  0.4799940000000 1.0
C      1  0.5733700000000  0.4869000000000  0.4345390000000 1.0
C      1  0.5540280000000  0.4211450000000  0.5180440000000 1.0
C      1  0.5616880000000  0.5229110000000  0.5703520000000 1.0
C      1  0.4701750000000  0.5552430000000  0.5317120000000 1.0
C      1  0.4755390000000  0.5295850000000  0.4430230000000 1.0
C      1  0.4651110000000  0.4468060000000  0.4683680000000 1.0
C      1  0.4679700000000  0.4587140000000  0.5652910000000 1.0
C      1  0.5273230000000  0.5557710000000  0.5324420000000 1.0
C      1  0.5275570000000  0.5381370000000  0.4377500000000 1.0
C      1  0.5279910000000  0.4348640000000  0.4558460000000 1.0
C      1  0.5344170000000  0.4601300000000  0.5616760000000 1.0
C      1  0.5161310000000  0.4385510000000  0.5530570000000 1.0
C      1  0.5137220000000  0.5453950000000  0.5616720000000 1.0
C      1  0.5134080000000  0.5611580000000  0.4496080000000 1.0
C      1  0.5277030000000  0.4571280000000  0.4367060000000 1.0
C      1  0.4835460000000  0.4395010000000  0.5480920000000 1.0
C      1  0.4832790000000  0.5423860000000  0.5598150000000 1.0
C      1  0.4838470000000  0.5617080000000  0.4560410000000 1.0
C      1  0.4722030000000  0.4579890000000  0.4376840000000 1.0
C      1  0.4484740000000  0.5016350000000  0.4996720000000 1.0
C      1  0.5472500000000  0.5041960000000  0.4963510000000 1.0
C      1  0.5007540000000  0.4864200000000  0.5178840000000 1.0
END
