TITL C-2441163-1170-666 0.0673554077842267 125000 -7846.26117360694 0 0 69 (C1) n - 1
REM
REM in /home/bkarasulu/work/CARBON/AIRSS/Generating-Clusters/ReaxFF-fromJPCA2015/Units_Real/with-SteepDescent/Higher-Symm
REM
REM
REM
REM
REM
REM ./C.cell (1df0a924f5614ab8850e4351716899ee)
REM
REM compiler GCC version 9.2.1 20190827 (Red Hat 9.2.1-1)
REM options -cpp -mtune=generic -march=x86-64 -g -O0 -fpre-include=/usr/include/finclude/math-vector-fortran.h
REM seed -1650672079 880165394 347835012 1610313263 -204675230 1406756655 -1469742341 276708884 1003030088 -1167173266 -879234731 -429770406 309606057 -1149159288 720204302 1101368178 799769423 -1451451363 881718433 830908889 1375548436 -295846605 -871048019 1744916739 -146096034 1094333417 1990003531 298134635 -54289705 696750883 2029421901 915916488 2048268598
REM
CELL 1.54180   50.00000   50.00000   50.00000   90.00000   90.00000   90.00000
LATT -1
SFAC C  
C      1  0.4750470000000  0.5475690000000  0.4766070000000 1.0
C      1  0.4715020000000  0.5254630000000  0.5456420000000 1.0
C      1  0.4760060000000  0.4607480000000  0.5141250000000 1.0
C      1  0.4753560000000  0.4773420000000  0.4494370000000 1.0
C      1  0.5274800000000  0.5490350000000  0.4759450000000 1.0
C      1  0.5266610000000  0.5243200000000  0.5480410000000 1.0
C      1  0.5248980000000  0.4527910000000  0.5240320000000 1.0
C      1  0.5261970000000  0.4764900000000  0.4522850000000 1.0
C      1  0.4754330000000  0.5355230000000  0.4307950000000 1.0
C      1  0.4727980000000  0.5712820000000  0.5338370000000 1.0
C      1  0.4743110000000  0.4643930000000  0.5687300000000 1.0
C      1  0.4758230000000  0.4318010000000  0.4651390000000 1.0
C      1  0.5266840000000  0.5356400000000  0.4293990000000 1.0
C      1  0.5258890000000  0.5700250000000  0.5355220000000 1.0
C      1  0.5234480000000  0.4648370000000  0.5689860000000 1.0
C      1  0.5256960000000  0.4310660000000  0.4659150000000 1.0
C      1  0.5385500000000  0.4132630000000  0.5070250000000 1.0
C      1  0.5388720000000  0.4939200000000  0.4131190000000 1.0
C      1  0.5394400000000  0.5872050000000  0.4935620000000 1.0
C      1  0.5389790000000  0.5060960000000  0.5873810000000 1.0
C      1  0.4649900000000  0.4136830000000  0.5097010000000 1.0
C      1  0.4614550000000  0.4946380000000  0.4136350000000 1.0
C      1  0.4609250000000  0.5863700000000  0.4965280000000 1.0
C      1  0.4630240000000  0.5066320000000  0.5876970000000 1.0
C      1  0.5275850000000  0.4815580000000  0.5217420000000 1.0
C      1  0.5286130000000  0.4788760000000  0.4809490000000 1.0
C      1  0.5281860000000  0.5200150000000  0.4789990000000 1.0
C      1  0.5278570000000  0.5220190000000  0.5195160000000 1.0
C      1  0.4683960000000  0.4876730000000  0.5259740000000 1.0
C      1  0.4699750000000  0.4720610000000  0.4758980000000 1.0
C      1  0.4725530000000  0.5195400000000  0.4828070000000 1.0
C      1  0.4735960000000  0.5171700000000  0.5170670000000 1.0
C      1  0.4567550000000  0.4632620000000  0.4940420000000 1.0
C      1  0.4542410000000  0.5090250000000  0.4639590000000 1.0
C      1  0.4479000000000  0.5357330000000  0.5122350000000 1.0
C      1  0.4450830000000  0.4896380000000  0.5411840000000 1.0
C      1  0.5478560000000  0.4617400000000  0.4918600000000 1.0
C      1  0.5482400000000  0.5092210000000  0.4621130000000 1.0
C      1  0.5482290000000  0.5384710000000  0.5094570000000 1.0
C      1  0.5473700000000  0.4912170000000  0.5389420000000 1.0
C      1  0.4823610000000  0.4492140000000  0.4430090000000 1.0
C      1  0.4815430000000  0.5546130000000  0.4505910000000 1.0
C      1  0.4800470000000  0.5517790000000  0.5538640000000 1.0
C      1  0.4737940000000  0.4409950000000  0.5532410000000 1.0
C      1  0.5174940000000  0.4500850000000  0.4455360000000 1.0
C      1  0.5205450000000  0.5557470000000  0.4488340000000 1.0
C      1  0.5198650000000  0.5502150000000  0.5544430000000 1.0
C      1  0.5126720000000  0.4468430000000  0.5489450000000 1.0
C      1  0.4839770000000  0.5134260000000  0.4153160000000 1.0
C      1  0.4848550000000  0.5866270000000  0.5136130000000 1.0
C      1  0.4843410000000  0.4875250000000  0.5852360000000 1.0
C      1  0.4841850000000  0.4160280000000  0.4877640000000 1.0
C      1  0.5167390000000  0.5131590000000  0.4152260000000 1.0
C      1  0.5176940000000  0.5852220000000  0.5128180000000 1.0
C      1  0.5165950000000  0.4874980000000  0.5852430000000 1.0
C      1  0.5167600000000  0.4151000000000  0.4876450000000 1.0
C      1  0.5500720000000  0.4896320000000  0.4416070000000 1.0
C      1  0.5512950000000  0.5587230000000  0.4899510000000 1.0
C      1  0.5504150000000  0.5105830000000  0.5588920000000 1.0
C      1  0.5494120000000  0.4419330000000  0.5115860000000 1.0
C      1  0.4499410000000  0.4922780000000  0.4420700000000 1.0
C      1  0.4516790000000  0.5563730000000  0.4918280000000 1.0
C      1  0.4502720000000  0.5108030000000  0.5590570000000 1.0
C      1  0.4609190000000  0.4382270000000  0.5276200000000 1.0
C      1  0.5002090000000  0.4698350000000  0.5540020000000 1.0
C      1  0.5023840000000  0.4471830000000  0.4702070000000 1.0
C      1  0.5003020000000  0.5331190000000  0.4479540000000 1.0
C      1  0.5020280000000  0.5524470000000  0.5331680000000 1.0
C      1  0.5150200000000  0.5010210000000  0.5011240000000 1.0
END
