TITL C-2441163-1170-1037 0.0233211446700552 125000 -14902.9154745538 0 0 105 (C1) n - 1
REM
REM in /home/bkarasulu/work/CARBON/AIRSS/Generating-Clusters/ReaxFF-fromJPCA2015/Units_Real/with-SteepDescent/Higher-Symm
REM
REM
REM
REM
REM
REM ./C.cell (1df0a924f5614ab8850e4351716899ee)
REM
REM compiler GCC version 9.2.1 20190827 (Red Hat 9.2.1-1)
REM options -cpp -mtune=generic -march=x86-64 -g -O0 -fpre-include=/usr/include/finclude/math-vector-fortran.h
REM seed 1777506213 -1269190915 -1028865282 -1821354468 344050444 -223207355 1525871128 -557946239 -1729249328 1993189302 498763489 -172530464 -368114335 -802392323 89981340 -1304139954 -1785533770 -782979306 428709554 -1623681551 1245597530 -1736494166 -1512110604 1121106557 846731771 302808714 -1444078785 1114754788 606334531 -1329105924 -759438399 -178767786 197058786
REM
CELL 1.54180   50.00000   50.00000   50.00000   90.00000   90.00000   90.00000
LATT -1
SFAC C  
C      1  0.4917750000000  0.4767820000000  0.4263430000000 1.0
C      1  0.4550820000000  0.5543230000000  0.4485230000000 1.0
C      1  0.5363690000000  0.4836920000000  0.5173810000000 1.0
C      1  0.5821610000000  0.5093360000000  0.5198150000000 1.0
C      1  0.5040310000000  0.5213340000000  0.5121290000000 1.0
C      1  0.5218570000000  0.4797670000000  0.4694210000000 1.0
C      1  0.5714770000000  0.4724250000000  0.4921780000000 1.0
C      1  0.5141870000000  0.5179260000000  0.4096120000000 1.0
C      1  0.5416490000000  0.5219750000000  0.4090100000000 1.0
C      1  0.4927050000000  0.5772730000000  0.5099690000000 1.0
C      1  0.5023150000000  0.4300150000000  0.5484340000000 1.0
C      1  0.4890740000000  0.4968350000000  0.5665890000000 1.0
C      1  0.5709570000000  0.5068150000000  0.4938200000000 1.0
C      1  0.4972550000000  0.5467740000000  0.4686510000000 1.0
C      1  0.4763810000000  0.5149370000000  0.5833860000000 1.0
C      1  0.5237240000000  0.5347680000000  0.5865370000000 1.0
C      1  0.5320360000000  0.5649580000000  0.4438250000000 1.0
C      1  0.4676690000000  0.5388960000000  0.4265360000000 1.0
C      1  0.4657030000000  0.4908650000000  0.4317140000000 1.0
C      1  0.4466570000000  0.5937250000000  0.4828730000000 1.0
C      1  0.4642220000000  0.4859020000000  0.4993940000000 1.0
C      1  0.5621120000000  0.5086440000000  0.4499140000000 1.0
C      1  0.4962040000000  0.5380580000000  0.4216940000000 1.0
C      1  0.5305040000000  0.5679740000000  0.5493030000000 1.0
C      1  0.4291940000000  0.5153370000000  0.4419580000000 1.0
C      1  0.4138520000000  0.5297530000000  0.5053090000000 1.0
C      1  0.5012460000000  0.4632360000000  0.4504160000000 1.0
C      1  0.5005520000000  0.4569910000000  0.4997070000000 1.0
C      1  0.5709710000000  0.4605050000000  0.4645550000000 1.0
C      1  0.5415690000000  0.4718000000000  0.4928090000000 1.0
C      1  0.5374960000000  0.5103520000000  0.5784580000000 1.0
C      1  0.4781700000000  0.4646140000000  0.4856320000000 1.0
C      1  0.5407430000000  0.4245680000000  0.4861750000000 1.0
C      1  0.4797080000000  0.5528590000000  0.5670070000000 1.0
C      1  0.5580180000000  0.5676710000000  0.4924640000000 1.0
C      1  0.5362530000000  0.4191050000000  0.5152590000000 1.0
C      1  0.5134370000000  0.4354910000000  0.4851240000000 1.0
C      1  0.5538240000000  0.4371470000000  0.4625830000000 1.0
C      1  0.4364410000000  0.4670550000000  0.4687580000000 1.0
C      1  0.4496630000000  0.5178840000000  0.5724190000000 1.0
C      1  0.4227470000000  0.4797680000000  0.5142670000000 1.0
C      1  0.5077140000000  0.5517560000000  0.4432690000000 1.0
C      1  0.4258530000000  0.5550260000000  0.5151090000000 1.0
C      1  0.4330450000000  0.5386470000000  0.4599880000000 1.0
C      1  0.4633630000000  0.5148740000000  0.4963070000000 1.0
C      1  0.5402980000000  0.5513960000000  0.5685620000000 1.0
C      1  0.5616730000000  0.5156760000000  0.4224970000000 1.0
C      1  0.5522400000000  0.5485220000000  0.4559360000000 1.0
C      1  0.4293410000000  0.4943770000000  0.4631580000000 1.0
C      1  0.5663580000000  0.4705490000000  0.5457900000000 1.0
C      1  0.5778430000000  0.5386280000000  0.4631780000000 1.0
C      1  0.4943540000000  0.5375660000000  0.5869960000000 1.0
C      1  0.4899340000000  0.5719320000000  0.4814070000000 1.0
C      1  0.4792070000000  0.4351730000000  0.5668180000000 1.0
C      1  0.4975770000000  0.4112140000000  0.4760860000000 1.0
C      1  0.5829860000000  0.5515640000000  0.4879070000000 1.0
C      1  0.4516400000000  0.5457070000000  0.5617850000000 1.0
C      1  0.4722050000000  0.5707880000000  0.5295110000000 1.0
C      1  0.5302720000000  0.4815010000000  0.5800480000000 1.0
C      1  0.4604550000000  0.4227510000000  0.4914010000000 1.0
C      1  0.5460590000000  0.5754310000000  0.4668220000000 1.0
C      1  0.5440360000000  0.5217750000000  0.5513490000000 1.0
C      1  0.4360390000000  0.5678860000000  0.4911540000000 1.0
C      1  0.5550420000000  0.4369260000000  0.5258590000000 1.0
C      1  0.4882860000000  0.4948970000000  0.5393980000000 1.0
C      1  0.5089190000000  0.4747240000000  0.5257860000000 1.0
C      1  0.4388140000000  0.4922250000000  0.5638880000000 1.0
C      1  0.5198190000000  0.5087990000000  0.4800610000000 1.0
C      1  0.4508330000000  0.5153770000000  0.4219590000000 1.0
C      1  0.5728240000000  0.4569360000000  0.5212170000000 1.0
C      1  0.5923300000000  0.5252320000000  0.4984680000000 1.0
C      1  0.5387650000000  0.5495330000000  0.5042920000000 1.0
C      1  0.4333400000000  0.5190540000000  0.4834820000000 1.0
C      1  0.5366600000000  0.4430830000000  0.4389310000000 1.0
C      1  0.5172040000000  0.5655870000000  0.5236590000000 1.0
C      1  0.5070720000000  0.4370820000000  0.4394260000000 1.0
C      1  0.4255680000000  0.4581440000000  0.4935980000000 1.0
C      1  0.4508860000000  0.4755130000000  0.5218850000000 1.0
C      1  0.5413700000000  0.4695630000000  0.4283260000000 1.0
C      1  0.5595960000000  0.4968100000000  0.5334810000000 1.0
C      1  0.5219750000000  0.5218880000000  0.5326300000000 1.0
C      1  0.4183040000000  0.4920750000000  0.5415060000000 1.0
C      1  0.4520080000000  0.4672840000000  0.5724160000000 1.0
C      1  0.4810170000000  0.5232310000000  0.4736140000000 1.0
C      1  0.4658800000000  0.5766590000000  0.4649850000000 1.0
C      1  0.4516410000000  0.4413480000000  0.5577340000000 1.0
C      1  0.4779140000000  0.5193240000000  0.5259910000000 1.0
C      1  0.4758540000000  0.5037980000000  0.4539070000000 1.0
C      1  0.5062680000000  0.4162930000000  0.5228870000000 1.0
C      1  0.5180870000000  0.4907490000000  0.4238390000000 1.0
C      1  0.5182460000000  0.4547190000000  0.5481400000000 1.0
C      1  0.5429120000000  0.4620040000000  0.5618270000000 1.0
C      1  0.4855260000000  0.4101980000000  0.5027620000000 1.0
C      1  0.5651050000000  0.4792980000000  0.4418000000000 1.0
C      1  0.5303530000000  0.5039720000000  0.4531010000000 1.0
C      1  0.4842010000000  0.4261250000000  0.4544580000000 1.0
C      1  0.4889490000000  0.5492780000000  0.5394240000000 1.0
C      1  0.4792460000000  0.4598580000000  0.5825890000000 1.0
C      1  0.4142480000000  0.5168410000000  0.5293900000000 1.0
C      1  0.4385860000000  0.4343220000000  0.5061110000000 1.0
C      1  0.4514290000000  0.4469340000000  0.5290570000000 1.0
C      1  0.4631810000000  0.4434710000000  0.4690970000000 1.0
C      1  0.5011820000000  0.4787370000000  0.5828380000000 1.0
C      1  0.4463180000000  0.5590300000000  0.5365430000000 1.0
C      1  0.5417630000000  0.5222090000000  0.4946110000000 1.0
END
