TITL C-2441162-9305-890 0.160317264213005 125000 -25476.6444029559 0 0 196 (C1) n - 1
REM
REM in /home/bkarasulu/work/CARBON/AIRSS/Generating-Clusters/ReaxFF-fromJPCA2015/Units_Real/with-SteepDescent/Higher-Symm
REM
REM
REM
REM
REM
REM ./C.cell (1df0a924f5614ab8850e4351716899ee)
REM
REM compiler GCC version 9.2.1 20190827 (Red Hat 9.2.1-1)
REM options -cpp -mtune=generic -march=x86-64 -g -O0 -fpre-include=/usr/include/finclude/math-vector-fortran.h
REM seed -414990513 1286319440 1069211309 -1382320507 1148472426 -858278393 -1877867674 -1248444645 -1535436136 1131519441 1914357100 312774448 -743914509 1002078291 1348987139 1960586267 2014735215 1192848312 1304781795 -1176239868 1433735849 92360059 -1871125267 2054813032 -1866550740 -390192759 -2110265013 539103571 -1801865421 -1870570274 1989326494 83876161 50775566
REM
CELL 1.54180   50.00000   50.00000   50.00000   90.00000   90.00000   90.00000
LATT -1
SFAC C  
C      1  0.5054860000000  0.5367120000000  0.4011650000000 1.0
C      1  0.4938670000000  0.4628720000000  0.4046100000000 1.0
C      1  0.4135120000000  0.4295050000000  0.4898030000000 1.0
C      1  0.5871800000000  0.5713380000000  0.4904950000000 1.0
C      1  0.4575700000000  0.4152170000000  0.4277290000000 1.0
C      1  0.5439130000000  0.5851700000000  0.4274180000000 1.0
C      1  0.5828730000000  0.4867030000000  0.4553160000000 1.0
C      1  0.4310210000000  0.5159270000000  0.4610390000000 1.0
C      1  0.4226330000000  0.4118290000000  0.5116740000000 1.0
C      1  0.5745300000000  0.5903520000000  0.5122550000000 1.0
C      1  0.5805660000000  0.4455480000000  0.4754100000000 1.0
C      1  0.4171130000000  0.5387270000000  0.4722120000000 1.0
C      1  0.4853870000000  0.4658770000000  0.5609380000000 1.0
C      1  0.5126270000000  0.5384970000000  0.5581120000000 1.0
C      1  0.5149850000000  0.5613260000000  0.5924900000000 1.0
C      1  0.4941810000000  0.4371820000000  0.5907540000000 1.0
C      1  0.5342920000000  0.4963430000000  0.4902760000000 1.0
C      1  0.4648040000000  0.4998680000000  0.4918710000000 1.0
C      1  0.5670830000000  0.5340130000000  0.5106420000000 1.0
C      1  0.4358360000000  0.4604190000000  0.5112790000000 1.0
C      1  0.5316760000000  0.4303080000000  0.4232040000000 1.0
C      1  0.4697510000000  0.5694080000000  0.4226260000000 1.0
C      1  0.5054620000000  0.4843750000000  0.3882320000000 1.0
C      1  0.4950640000000  0.5121230000000  0.3868990000000 1.0
C      1  0.5037420000000  0.4271210000000  0.5367070000000 1.0
C      1  0.4928280000000  0.5680230000000  0.5179720000000 1.0
C      1  0.5414180000000  0.5962010000000  0.5727300000000 1.0
C      1  0.4617500000000  0.4062170000000  0.5721550000000 1.0
C      1  0.4816530000000  0.5000790000000  0.4519230000000 1.0
C      1  0.5255230000000  0.4964770000000  0.4497390000000 1.0
C      1  0.5213090000000  0.3917900000000  0.5314010000000 1.0
C      1  0.4787160000000  0.6014520000000  0.5356800000000 1.0
C      1  0.5857370000000  0.5505680000000  0.5264480000000 1.0
C      1  0.4131510000000  0.4497790000000  0.5262270000000 1.0
C      1  0.5586660000000  0.4716820000000  0.5626740000000 1.0
C      1  0.4383420000000  0.5249890000000  0.5661520000000 1.0
C      1  0.4896440000000  0.4978250000000  0.4255530000000 1.0
C      1  0.5155280000000  0.5017560000000  0.4246220000000 1.0
C      1  0.5456270000000  0.4226450000000  0.5629120000000 1.0
C      1  0.4471540000000  0.5786460000000  0.5704030000000 1.0
C      1  0.4730500000000  0.5789430000000  0.5015060000000 1.0
C      1  0.5099100000000  0.4306490000000  0.5104330000000 1.0
C      1  0.4662850000000  0.5107050000000  0.5590070000000 1.0
C      1  0.5380970000000  0.4962600000000  0.5580130000000 1.0
C      1  0.5585250000000  0.4709290000000  0.5121030000000 1.0
C      1  0.4407510000000  0.5276170000000  0.5037820000000 1.0
C      1  0.4296370000000  0.5260700000000  0.4103660000000 1.0
C      1  0.5680750000000  0.4751940000000  0.4089740000000 1.0
C      1  0.4086340000000  0.4933680000000  0.4360550000000 1.0
C      1  0.5894900000000  0.5065810000000  0.4347500000000 1.0
C      1  0.5087770000000  0.6095710000000  0.4744400000000 1.0
C      1  0.4941250000000  0.3928000000000  0.4789250000000 1.0
C      1  0.3936540000000  0.5263380000000  0.4830170000000 1.0
C      1  0.5969420000000  0.4687670000000  0.4754720000000 1.0
C      1  0.4501820000000  0.4857350000000  0.4030580000000 1.0
C      1  0.5491880000000  0.5164700000000  0.4009680000000 1.0
C      1  0.4107790000000  0.4859300000000  0.5579720000000 1.0
C      1  0.5893820000000  0.5129310000000  0.5595600000000 1.0
C      1  0.5945140000000  0.5244490000000  0.4723240000000 1.0
C      1  0.4063060000000  0.4831310000000  0.4622500000000 1.0
C      1  0.5140200000000  0.5080850000000  0.5676750000000 1.0
C      1  0.4873830000000  0.4942940000000  0.5693430000000 1.0
C      1  0.5980960000000  0.4750700000000  0.5285890000000 1.0
C      1  0.4016350000000  0.5266740000000  0.5301930000000 1.0
C      1  0.5241850000000  0.4678510000000  0.4489960000000 1.0
C      1  0.4759220000000  0.5291740000000  0.4450560000000 1.0
C      1  0.5051110000000  0.5138740000000  0.4905560000000 1.0
C      1  0.4892850000000  0.4865960000000  0.4887590000000 1.0
C      1  0.4026050000000  0.4972910000000  0.5316020000000 1.0
C      1  0.6026050000000  0.5046220000000  0.5341770000000 1.0
C      1  0.4208470000000  0.5045570000000  0.5793120000000 1.0
C      1  0.5763840000000  0.4923980000000  0.5775570000000 1.0
C      1  0.5555190000000  0.6114880000000  0.5168530000000 1.0
C      1  0.4427880000000  0.3891150000000  0.5198230000000 1.0
C      1  0.5655680000000  0.4116100000000  0.4589850000000 1.0
C      1  0.4402270000000  0.5843330000000  0.4621190000000 1.0
C      1  0.4658670000000  0.4006300000000  0.4774540000000 1.0
C      1  0.5348000000000  0.5967420000000  0.4755780000000 1.0
C      1  0.4855710000000  0.5029450000000  0.6091240000000 1.0
C      1  0.5148510000000  0.4965990000000  0.6097360000000 1.0
C      1  0.4876280000000  0.6019990000000  0.4557180000000 1.0
C      1  0.5124000000000  0.4045680000000  0.4603550000000 1.0
C      1  0.5742050000000  0.5035650000000  0.4096690000000 1.0
C      1  0.4249310000000  0.4978320000000  0.4118060000000 1.0
C      1  0.5178960000000  0.5773020000000  0.4216090000000 1.0
C      1  0.4847530000000  0.4129860000000  0.4248090000000 1.0
C      1  0.5160790000000  0.4719740000000  0.5292970000000 1.0
C      1  0.4824780000000  0.5459130000000  0.5295700000000 1.0
C      1  0.4739360000000  0.4621970000000  0.5335880000000 1.0
C      1  0.5307600000000  0.5495250000000  0.5413430000000 1.0
C      1  0.5354410000000  0.5484270000000  0.4626410000000 1.0
C      1  0.4661370000000  0.4562210000000  0.4666490000000 1.0
C      1  0.4254230000000  0.4268320000000  0.4626330000000 1.0
C      1  0.5766020000000  0.5724310000000  0.4632720000000 1.0
C      1  0.4743670000000  0.5686580000000  0.5762310000000 1.0
C      1  0.5211750000000  0.4359430000000  0.5540590000000 1.0
C      1  0.4614410000000  0.4807390000000  0.4526530000000 1.0
C      1  0.5420800000000  0.5196630000000  0.4543410000000 1.0
C      1  0.5767520000000  0.5568150000000  0.4391340000000 1.0
C      1  0.4230580000000  0.4441250000000  0.4390270000000 1.0
C      1  0.5583440000000  0.4287020000000  0.4347410000000 1.0
C      1  0.4434650000000  0.5711760000000  0.4364460000000 1.0
C      1  0.6099220000000  0.5219720000000  0.5111740000000 1.0
C      1  0.3960380000000  0.4814070000000  0.5073250000000 1.0
C      1  0.5549290000000  0.5596850000000  0.4187480000000 1.0
C      1  0.4456500000000  0.4415170000000  0.4206380000000 1.0
C      1  0.5337840000000  0.3876700000000  0.4928820000000 1.0
C      1  0.4721590000000  0.6075910000000  0.4977070000000 1.0
C      1  0.4662910000000  0.5314070000000  0.4913540000000 1.0
C      1  0.5444310000000  0.4696550000000  0.4871950000000 1.0
C      1  0.4539440000000  0.5891190000000  0.5430430000000 1.0
C      1  0.5452790000000  0.4092130000000  0.5361300000000 1.0
C      1  0.5343030000000  0.5401600000000  0.4093200000000 1.0
C      1  0.4640170000000  0.4607750000000  0.4085780000000 1.0
C      1  0.4722020000000  0.5050940000000  0.4034720000000 1.0
C      1  0.5300460000000  0.4941220000000  0.4003820000000 1.0
C      1  0.4559370000000  0.5001760000000  0.5180830000000 1.0
C      1  0.5369370000000  0.4914660000000  0.5180930000000 1.0
C      1  0.4483670000000  0.4102810000000  0.4564610000000 1.0
C      1  0.5505820000000  0.5838010000000  0.4570720000000 1.0
C      1  0.5150870000000  0.5838670000000  0.5732070000000 1.0
C      1  0.4896880000000  0.4125530000000  0.5764070000000 1.0
C      1  0.4040840000000  0.4658970000000  0.4417720000000 1.0
C      1  0.5940270000000  0.5339890000000  0.4454320000000 1.0
C      1  0.5625880000000  0.5510500000000  0.5794140000000 1.0
C      1  0.4413170000000  0.4483030000000  0.5776860000000 1.0
C      1  0.5101290000000  0.3835240000000  0.5050890000000 1.0
C      1  0.5003230000000  0.6147090000000  0.5019710000000 1.0
C      1  0.4465990000000  0.5621190000000  0.5309050000000 1.0
C      1  0.5562090000000  0.4283670000000  0.5162880000000 1.0
C      1  0.5398430000000  0.3978020000000  0.4678720000000 1.0
C      1  0.4618730000000  0.6021940000000  0.4684280000000 1.0
C      1  0.5379700000000  0.5435260000000  0.5948640000000 1.0
C      1  0.4695440000000  0.4555060000000  0.5898260000000 1.0
C      1  0.4991400000000  0.5214240000000  0.5220320000000 1.0
C      1  0.4930360000000  0.4706030000000  0.5133070000000 1.0
C      1  0.4947030000000  0.4012220000000  0.5454050000000 1.0
C      1  0.5044080000000  0.5911470000000  0.5427200000000 1.0
C      1  0.5487790000000  0.5415440000000  0.4884270000000 1.0
C      1  0.4423640000000  0.4628550000000  0.4833280000000 1.0
C      1  0.5232250000000  0.4459130000000  0.5945950000000 1.0
C      1  0.4866390000000  0.5525900000000  0.5981220000000 1.0
C      1  0.4786390000000  0.5253680000000  0.5929500000000 1.0
C      1  0.5223540000000  0.4740410000000  0.5941940000000 1.0
C      1  0.6040610000000  0.5521780000000  0.5045890000000 1.0
C      1  0.3972380000000  0.4516020000000  0.5022600000000 1.0
C      1  0.4640870000000  0.4817860000000  0.6051310000000 1.0
C      1  0.5379900000000  0.5165870000000  0.6079690000000 1.0
C      1  0.5492310000000  0.4463990000000  0.5795060000000 1.0
C      1  0.4363950000000  0.5525210000000  0.5718330000000 1.0
C      1  0.5505070000000  0.5146450000000  0.4802100000000 1.0
C      1  0.4443050000000  0.4914270000000  0.4729950000000 1.0
C      1  0.4845890000000  0.5479060000000  0.5576580000000 1.0
C      1  0.5149060000000  0.4628740000000  0.5569930000000 1.0
C      1  0.5488110000000  0.5323210000000  0.5315910000000 1.0
C      1  0.4495180000000  0.4756690000000  0.5296580000000 1.0
C      1  0.5348700000000  0.4320340000000  0.4977240000000 1.0
C      1  0.4489090000000  0.5674380000000  0.5030140000000 1.0
C      1  0.5642620000000  0.4727130000000  0.4379920000000 1.0
C      1  0.4433100000000  0.5259400000000  0.4378300000000 1.0
C      1  0.4875070000000  0.4343650000000  0.4961180000000 1.0
C      1  0.5127470000000  0.5627030000000  0.4997040000000 1.0
C      1  0.4178460000000  0.5527280000000  0.5345090000000 1.0
C      1  0.5720520000000  0.4619010000000  0.5357790000000 1.0
C      1  0.4251120000000  0.5674830000000  0.4846320000000 1.0
C      1  0.5864160000000  0.4065140000000  0.4805820000000 1.0
C      1  0.5590460000000  0.5049250000000  0.5945850000000 1.0
C      1  0.4416100000000  0.4936230000000  0.5940810000000 1.0
C      1  0.4658730000000  0.4178750000000  0.5017560000000 1.0
C      1  0.5317660000000  0.5826960000000  0.5006850000000 1.0
C      1  0.5624840000000  0.5754970000000  0.5636640000000 1.0
C      1  0.4410050000000  0.4255470000000  0.5605400000000 1.0
C      1  0.4921900000000  0.4457860000000  0.4715740000000 1.0
C      1  0.5077100000000  0.5529420000000  0.4738740000000 1.0
C      1  0.4276150000000  0.5480710000000  0.4283700000000 1.0
C      1  0.5745990000000  0.4498370000000  0.4230920000000 1.0
C      1  0.5896670000000  0.5384690000000  0.5746360000000 1.0
C      1  0.4142940000000  0.4600560000000  0.5724670000000 1.0
C      1  0.5840810000000  0.4313160000000  0.5005410000000 1.0
C      1  0.4058270000000  0.5632430000000  0.5102220000000 1.0
C      1  0.5233510000000  0.6042800000000  0.5198240000000 1.0
C      1  0.4686730000000  0.4019210000000  0.5256500000000 1.0
C      1  0.4765420000000  0.5069610000000  0.5330370000000 1.0
C      1  0.5320990000000  0.5112650000000  0.5336700000000 1.0
C      1  0.4927110000000  0.5866560000000  0.4298510000000 1.0
C      1  0.5110480000000  0.4095890000000  0.4296660000000 1.0
C      1  0.6035770000000  0.4628200000000  0.5035510000000 1.0
C      1  0.3874390000000  0.5405950000000  0.5081790000000 1.0
C      1  0.4814310000000  0.5436370000000  0.4698760000000 1.0
C      1  0.5248110000000  0.4513780000000  0.4739940000000 1.0
C      1  0.3939410000000  0.4970510000000  0.4833180000000 1.0
C      1  0.5870750000000  0.5116910000000  0.4962870000000 1.0
C      1  0.5754250000000  0.5749400000000  0.5380290000000 1.0
C      1  0.4219040000000  0.4243800000000  0.5376220000000 1.0
C      1  0.4837260000000  0.5443230000000  0.4190340000000 1.0
C      1  0.5153010000000  0.4547990000000  0.4243520000000 1.0
END
