TITL C-2441168-9922-1263 0.0491705654663683 125000 -8112.68485046676 0 0 69 (C1) n - 1
REM
REM in /home/bkarasulu/work/CARBON/AIRSS/Generating-Clusters/ReaxFF-fromJPCA2015/Units_Real/with-SteepDescent/Higher-Symm
REM
REM
REM
REM
REM
REM ./C.cell (1df0a924f5614ab8850e4351716899ee)
REM
REM compiler GCC version 9.2.1 20190827 (Red Hat 9.2.1-1)
REM options -cpp -mtune=generic -march=x86-64 -g -O0 -fpre-include=/usr/include/finclude/math-vector-fortran.h
REM seed -133659259 1052381516 42380440 -1150686812 -2071271055 1885066959 -1186481706 893752464 -696283326 -1250168025 -1098467987 -30402828 1026271534 1170162915 -794584007 -244993215 -2116771 -2083182276 354108490 -1974464835 -1566204006 339715979 2009300327 1287217139 1503220315 1060641085 1544039035 -1153715857 -1165721825 729021361 -2136847504 13453208 -44565270
REM
CELL 1.54180   50.00000   50.00000   50.00000   90.00000   90.00000   90.00000
LATT -1
SFAC C  
C      1  0.5246530000000  0.4487650000000  0.5365790000000 1.0
C      1  0.4472180000000  0.4760420000000  0.4634170000000 1.0
C      1  0.4706560000000  0.5510800000000  0.5355170000000 1.0
C      1  0.5488920000000  0.5318250000000  0.4639280000000 1.0
C      1  0.4503080000000  0.4960290000000  0.5204550000000 1.0
C      1  0.4951720000000  0.5514330000000  0.4771470000000 1.0
C      1  0.5499300000000  0.5048290000000  0.5204100000000 1.0
C      1  0.5044760000000  0.4488500000000  0.4826400000000 1.0
C      1  0.4474840000000  0.5358440000000  0.5471260000000 1.0
C      1  0.5340750000000  0.5527560000000  0.4532640000000 1.0
C      1  0.5504750000000  0.4634920000000  0.5466560000000 1.0
C      1  0.4631210000000  0.4513470000000  0.4514780000000 1.0
C      1  0.5356170000000  0.4731630000000  0.4955060000000 1.0
C      1  0.4717010000000  0.4644490000000  0.5029180000000 1.0
C      1  0.4670440000000  0.5276380000000  0.4943170000000 1.0
C      1  0.5258930000000  0.5350150000000  0.5037320000000 1.0
C      1  0.5204680000000  0.5630800000000  0.5332100000000 1.0
C      1  0.5634030000000  0.4804440000000  0.4644010000000 1.0
C      1  0.4864830000000  0.4399730000000  0.5334650000000 1.0
C      1  0.4386210000000  0.5125760000000  0.4646860000000 1.0
C      1  0.4850820000000  0.5150650000000  0.5691970000000 1.0
C      1  0.5142450000000  0.5145260000000  0.4300580000000 1.0
C      1  0.5145860000000  0.4843040000000  0.5690410000000 1.0
C      1  0.4868490000000  0.4833980000000  0.4281350000000 1.0
C      1  0.4654770000000  0.4567210000000  0.5443370000000 1.0
C      1  0.4555380000000  0.5341880000000  0.4543500000000 1.0
C      1  0.5366960000000  0.5436560000000  0.5464750000000 1.0
C      1  0.5425890000000  0.4617130000000  0.4523840000000 1.0
C      1  0.5013280000000  0.5244320000000  0.5101790000000 1.0
C      1  0.5268210000000  0.4981990000000  0.4901530000000 1.0
C      1  0.4970200000000  0.4699610000000  0.5041120000000 1.0
C      1  0.4744820000000  0.5019460000000  0.4920820000000 1.0
C      1  0.4775660000000  0.5151160000000  0.4538350000000 1.0
C      1  0.5169930000000  0.5223730000000  0.5461900000000 1.0
C      1  0.5242900000000  0.4841100000000  0.4531940000000 1.0
C      1  0.4837810000000  0.4794460000000  0.5441000000000 1.0
C      1  0.4899320000000  0.4559360000000  0.4430440000000 1.0
C      1  0.4501880000000  0.5065190000000  0.5501020000000 1.0
C      1  0.5062140000000  0.5506370000000  0.4483720000000 1.0
C      1  0.5505040000000  0.4923450000000  0.5493600000000 1.0
C      1  0.4884710000000  0.5265870000000  0.5375030000000 1.0
C      1  0.5264270000000  0.5108630000000  0.4633760000000 1.0
C      1  0.5119850000000  0.4757670000000  0.5399440000000 1.0
C      1  0.4741920000000  0.4897380000000  0.4660260000000 1.0
C      1  0.4464390000000  0.5439340000000  0.4961140000000 1.0
C      1  0.5456590000000  0.5532700000000  0.5027020000000 1.0
C      1  0.5529530000000  0.4547170000000  0.4982500000000 1.0
C      1  0.4529660000000  0.4467180000000  0.5011240000000 1.0
C      1  0.5338660000000  0.4361390000000  0.5114260000000 1.0
C      1  0.4345180000000  0.4668700000000  0.4891270000000 1.0
C      1  0.4651140000000  0.5644050000000  0.5102490000000 1.0
C      1  0.5641390000000  0.5347770000000  0.4891150000000 1.0
C      1  0.5709620000000  0.5088350000000  0.5033570000000 1.0
C      1  0.5069240000000  0.4258550000000  0.5005130000000 1.0
C      1  0.4286540000000  0.4923630000000  0.5041160000000 1.0
C      1  0.4905970000000  0.5724060000000  0.4968710000000 1.0
C      1  0.4279560000000  0.5183200000000  0.4895070000000 1.0
C      1  0.5170880000000  0.5747560000000  0.5085550000000 1.0
C      1  0.5746960000000  0.4821800000000  0.4911900000000 1.0
C      1  0.4790070000000  0.4260760000000  0.5104940000000 1.0
C      1  0.4760970000000  0.5544980000000  0.4571330000000 1.0
C      1  0.5563680000000  0.5218240000000  0.5394250000000 1.0
C      1  0.5170560000000  0.4458370000000  0.4562340000000 1.0
C      1  0.4442340000000  0.4778590000000  0.5391780000000 1.0
C      1  0.4859510000000  0.5132330000000  0.4263350000000 1.0
C      1  0.5142380000000  0.5138790000000  0.5744540000000 1.0
C      1  0.5157880000000  0.4858970000000  0.4269730000000 1.0
C      1  0.4845700000000  0.4862470000000  0.5734440000000 1.0
C      1  0.5011730000000  0.4982850000000  0.5009270000000 1.0
END
