TITL C-2441162-9305-1484 0.036494002254796 125000 -11939.2847072277 0 0 90 (C1) n - 1
REM
REM in /home/bkarasulu/work/CARBON/AIRSS/Generating-Clusters/ReaxFF-fromJPCA2015/Units_Real/with-SteepDescent/Higher-Symm
REM
REM
REM
REM
REM
REM ./C.cell (1df0a924f5614ab8850e4351716899ee)
REM
REM compiler GCC version 9.2.1 20190827 (Red Hat 9.2.1-1)
REM options -cpp -mtune=generic -march=x86-64 -g -O0 -fpre-include=/usr/include/finclude/math-vector-fortran.h
REM seed -1790086904 -1921742982 1428151126 -1300906570 -329600428 -1503500828 80574511 -535654929 1115335529 1349632573 2056142872 628010923 491845036 -993622289 -992387739 256504381 -87833190 -1380094056 580972415 630164148 243602709 -147397238 -1044825329 188825195 948172122 -1461895252 -1690617621 1092371115 -1708750722 600305286 1525398464 -649170132 -1104520286
REM
CELL 1.54180   50.00000   50.00000   50.00000   90.00000   90.00000   90.00000
LATT -1
SFAC C  
C      1  0.4656960000000  0.4923280000000  0.4137550000000 1.0
C      1  0.5357450000000  0.5479410000000  0.5383910000000 1.0
C      1  0.4767670000000  0.4650750000000  0.5757910000000 1.0
C      1  0.4410400000000  0.5449790000000  0.4618620000000 1.0
C      1  0.5032820000000  0.5194830000000  0.4273950000000 1.0
C      1  0.5547840000000  0.4324420000000  0.5174270000000 1.0
C      1  0.5256560000000  0.4713920000000  0.4454360000000 1.0
C      1  0.4262570000000  0.5347870000000  0.4996050000000 1.0
C      1  0.5511770000000  0.4250680000000  0.4896090000000 1.0
C      1  0.5514630000000  0.5642820000000  0.4628290000000 1.0
C      1  0.5402620000000  0.5213480000000  0.4910780000000 1.0
C      1  0.5666770000000  0.5213040000000  0.4841400000000 1.0
C      1  0.4708940000000  0.4873020000000  0.4841080000000 1.0
C      1  0.4944280000000  0.5815140000000  0.4652620000000 1.0
C      1  0.5003260000000  0.5311410000000  0.4764040000000 1.0
C      1  0.4533980000000  0.4566660000000  0.4956670000000 1.0
C      1  0.4703860000000  0.5047370000000  0.4598540000000 1.0
C      1  0.4561890000000  0.4519890000000  0.4541420000000 1.0
C      1  0.4363290000000  0.5194850000000  0.5444990000000 1.0
C      1  0.4260810000000  0.4932040000000  0.4733240000000 1.0
C      1  0.4543800000000  0.4352680000000  0.4769540000000 1.0
C      1  0.5230340000000  0.5412810000000  0.4917250000000 1.0
C      1  0.5039340000000  0.5638840000000  0.4446590000000 1.0
C      1  0.5316980000000  0.5860600000000  0.5095450000000 1.0
C      1  0.5714350000000  0.5430920000000  0.4651040000000 1.0
C      1  0.4843690000000  0.5738380000000  0.4935720000000 1.0
C      1  0.5283360000000  0.4483710000000  0.4638670000000 1.0
C      1  0.5270890000000  0.4727060000000  0.5705360000000 1.0
C      1  0.5657620000000  0.5228980000000  0.5298230000000 1.0
C      1  0.4859080000000  0.5426100000000  0.4331260000000 1.0
C      1  0.5156330000000  0.5439140000000  0.5190880000000 1.0
C      1  0.4644290000000  0.5653840000000  0.5353410000000 1.0
C      1  0.5555400000000  0.5357990000000  0.5537550000000 1.0
C      1  0.4584800000000  0.5018770000000  0.5103870000000 1.0
C      1  0.5324990000000  0.5521790000000  0.4446330000000 1.0
C      1  0.4383090000000  0.5606860000000  0.4876860000000 1.0
C      1  0.4956450000000  0.4811400000000  0.5228910000000 1.0
C      1  0.5095010000000  0.4628840000000  0.5047710000000 1.0
C      1  0.5658620000000  0.4868560000000  0.5620960000000 1.0
C      1  0.4775570000000  0.4165450000000  0.5162960000000 1.0
C      1  0.5364490000000  0.5717260000000  0.4874170000000 1.0
C      1  0.5440770000000  0.4523880000000  0.5608300000000 1.0
C      1  0.4781620000000  0.4204820000000  0.4870100000000 1.0
C      1  0.4245780000000  0.5227660000000  0.4717860000000 1.0
C      1  0.4859540000000  0.4555640000000  0.4541150000000 1.0
C      1  0.5239970000000  0.4375080000000  0.5194510000000 1.0
C      1  0.5257490000000  0.5002000000000  0.5013960000000 1.0
C      1  0.5200260000000  0.5558240000000  0.5601760000000 1.0
C      1  0.4234940000000  0.5095200000000  0.5191520000000 1.0
C      1  0.5123260000000  0.4339230000000  0.5482650000000 1.0
C      1  0.5682310000000  0.4726930000000  0.4942800000000 1.0
C      1  0.4463330000000  0.4861400000000  0.4273710000000 1.0
C      1  0.5667790000000  0.4974090000000  0.5179330000000 1.0
C      1  0.4370710000000  0.4751850000000  0.4515740000000 1.0
C      1  0.5002200000000  0.4696020000000  0.4317030000000 1.0
C      1  0.4748690000000  0.4460890000000  0.5103540000000 1.0
C      1  0.5079330000000  0.4276700000000  0.4718480000000 1.0
C      1  0.4982810000000  0.5114930000000  0.4564060000000 1.0
C      1  0.5001600000000  0.5124220000000  0.5606460000000 1.0
C      1  0.5069640000000  0.5726270000000  0.5192070000000 1.0
C      1  0.5679840000000  0.4619220000000  0.5485350000000 1.0
C      1  0.5725480000000  0.4555320000000  0.5171880000000 1.0
C      1  0.4930030000000  0.5670310000000  0.5494960000000 1.0
C      1  0.4934770000000  0.4933470000000  0.4154690000000 1.0
C      1  0.4787100000000  0.5424900000000  0.4891300000000 1.0
C      1  0.5691850000000  0.5229880000000  0.4435570000000 1.0
C      1  0.4979380000000  0.5101810000000  0.5131040000000 1.0
C      1  0.5382890000000  0.4971520000000  0.4518780000000 1.0
C      1  0.4638510000000  0.5113090000000  0.5367170000000 1.0
C      1  0.4471440000000  0.5456050000000  0.5456510000000 1.0
C      1  0.4208860000000  0.4858470000000  0.5014490000000 1.0
C      1  0.5511300000000  0.5096690000000  0.5676360000000 1.0
C      1  0.5227250000000  0.4183860000000  0.4944520000000 1.0
C      1  0.5520610000000  0.4528650000000  0.4802310000000 1.0
C      1  0.4573710000000  0.5731550000000  0.5069960000000 1.0
C      1  0.5646310000000  0.4996590000000  0.4638970000000 1.0
C      1  0.4450050000000  0.4611440000000  0.5410730000000 1.0
C      1  0.4938390000000  0.4687640000000  0.4806250000000 1.0
C      1  0.4561340000000  0.4778600000000  0.5628420000000 1.0
C      1  0.4578830000000  0.5276980000000  0.5006940000000 1.0
C      1  0.5401510000000  0.5250880000000  0.4358600000000 1.0
C      1  0.4964370000000  0.5404080000000  0.5643830000000 1.0
C      1  0.4793260000000  0.4961700000000  0.5507530000000 1.0
C      1  0.5029530000000  0.4559280000000  0.5685010000000 1.0
C      1  0.5392530000000  0.4920860000000  0.5253780000000 1.0
C      1  0.4850830000000  0.4264150000000  0.5424550000000 1.0
C      1  0.5263450000000  0.4994550000000  0.5552170000000 1.0
C      1  0.4327610000000  0.4630490000000  0.5147450000000 1.0
C      1  0.4633830000000  0.5314870000000  0.4485030000000 1.0
C      1  0.4726210000000  0.4523360000000  0.5362290000000 1.0
END
