TITL C-2441157-2117-39 0.137847290926208 125000 -25421.589387692 0 0 197 (C1) n - 1
REM
REM in /home/bkarasulu/work/CARBON/AIRSS/Generating-Clusters/ReaxFF-fromJPCA2015/Units_Real/with-SteepDescent/Higher-Symm
REM
REM
REM
REM
REM
REM ./C.cell (1df0a924f5614ab8850e4351716899ee)
REM
REM compiler GCC version 9.2.1 20190827 (Red Hat 9.2.1-1)
REM options -cpp -mtune=generic -march=x86-64 -g -O0 -fpre-include=/usr/include/finclude/math-vector-fortran.h
REM seed 1759800952 441364111 -780274079 571460974 2072542231 -1090177162 1298917672 883451324 -472013615 -1288528029 -1028423730 -313596313 2046808358 -1726531210 -1389163813 628777589 1871760901 705400932 1351581832 1251369634 -423692815 1536892489 -394239055 489099624 -1280828357 -192022050 -1633748992 215806792 -1713511317 1251172992 80301393 787542085 -80345214
REM
CELL 1.54180   50.00000   50.00000   50.00000   90.00000   90.00000   90.00000
LATT -1
SFAC C  
C      1  0.5479280000000  0.4143000000000  0.4471080000000 1.0
C      1  0.4523310000000  0.5876810000000  0.5530700000000 1.0
C      1  0.5176920000000  0.5617820000000  0.4093920000000 1.0
C      1  0.4886520000000  0.4445620000000  0.5913740000000 1.0
C      1  0.5899260000000  0.5474670000000  0.4743080000000 1.0
C      1  0.4224520000000  0.4547650000000  0.5237620000000 1.0
C      1  0.4967960000000  0.6061870000000  0.5258830000000 1.0
C      1  0.5047680000000  0.3940830000000  0.4735620000000 1.0
C      1  0.4432470000000  0.4979000000000  0.5330970000000 1.0
C      1  0.5511320000000  0.5076870000000  0.4729220000000 1.0
C      1  0.4424450000000  0.4702170000000  0.5864060000000 1.0
C      1  0.5564380000000  0.5260380000000  0.4101380000000 1.0
C      1  0.6046970000000  0.5443630000000  0.5269980000000 1.0
C      1  0.3996440000000  0.4609460000000  0.4735980000000 1.0
C      1  0.4098570000000  0.5755340000000  0.5221660000000 1.0
C      1  0.5898790000000  0.4242430000000  0.4758540000000 1.0
C      1  0.6037980000000  0.4895440000000  0.5167630000000 1.0
C      1  0.4003510000000  0.5110670000000  0.4833550000000 1.0
C      1  0.4081070000000  0.5740260000000  0.4669370000000 1.0
C      1  0.5848580000000  0.4235300000000  0.5288520000000 1.0
C      1  0.5257220000000  0.4677140000000  0.4543660000000 1.0
C      1  0.4651580000000  0.5353320000000  0.5405480000000 1.0
C      1  0.5682580000000  0.5441850000000  0.5860820000000 1.0
C      1  0.4264200000000  0.4486520000000  0.4168270000000 1.0
C      1  0.4579980000000  0.5164350000000  0.5863980000000 1.0
C      1  0.5532960000000  0.4843970000000  0.4112200000000 1.0
C      1  0.4484210000000  0.4605960000000  0.4851100000000 1.0
C      1  0.5452610000000  0.5454880000000  0.5117040000000 1.0
C      1  0.5803980000000  0.5740940000000  0.4806650000000 1.0
C      1  0.4194910000000  0.4271860000000  0.5179400000000 1.0
C      1  0.4906640000000  0.5548380000000  0.4038830000000 1.0
C      1  0.5163980000000  0.4516360000000  0.5846600000000 1.0
C      1  0.4884950000000  0.5320050000000  0.4497160000000 1.0
C      1  0.5030090000000  0.4580030000000  0.5453020000000 1.0
C      1  0.4835870000000  0.5971350000000  0.4619650000000 1.0
C      1  0.5159870000000  0.4011750000000  0.5387730000000 1.0
C      1  0.4428660000000  0.5580830000000  0.4232390000000 1.0
C      1  0.5695200000000  0.4517850000000  0.5755420000000 1.0
C      1  0.5730300000000  0.5816240000000  0.5076430000000 1.0
C      1  0.4281510000000  0.4194450000000  0.4908410000000 1.0
C      1  0.4213250000000  0.4855290000000  0.4109320000000 1.0
C      1  0.5804700000000  0.5150840000000  0.5822830000000 1.0
C      1  0.5225630000000  0.5049840000000  0.5895680000000 1.0
C      1  0.4703580000000  0.4892970000000  0.4123820000000 1.0
C      1  0.5103540000000  0.4414000000000  0.4208450000000 1.0
C      1  0.4915580000000  0.5605960000000  0.5672650000000 1.0
C      1  0.5654130000000  0.5800920000000  0.4557680000000 1.0
C      1  0.4312310000000  0.4220260000000  0.5433730000000 1.0
C      1  0.5250500000000  0.4764550000000  0.5989390000000 1.0
C      1  0.4658040000000  0.5165850000000  0.4063490000000 1.0
C      1  0.5137940000000  0.5142690000000  0.3889200000000 1.0
C      1  0.4814520000000  0.4881290000000  0.6170930000000 1.0
C      1  0.4643070000000  0.5482330000000  0.5862610000000 1.0
C      1  0.5503550000000  0.4545630000000  0.4091000000000 1.0
C      1  0.5402920000000  0.5921230000000  0.5385140000000 1.0
C      1  0.4624580000000  0.4098390000000  0.4593600000000 1.0
C      1  0.5442040000000  0.4782550000000  0.4765960000000 1.0
C      1  0.4614480000000  0.5164910000000  0.5190360000000 1.0
C      1  0.4182410000000  0.4352000000000  0.4697110000000 1.0
C      1  0.5855230000000  0.5686440000000  0.5294300000000 1.0
C      1  0.4870770000000  0.5856990000000  0.4355040000000 1.0
C      1  0.5116780000000  0.4140770000000  0.5642070000000 1.0
C      1  0.4478310000000  0.5694100000000  0.4613530000000 1.0
C      1  0.5479210000000  0.4314000000000  0.5445770000000 1.0
C      1  0.5891060000000  0.4521610000000  0.4885230000000 1.0
C      1  0.4137560000000  0.5439310000000  0.5137730000000 1.0
C      1  0.4969180000000  0.5105100000000  0.5728270000000 1.0
C      1  0.4980330000000  0.4910640000000  0.4180000000000 1.0
C      1  0.5174640000000  0.5343120000000  0.4451470000000 1.0
C      1  0.4779490000000  0.4636890000000  0.5576660000000 1.0
C      1  0.3932480000000  0.4696160000000  0.5008380000000 1.0
C      1  0.5999980000000  0.5313620000000  0.4981980000000 1.0
C      1  0.4268520000000  0.5016110000000  0.4930980000000 1.0
C      1  0.5752260000000  0.4949710000000  0.5105110000000 1.0
C      1  0.4709840000000  0.5129540000000  0.5650230000000 1.0
C      1  0.5397260000000  0.4868360000000  0.4364650000000 1.0
C      1  0.5316050000000  0.5354400000000  0.4019070000000 1.0
C      1  0.4689350000000  0.4658070000000  0.5986690000000 1.0
C      1  0.5745830000000  0.5053420000000  0.4147750000000 1.0
C      1  0.4342190000000  0.4981890000000  0.5846220000000 1.0
C      1  0.5330840000000  0.4318300000000  0.5700260000000 1.0
C      1  0.4700710000000  0.5680520000000  0.4200490000000 1.0
C      1  0.4582390000000  0.4240190000000  0.5336800000000 1.0
C      1  0.5397850000000  0.5739700000000  0.4655750000000 1.0
C      1  0.4625220000000  0.4404910000000  0.5595450000000 1.0
C      1  0.5371870000000  0.5540820000000  0.4459430000000 1.0
C      1  0.4843110000000  0.4979890000000  0.5209690000000 1.0
C      1  0.5041670000000  0.5064580000000  0.4808450000000 1.0
C      1  0.4342850000000  0.4673320000000  0.3993660000000 1.0
C      1  0.5542610000000  0.5201150000000  0.5924280000000 1.0
C      1  0.5913280000000  0.5056920000000  0.4398840000000 1.0
C      1  0.4112740000000  0.5054880000000  0.5677710000000 1.0
C      1  0.5636250000000  0.4791620000000  0.5711140000000 1.0
C      1  0.4299080000000  0.5059660000000  0.4283990000000 1.0
C      1  0.4199770000000  0.5561370000000  0.4875010000000 1.0
C      1  0.5682310000000  0.4450510000000  0.5117280000000 1.0
C      1  0.5133350000000  0.5470650000000  0.6014830000000 1.0
C      1  0.4703640000000  0.4394590000000  0.4070150000000 1.0
C      1  0.4668490000000  0.4832150000000  0.4877040000000 1.0
C      1  0.5313890000000  0.5209200000000  0.5115020000000 1.0
C      1  0.4849300000000  0.5438370000000  0.6080810000000 1.0
C      1  0.5234350000000  0.4577480000000  0.3988250000000 1.0
C      1  0.4263010000000  0.5750600000000  0.4426190000000 1.0
C      1  0.5751660000000  0.4271240000000  0.5562850000000 1.0
C      1  0.5380740000000  0.4339680000000  0.4873730000000 1.0
C      1  0.4744260000000  0.5642700000000  0.5134980000000 1.0
C      1  0.4681910000000  0.6010100000000  0.5313550000000 1.0
C      1  0.5337900000000  0.3977490000000  0.4698020000000 1.0
C      1  0.5136400000000  0.5981450000000  0.5480730000000 1.0
C      1  0.4914990000000  0.4105440000000  0.4521370000000 1.0
C      1  0.4445310000000  0.5649110000000  0.5711380000000 1.0
C      1  0.5602950000000  0.4375820000000  0.4309500000000 1.0
C      1  0.6073900000000  0.5164670000000  0.5362200000000 1.0
C      1  0.3972760000000  0.4876380000000  0.4635410000000 1.0
C      1  0.4029100000000  0.5279730000000  0.5523620000000 1.0
C      1  0.6020430000000  0.4754160000000  0.4487100000000 1.0
C      1  0.4393390000000  0.4247460000000  0.4494660000000 1.0
C      1  0.5627000000000  0.5772680000000  0.5483930000000 1.0
C      1  0.4369340000000  0.5737350000000  0.5324340000000 1.0
C      1  0.5606560000000  0.4277990000000  0.4693150000000 1.0
C      1  0.4939520000000  0.5053150000000  0.4582400000000 1.0
C      1  0.5185060000000  0.4810010000000  0.5492850000000 1.0
C      1  0.4455740000000  0.5289690000000  0.4214720000000 1.0
C      1  0.5447060000000  0.4935540000000  0.5528440000000 1.0
C      1  0.5851550000000  0.5357430000000  0.4495230000000 1.0
C      1  0.4166350000000  0.4625880000000  0.5482920000000 1.0
C      1  0.5520240000000  0.5639220000000  0.5723910000000 1.0
C      1  0.4447080000000  0.4292560000000  0.4207390000000 1.0
C      1  0.5188950000000  0.5210900000000  0.6133050000000 1.0
C      1  0.4622720000000  0.4667610000000  0.3978520000000 1.0
C      1  0.4886320000000  0.5279120000000  0.3938460000000 1.0
C      1  0.5046170000000  0.4720070000000  0.6182050000000 1.0
C      1  0.4630480000000  0.5885020000000  0.5056140000000 1.0
C      1  0.5409760000000  0.4069750000000  0.4969990000000 1.0
C      1  0.4911540000000  0.3930360000000  0.5248450000000 1.0
C      1  0.5087890000000  0.6046660000000  0.4737540000000 1.0
C      1  0.4900800000000  0.5169570000000  0.6188980000000 1.0
C      1  0.5124470000000  0.4849650000000  0.3936220000000 1.0
C      1  0.5951420000000  0.4770340000000  0.5421730000000 1.0
C      1  0.4096720000000  0.5271230000000  0.4603930000000 1.0
C      1  0.4939520000000  0.4489420000000  0.5181070000000 1.0
C      1  0.5074420000000  0.5519300000000  0.4889940000000 1.0
C      1  0.4900670000000  0.5531690000000  0.5367950000000 1.0
C      1  0.5152120000000  0.4407140000000  0.4690750000000 1.0
C      1  0.5374880000000  0.4705690000000  0.5053480000000 1.0
C      1  0.4660580000000  0.5320260000000  0.4720890000000 1.0
C      1  0.4129880000000  0.4898000000000  0.5429520000000 1.0
C      1  0.5787560000000  0.5011670000000  0.4674410000000 1.0
C      1  0.4322900000000  0.4480610000000  0.5679880000000 1.0
C      1  0.5657450000000  0.5545500000000  0.4386800000000 1.0
C      1  0.3952690000000  0.5215140000000  0.5233200000000 1.0
C      1  0.6089980000000  0.4767750000000  0.4774230000000 1.0
C      1  0.5197070000000  0.5257150000000  0.4870540000000 1.0
C      1  0.4704000000000  0.4705490000000  0.5192130000000 1.0
C      1  0.5601240000000  0.5353610000000  0.5344120000000 1.0
C      1  0.4445880000000  0.4688760000000  0.4560840000000 1.0
C      1  0.4247830000000  0.4722600000000  0.5026660000000 1.0
C      1  0.5757130000000  0.5209210000000  0.5128130000000 1.0
C      1  0.4757020000000  0.4050650000000  0.5462730000000 1.0
C      1  0.5276090000000  0.5950320000000  0.4528330000000 1.0
C      1  0.4687650000000  0.4369320000000  0.4958790000000 1.0
C      1  0.5308580000000  0.5667160000000  0.4989100000000 1.0
C      1  0.5147050000000  0.5290710000000  0.5344560000000 1.0
C      1  0.4873920000000  0.4456590000000  0.4749230000000 1.0
C      1  0.4052880000000  0.5055000000000  0.4421900000000 1.0
C      1  0.5951780000000  0.5032580000000  0.5587870000000 1.0
C      1  0.5004880000000  0.4826210000000  0.4453270000000 1.0
C      1  0.5024840000000  0.5041550000000  0.5437690000000 1.0
C      1  0.4838350000000  0.4492480000000  0.4304370000000 1.0
C      1  0.5250900000000  0.5508330000000  0.5742030000000 1.0
C      1  0.5698160000000  0.4671610000000  0.4699840000000 1.0
C      1  0.4370460000000  0.5455620000000  0.5365430000000 1.0
C      1  0.5148510000000  0.5840530000000  0.4282640000000 1.0
C      1  0.4839960000000  0.4181760000000  0.5739300000000 1.0
C      1  0.4990470000000  0.5883880000000  0.5732580000000 1.0
C      1  0.4999440000000  0.4130890000000  0.4227880000000 1.0
C      1  0.4808020000000  0.5434750000000  0.4957520000000 1.0
C      1  0.5103400000000  0.4662740000000  0.5020650000000 1.0
C      1  0.4363150000000  0.5427690000000  0.4669880000000 1.0
C      1  0.5712680000000  0.4625670000000  0.5343930000000 1.0
C      1  0.5481330000000  0.4934560000000  0.5198160000000 1.0
C      1  0.4515890000000  0.5064690000000  0.4800690000000 1.0
C      1  0.4608500000000  0.5899510000000  0.4766260000000 1.0
C      1  0.5385090000000  0.4110920000000  0.5252690000000 1.0
C      1  0.5802070000000  0.4561490000000  0.4446550000000 1.0
C      1  0.4233970000000  0.5452280000000  0.5640000000000 1.0
C      1  0.3906980000000  0.4930890000000  0.5190100000000 1.0
C      1  0.6049570000000  0.5049720000000  0.4814080000000 1.0
C      1  0.5142150000000  0.6061770000000  0.5019730000000 1.0
C      1  0.4858570000000  0.3939820000000  0.4961070000000 1.0
C      1  0.5374070000000  0.5283860000000  0.5530760000000 1.0
C      1  0.4750170000000  0.4634890000000  0.4529660000000 1.0
C      1  0.5405470000000  0.5943860000000  0.5101560000000 1.0
C      1  0.4588840000000  0.4061270000000  0.4883000000000 1.0
C      1  0.5379400000000  0.5128380000000  0.4480630000000 1.0
C      1  0.4603930000000  0.4860090000000  0.5532610000000 1.0
C      1  0.4945300000000  0.4886860000000  0.4959330000000 1.0
END
