TITL C-2441163-1170-567 0.0630533039130253 125000 -18249.6921935831 0 0 124 (C1) n - 1
REM
REM in /home/bkarasulu/work/CARBON/AIRSS/Generating-Clusters/ReaxFF-fromJPCA2015/Units_Real/with-SteepDescent/Higher-Symm
REM
REM
REM
REM
REM
REM ./C.cell (1df0a924f5614ab8850e4351716899ee)
REM
REM compiler GCC version 9.2.1 20190827 (Red Hat 9.2.1-1)
REM options -cpp -mtune=generic -march=x86-64 -g -O0 -fpre-include=/usr/include/finclude/math-vector-fortran.h
REM seed -1641776784 -620348454 -1465292615 248160358 1186484255 2145733610 1628374123 1211897981 8906589 -147695592 540389494 1371897780 -532769949 -1641005982 1043275850 1841774514 1996643787 -1800909811 -577648313 1525392270 517868625 1831583874 -1481502050 122131648 -977537580 1586367295 -459759363 -1949995207 849835615 512855966 -436822274 -1540948848 -1791849988
REM
CELL 1.54180   50.00000   50.00000   50.00000   90.00000   90.00000   90.00000
LATT -1
SFAC C  
C      1  0.4911470000000  0.4231730000000  0.5342030000000 1.0
C      1  0.5078190000000  0.4583280000000  0.5729460000000 1.0
C      1  0.4907020000000  0.5086870000000  0.5841740000000 1.0
C      1  0.5083040000000  0.5557280000000  0.5643150000000 1.0
C      1  0.4917830000000  0.5822740000000  0.5202250000000 1.0
C      1  0.5090000000000  0.5771370000000  0.4686710000000 1.0
C      1  0.4944520000000  0.5414000000000  0.4280770000000 1.0
C      1  0.5059600000000  0.4888050000000  0.4158690000000 1.0
C      1  0.4910260000000  0.4414860000000  0.4371740000000 1.0
C      1  0.5084090000000  0.4173300000000  0.4825330000000 1.0
C      1  0.5459560000000  0.4948000000000  0.5763090000000 1.0
C      1  0.4531770000000  0.5396080000000  0.5645660000000 1.0
C      1  0.5464000000000  0.5680890000000  0.5295850000000 1.0
C      1  0.4561900000000  0.5666180000000  0.4832350000000 1.0
C      1  0.5432500000000  0.5397860000000  0.4534180000000 1.0
C      1  0.4562910000000  0.5070630000000  0.4240900000000 1.0
C      1  0.5423420000000  0.4646470000000  0.4447590000000 1.0
C      1  0.4561260000000  0.4350110000000  0.4761350000000 1.0
C      1  0.5452430000000  0.4304740000000  0.5169460000000 1.0
C      1  0.4566980000000  0.4614540000000  0.5496180000000 1.0
C      1  0.5379960000000  0.5833780000000  0.5061720000000 1.0
C      1  0.4641090000000  0.5721770000000  0.4531820000000 1.0
C      1  0.5341430000000  0.5336670000000  0.4229530000000 1.0
C      1  0.4638180000000  0.4788100000000  0.4199180000000 1.0
C      1  0.5367700000000  0.4348790000000  0.4488580000000 1.0
C      1  0.4624310000000  0.4140780000000  0.4971110000000 1.0
C      1  0.5365040000000  0.4334580000000  0.5443310000000 1.0
C      1  0.4620280000000  0.4717380000000  0.5781740000000 1.0
C      1  0.5365710000000  0.5217660000000  0.5803450000000 1.0
C      1  0.4626000000000  0.5639820000000  0.5526440000000 1.0
C      1  0.5704600000000  0.4406760000000  0.5094310000000 1.0
C      1  0.4279500000000  0.4586610000000  0.5428270000000 1.0
C      1  0.5714220000000  0.4922350000000  0.5636330000000 1.0
C      1  0.4278700000000  0.5302180000000  0.5555200000000 1.0
C      1  0.5712770000000  0.5546570000000  0.5280250000000 1.0
C      1  0.4276130000000  0.5635510000000  0.4902130000000 1.0
C      1  0.5730190000000  0.5444380000000  0.4546300000000 1.0
C      1  0.4322690000000  0.5102620000000  0.4394780000000 1.0
C      1  0.5710580000000  0.4725850000000  0.4445040000000 1.0
C      1  0.4280020000000  0.4428170000000  0.4718170000000 1.0
C      1  0.5840000000000  0.4588140000000  0.5257920000000 1.0
C      1  0.4157120000000  0.4840090000000  0.5462860000000 1.0
C      1  0.5870130000000  0.5145460000000  0.5561520000000 1.0
C      1  0.4145430000000  0.5423170000000  0.5326950000000 1.0
C      1  0.5838190000000  0.5496350000000  0.5027740000000 1.0
C      1  0.4150620000000  0.5448430000000  0.4725030000000 1.0
C      1  0.5867230000000  0.5195380000000  0.4493600000000 1.0
C      1  0.4189600000000  0.4881410000000  0.4516890000000 1.0
C      1  0.5856650000000  0.4615610000000  0.4656460000000 1.0
C      1  0.4122540000000  0.4446040000000  0.4956620000000 1.0
C      1  0.5983240000000  0.5082690000000  0.4732770000000 1.0
C      1  0.4048370000000  0.4951930000000  0.4765480000000 1.0
C      1  0.5984440000000  0.4806680000000  0.4808670000000 1.0
C      1  0.3998080000000  0.4706980000000  0.4946590000000 1.0
C      1  0.5968190000000  0.4785510000000  0.5094130000000 1.0
C      1  0.4129820000000  0.4973810000000  0.5216060000000 1.0
C      1  0.6023640000000  0.5091640000000  0.5347230000000 1.0
C      1  0.4028660000000  0.5234710000000  0.5153580000000 1.0
C      1  0.5944300000000  0.5235900000000  0.4978730000000 1.0
C      1  0.4021960000000  0.5241140000000  0.4869950000000 1.0
C      1  0.5338890000000  0.4890210000000  0.5165470000000 1.0
C      1  0.4677140000000  0.4867880000000  0.5359270000000 1.0
C      1  0.5334630000000  0.5159780000000  0.5265010000000 1.0
C      1  0.4659580000000  0.5260800000000  0.5090350000000 1.0
C      1  0.5355700000000  0.5323600000000  0.5021110000000 1.0
C      1  0.4655920000000  0.5368670000000  0.4824770000000 1.0
C      1  0.5423880000000  0.5189890000000  0.4781430000000 1.0
C      1  0.4590040000000  0.4839330000000  0.4885750000000 1.0
C      1  0.5314970000000  0.4700210000000  0.4717880000000 1.0
C      1  0.4675950000000  0.4574910000000  0.4979690000000 1.0
C      1  0.5747050000000  0.5399320000000  0.5535380000000 1.0
C      1  0.4253430000000  0.5638020000000  0.5184460000000 1.0
C      1  0.5763020000000  0.5616030000000  0.4778640000000 1.0
C      1  0.4281780000000  0.5380310000000  0.4472870000000 1.0
C      1  0.5728930000000  0.4989850000000  0.4339320000000 1.0
C      1  0.4268280000000  0.4614790000000  0.4501090000000 1.0
C      1  0.5748260000000  0.4395650000000  0.4807590000000 1.0
C      1  0.4243410000000  0.4393060000000  0.5219900000000 1.0
C      1  0.5738570000000  0.4652840000000  0.5518730000000 1.0
C      1  0.4247030000000  0.5029310000000  0.5648810000000 1.0
C      1  0.4910630000000  0.5654360000000  0.4482080000000 1.0
C      1  0.5000150000000  0.5126290000000  0.4320660000000 1.0
C      1  0.4892470000000  0.4655680000000  0.4189880000000 1.0
C      1  0.5100690000000  0.4272730000000  0.4541030000000 1.0
C      1  0.4897760000000  0.4139230000000  0.5043490000000 1.0
C      1  0.5093340000000  0.4357980000000  0.5531770000000 1.0
C      1  0.4892110000000  0.4784170000000  0.5827530000000 1.0
C      1  0.5092950000000  0.5299910000000  0.5795880000000 1.0
C      1  0.4899160000000  0.5704890000000  0.5482390000000 1.0
C      1  0.5105430000000  0.5851230000000  0.4982900000000 1.0
C      1  0.4488300000000  0.4577770000000  0.4335460000000 1.0
C      1  0.5520920000000  0.4253780000000  0.4706830000000 1.0
C      1  0.4471990000000  0.4207850000000  0.5212340000000 1.0
C      1  0.5513730000000  0.4508940000000  0.5609110000000 1.0
C      1  0.4468330000000  0.4957880000000  0.5814070000000 1.0
C      1  0.5508720000000  0.5432860000000  0.5688540000000 1.0
C      1  0.4481370000000  0.5745550000000  0.5301510000000 1.0
C      1  0.5534520000000  0.5795110000000  0.4812130000000 1.0
C      1  0.4490250000000  0.5546950000000  0.4357940000000 1.0
C      1  0.5483760000000  0.5073220000000  0.4198420000000 1.0
C      1  0.4666320000000  0.5347040000000  0.4227900000000 1.0
C      1  0.5326280000000  0.4841560000000  0.4234140000000 1.0
C      1  0.4651410000000  0.4390780000000  0.4472520000000 1.0
C      1  0.5350000000000  0.4197220000000  0.4924700000000 1.0
C      1  0.4652540000000  0.4315600000000  0.5406790000000 1.0
C      1  0.5345200000000  0.4681370000000  0.5754860000000 1.0
C      1  0.4643180000000  0.5183640000000  0.5805870000000 1.0
C      1  0.5347000000000  0.5614770000000  0.5554760000000 1.0
C      1  0.4660060000000  0.5805680000000  0.5092550000000 1.0
C      1  0.5352800000000  0.5690690000000  0.4616450000000 1.0
C      1  0.4952760000000  0.4585930000000  0.5066070000000 1.0
C      1  0.5103610000000  0.4749550000000  0.5258390000000 1.0
C      1  0.4948000000000  0.4936260000000  0.5420320000000 1.0
C      1  0.5066730000000  0.5197640000000  0.5371480000000 1.0
C      1  0.4915060000000  0.5353580000000  0.5186540000000 1.0
C      1  0.5080390000000  0.5392780000000  0.4961380000000 1.0
C      1  0.4921850000000  0.5311260000000  0.4736610000000 1.0
C      1  0.4966240000000  0.5064200000000  0.4589220000000 1.0
C      1  0.4838970000000  0.4829300000000  0.4697330000000 1.0
C      1  0.5042620000000  0.4640800000000  0.4790420000000 1.0
C      1  0.5889030000000  0.5037310000000  0.5160360000000 1.0
C      1  0.4221140000000  0.4862090000000  0.4983450000000 1.0
C      1  0.4616580000000  0.4992100000000  0.5123060000000 1.0
C      1  0.5399220000000  0.4921930000000  0.4874800000000 1.0
END
