TITL C-2441159-1093-326 0.0862545666357495 125000 -14940.3172059854 0 0 118 (C1) n - 1
REM
REM in /home/bkarasulu/work/CARBON/AIRSS/Generating-Clusters/ReaxFF-fromJPCA2015/Units_Real/with-SteepDescent/Higher-Symm
REM
REM
REM
REM
REM
REM ./C.cell (1df0a924f5614ab8850e4351716899ee)
REM
REM compiler GCC version 9.2.1 20190827 (Red Hat 9.2.1-1)
REM options -cpp -mtune=generic -march=x86-64 -g -O0 -fpre-include=/usr/include/finclude/math-vector-fortran.h
REM seed -423976774 -1080076135 -989254306 144628237 646341772 -2070786334 1782194341 -1831222819 -2086406717 1102071157 -1487882780 849510247 1353019669 589069213 1256182121 310508423 -1226131718 509129946 1498276185 -1375837094 1305072625 -939343871 -537041848 -2105979803 1309799414 896233169 -241996983 -1843327040 58920501 -1105405676 -442753571 1561966102 -1873329264
REM
CELL 1.54180   50.00000   50.00000   50.00000   90.00000   90.00000   90.00000
LATT -1
SFAC C  
C      1  0.5321960000000  0.5592120000000  0.5566110000000 1.0
C      1  0.5319490000000  0.4414680000000  0.4435060000000 1.0
C      1  0.4810650000000  0.5498770000000  0.4829680000000 1.0
C      1  0.4795410000000  0.4488180000000  0.5167960000000 1.0
C      1  0.4734900000000  0.4991300000000  0.4632840000000 1.0
C      1  0.4752000000000  0.5032520000000  0.5353180000000 1.0
C      1  0.5480840000000  0.4982450000000  0.4205590000000 1.0
C      1  0.5444960000000  0.4986820000000  0.5788090000000 1.0
C      1  0.4195010000000  0.4888130000000  0.5293060000000 1.0
C      1  0.4194460000000  0.5153560000000  0.4690180000000 1.0
C      1  0.5171340000000  0.5448640000000  0.4151670000000 1.0
C      1  0.5101610000000  0.4547470000000  0.5869320000000 1.0
C      1  0.4928610000000  0.5683900000000  0.4405200000000 1.0
C      1  0.4973380000000  0.4364090000000  0.5684190000000 1.0
C      1  0.5256980000000  0.5487450000000  0.5030850000000 1.0
C      1  0.5287950000000  0.4498050000000  0.4896090000000 1.0
C      1  0.4812220000000  0.5927240000000  0.4952210000000 1.0
C      1  0.4888710000000  0.4051310000000  0.5053200000000 1.0
C      1  0.5416200000000  0.4241970000000  0.5037230000000 1.0
C      1  0.5416270000000  0.5715920000000  0.4977840000000 1.0
C      1  0.5667520000000  0.4378580000000  0.5053860000000 1.0
C      1  0.5683680000000  0.5613140000000  0.4933960000000 1.0
C      1  0.5273540000000  0.4753990000000  0.5753550000000 1.0
C      1  0.5272640000000  0.5180560000000  0.4233370000000 1.0
C      1  0.5757210000000  0.4486870000000  0.4769160000000 1.0
C      1  0.5749380000000  0.5524220000000  0.5227540000000 1.0
C      1  0.5086850000000  0.5100460000000  0.4410420000000 1.0
C      1  0.5107840000000  0.4907990000000  0.5596330000000 1.0
C      1  0.4457880000000  0.5147280000000  0.4501550000000 1.0
C      1  0.4452040000000  0.4880780000000  0.5471260000000 1.0
C      1  0.5672400000000  0.4539690000000  0.5294980000000 1.0
C      1  0.5692680000000  0.5470870000000  0.4682120000000 1.0
C      1  0.4100410000000  0.5417870000000  0.4765480000000 1.0
C      1  0.4106870000000  0.4613930000000  0.5285750000000 1.0
C      1  0.5004520000000  0.4749390000000  0.4237940000000 1.0
C      1  0.4993990000000  0.5280520000000  0.5809100000000 1.0
C      1  0.5868450000000  0.4710560000000  0.4647500000000 1.0
C      1  0.5852820000000  0.5296930000000  0.5365080000000 1.0
C      1  0.4473950000000  0.4516560000000  0.4358900000000 1.0
C      1  0.4504530000000  0.5468260000000  0.5653450000000 1.0
C      1  0.5805810000000  0.4783170000000  0.5217180000000 1.0
C      1  0.5812640000000  0.5231820000000  0.4793650000000 1.0
C      1  0.4431910000000  0.4278470000000  0.5150630000000 1.0
C      1  0.4284420000000  0.5634210000000  0.4865050000000 1.0
C      1  0.5118980000000  0.5756990000000  0.5392120000000 1.0
C      1  0.5108190000000  0.4263910000000  0.4586860000000 1.0
C      1  0.4542410000000  0.4982980000000  0.5732090000000 1.0
C      1  0.4546010000000  0.5007250000000  0.4250160000000 1.0
C      1  0.5173010000000  0.4099590000000  0.4943700000000 1.0
C      1  0.5207800000000  0.5887300000000  0.5091420000000 1.0
C      1  0.4810570000000  0.5536900000000  0.5096670000000 1.0
C      1  0.4806350000000  0.4453550000000  0.4889820000000 1.0
C      1  0.4487010000000  0.4610920000000  0.5564650000000 1.0
C      1  0.4513730000000  0.5437250000000  0.4448690000000 1.0
C      1  0.5173630000000  0.4885860000000  0.4800000000000 1.0
C      1  0.5168770000000  0.5110610000000  0.5206800000000 1.0
C      1  0.5326430000000  0.5587790000000  0.4368880000000 1.0
C      1  0.5397080000000  0.4382870000000  0.5560280000000 1.0
C      1  0.4861530000000  0.4709350000000  0.5340630000000 1.0
C      1  0.4856820000000  0.5250870000000  0.4695690000000 1.0
C      1  0.5536990000000  0.4975270000000  0.4618070000000 1.0
C      1  0.5533120000000  0.5040950000000  0.5382730000000 1.0
C      1  0.4518390000000  0.5130210000000  0.5025360000000 1.0
C      1  0.4517030000000  0.4849630000000  0.4970590000000 1.0
C      1  0.4875410000000  0.5281690000000  0.5438840000000 1.0
C      1  0.4879400000000  0.4706330000000  0.4494350000000 1.0
C      1  0.5141920000000  0.5753280000000  0.4554720000000 1.0
C      1  0.5154830000000  0.4269550000000  0.5475040000000 1.0
C      1  0.4367080000000  0.4676650000000  0.4547770000000 1.0
C      1  0.4370020000000  0.5331640000000  0.5462480000000 1.0
C      1  0.4397240000000  0.5635820000000  0.5123750000000 1.0
C      1  0.4403790000000  0.4343120000000  0.4871900000000 1.0
C      1  0.4650640000000  0.4251820000000  0.4750340000000 1.0
C      1  0.4670700000000  0.5769550000000  0.5211800000000 1.0
C      1  0.4344030000000  0.4456660000000  0.5366750000000 1.0
C      1  0.4465710000000  0.5646180000000  0.4640920000000 1.0
C      1  0.5331960000000  0.4768970000000  0.5017020000000 1.0
C      1  0.5335560000000  0.5219610000000  0.4996670000000 1.0
C      1  0.4908800000000  0.5320930000000  0.4128940000000 1.0
C      1  0.4871120000000  0.4711780000000  0.5885120000000 1.0
C      1  0.5130980000000  0.4835000000000  0.5312900000000 1.0
C      1  0.5128230000000  0.5153720000000  0.4684390000000 1.0
C      1  0.4800580000000  0.4877960000000  0.4893760000000 1.0
C      1  0.4807800000000  0.5104270000000  0.5077110000000 1.0
C      1  0.4770430000000  0.4573610000000  0.5632730000000 1.0
C      1  0.4742510000000  0.5504070000000  0.4279140000000 1.0
C      1  0.5807580000000  0.4981850000000  0.5444490000000 1.0
C      1  0.5819360000000  0.5008840000000  0.4559520000000 1.0
C      1  0.4325480000000  0.5354100000000  0.5178520000000 1.0
C      1  0.4317190000000  0.4634750000000  0.4830730000000 1.0
C      1  0.5104800000000  0.4068980000000  0.5236090000000 1.0
C      1  0.5072840000000  0.5913630000000  0.4838560000000 1.0
C      1  0.4387960000000  0.4770330000000  0.4280630000000 1.0
C      1  0.4391020000000  0.5227000000000  0.5720960000000 1.0
C      1  0.5619030000000  0.5137180000000  0.4988140000000 1.0
C      1  0.5612300000000  0.4861750000000  0.5023950000000 1.0
C      1  0.5031430000000  0.4511330000000  0.4738010000000 1.0
C      1  0.5039340000000  0.5481870000000  0.5231520000000 1.0
C      1  0.5573710000000  0.5436820000000  0.4410900000000 1.0
C      1  0.5615860000000  0.4548670000000  0.5596390000000 1.0
C      1  0.5322370000000  0.5201240000000  0.5423780000000 1.0
C      1  0.5328400000000  0.4811990000000  0.4577770000000 1.0
C      1  0.4788090000000  0.5507690000000  0.5642800000000 1.0
C      1  0.4746840000000  0.4463370000000  0.4360560000000 1.0
C      1  0.4824420000000  0.4228240000000  0.4513860000000 1.0
C      1  0.4839760000000  0.5744710000000  0.5465060000000 1.0
C      1  0.4712430000000  0.5755610000000  0.4743200000000 1.0
C      1  0.4708450000000  0.4214740000000  0.5211130000000 1.0
C      1  0.5533720000000  0.5563710000000  0.5410540000000 1.0
C      1  0.5476580000000  0.4433160000000  0.4670300000000 1.0
C      1  0.5291090000000  0.4693000000000  0.4289330000000 1.0
C      1  0.5267830000000  0.5310550000000  0.5716140000000 1.0
C      1  0.4115290000000  0.4772190000000  0.5039920000000 1.0
C      1  0.4116410000000  0.5207820000000  0.4962600000000 1.0
C      1  0.5671440000000  0.5176160000000  0.4296680000000 1.0
C      1  0.5670590000000  0.4829360000000  0.5704800000000 1.0
C      1  0.4858550000000  0.5003480000000  0.5794950000000 1.0
C      1  0.4840280000000  0.5032910000000  0.4189170000000 1.0
END
