TITL C-2441164-471-1489 0.0226467539602326 125000 -9047.88423618488 0 0 66 (C1) n - 1
REM
REM in /home/bkarasulu/work/CARBON/AIRSS/Generating-Clusters/ReaxFF-fromJPCA2015/Units_Real/with-SteepDescent/Higher-Symm
REM
REM
REM
REM
REM
REM ./C.cell (1df0a924f5614ab8850e4351716899ee)
REM
REM compiler GCC version 9.2.1 20190827 (Red Hat 9.2.1-1)
REM options -cpp -mtune=generic -march=x86-64 -g -O0 -fpre-include=/usr/include/finclude/math-vector-fortran.h
REM seed -1324227307 -1730384851 -1431255110 885605380 -1819581272 -375890108 972911912 86929959 715582041 219492044 -1445241155 -927707604 -83402075 -919028553 -1065051808 899009816 -366937468 803466421 1262996088 218284660 -1523934504 166469989 -1316530586 956093368 400742028 -423691473 -331207076 -432713481 1582226965 -1753892515 -1281418063 -2077321711 935919984
REM
CELL 1.54180   50.00000   50.00000   50.00000   90.00000   90.00000   90.00000
LATT -1
SFAC C  
C      1  0.5126000000000  0.4741150000000  0.4310300000000 1.0
C      1  0.4978790000000  0.5491600000000  0.5018790000000 1.0
C      1  0.4845310000000  0.4860170000000  0.4344380000000 1.0
C      1  0.5301130000000  0.4601820000000  0.5507250000000 1.0
C      1  0.5163270000000  0.5564520000000  0.4837950000000 1.0
C      1  0.4692600000000  0.4944830000000  0.5671240000000 1.0
C      1  0.5088690000000  0.5192860000000  0.4250170000000 1.0
C      1  0.5245730000000  0.4964840000000  0.4267170000000 1.0
C      1  0.5255320000000  0.5387840000000  0.4397120000000 1.0
C      1  0.5026780000000  0.4670440000000  0.5499950000000 1.0
C      1  0.4635690000000  0.5302190000000  0.4511760000000 1.0
C      1  0.4377300000000  0.4713090000000  0.5312470000000 1.0
C      1  0.4402950000000  0.5259600000000  0.5217630000000 1.0
C      1  0.5189420000000  0.4969230000000  0.4798680000000 1.0
C      1  0.5181440000000  0.4936230000000  0.5097810000000 1.0
C      1  0.5631840000000  0.5079230000000  0.4622460000000 1.0
C      1  0.5698920000000  0.5218600000000  0.4864570000000 1.0
C      1  0.5416210000000  0.5611870000000  0.4936460000000 1.0
C      1  0.5219780000000  0.4356700000000  0.5090290000000 1.0
C      1  0.5067740000000  0.5471100000000  0.4599860000000 1.0
C      1  0.5535940000000  0.5294560000000  0.5264090000000 1.0
C      1  0.4655180000000  0.4908350000000  0.5039720000000 1.0
C      1  0.4558380000000  0.4474880000000  0.5249470000000 1.0
C      1  0.4879630000000  0.5632060000000  0.5371810000000 1.0
C      1  0.4727000000000  0.5472020000000  0.5559980000000 1.0
C      1  0.5575130000000  0.4795990000000  0.4634900000000 1.0
C      1  0.4859140000000  0.5295230000000  0.4692500000000 1.0
C      1  0.4281420000000  0.4883060000000  0.4740320000000 1.0
C      1  0.4483120000000  0.5355080000000  0.5473960000000 1.0
C      1  0.4846020000000  0.4548200000000  0.5292770000000 1.0
C      1  0.5401590000000  0.5550880000000  0.5222490000000 1.0
C      1  0.4571250000000  0.4921530000000  0.4754880000000 1.0
C      1  0.5242850000000  0.4484110000000  0.4665730000000 1.0
C      1  0.4788240000000  0.5139890000000  0.4309890000000 1.0
C      1  0.5337450000000  0.5091770000000  0.5295750000000 1.0
C      1  0.4736610000000  0.5613520000000  0.5114010000000 1.0
C      1  0.4254970000000  0.5156770000000  0.4845880000000 1.0
C      1  0.5147280000000  0.5194560000000  0.5461610000000 1.0
C      1  0.4436500000000  0.5356300000000  0.4742390000000 1.0
C      1  0.5197520000000  0.5409340000000  0.5631400000000 1.0
C      1  0.4976240000000  0.4895670000000  0.5668690000000 1.0
C      1  0.4752890000000  0.4772790000000  0.4602300000000 1.0
C      1  0.4385530000000  0.4973440000000  0.5153080000000 1.0
C      1  0.5377560000000  0.4648880000000  0.4467050000000 1.0
C      1  0.5310870000000  0.4586570000000  0.4933180000000 1.0
C      1  0.4535750000000  0.4761870000000  0.5529390000000 1.0
C      1  0.4969800000000  0.4759680000000  0.4795570000000 1.0
C      1  0.5517990000000  0.5335090000000  0.4515870000000 1.0
C      1  0.4623330000000  0.5227260000000  0.5661910000000 1.0
C      1  0.5598900000000  0.5466450000000  0.4765380000000 1.0
C      1  0.5173560000000  0.5592960000000  0.5404130000000 1.0
C      1  0.5373660000000  0.4401820000000  0.5332570000000 1.0
C      1  0.5136470000000  0.5135230000000  0.5723660000000 1.0
C      1  0.4863410000000  0.5257640000000  0.4967900000000 1.0
C      1  0.4517180000000  0.4423580000000  0.4954500000000 1.0
C      1  0.5005640000000  0.4216040000000  0.4940740000000 1.0
C      1  0.4499620000000  0.5453600000000  0.5017720000000 1.0
C      1  0.5660760000000  0.4815740000000  0.5161240000000 1.0
C      1  0.4908020000000  0.5045020000000  0.5143000000000 1.0
C      1  0.4835170000000  0.4668700000000  0.5028380000000 1.0
C      1  0.5709060000000  0.5108710000000  0.5129610000000 1.0
C      1  0.4319220000000  0.4601690000000  0.4836080000000 1.0
C      1  0.5588330000000  0.4697310000000  0.4909150000000 1.0
C      1  0.4752420000000  0.4284720000000  0.4813430000000 1.0
C      1  0.5004060000000  0.4315590000000  0.4663270000000 1.0
C      1  0.5544410000000  0.4637960000000  0.5362340000000 1.0
END
