TITL C-2441160-1326-995 0.10529962381108 125000 -21345.1264506267 0 0 158 (C1) n - 1
REM
REM in /home/bkarasulu/work/CARBON/AIRSS/Generating-Clusters/ReaxFF-fromJPCA2015/Units_Real/with-SteepDescent/Higher-Symm
REM
REM
REM
REM
REM
REM ./C.cell (1df0a924f5614ab8850e4351716899ee)
REM
REM compiler GCC version 9.2.1 20190827 (Red Hat 9.2.1-1)
REM options -cpp -mtune=generic -march=x86-64 -g -O0 -fpre-include=/usr/include/finclude/math-vector-fortran.h
REM seed -1146996012 -400651246 -18618034 32138697 916364342 -437518664 -651360895 1224918209 -2099048435 -1285945083 379242885 -669510178 288251965 1152207846 109556907 30920937 553716480 1537914471 -1869790370 -1261536616 669181610 -1234805057 601744131 -145321383 1716379396 -880039673 -761235292 1316732300 1230211534 -2098551183 -1172110847 -252571562 -1026834675
REM
CELL 1.54180   50.00000   50.00000   50.00000   90.00000   90.00000   90.00000
LATT -1
SFAC C  
C      1  0.4807890000000  0.4409830000000  0.4619520000000 1.0
C      1  0.5032440000000  0.4571080000000  0.4542680000000 1.0
C      1  0.5321370000000  0.4499230000000  0.4564870000000 1.0
C      1  0.5406860000000  0.4574470000000  0.4825080000000 1.0
C      1  0.5322840000000  0.4410100000000  0.5061280000000 1.0
C      1  0.5341050000000  0.4587740000000  0.5290750000000 1.0
C      1  0.5187750000000  0.4555660000000  0.5526730000000 1.0
C      1  0.4898320000000  0.4580370000000  0.5500670000000 1.0
C      1  0.4690920000000  0.4564730000000  0.5303080000000 1.0
C      1  0.4644630000000  0.4409170000000  0.5095150000000 1.0
C      1  0.4647200000000  0.4525870000000  0.4838160000000 1.0
C      1  0.5807740000000  0.5196940000000  0.4375640000000 1.0
C      1  0.6045360000000  0.5172000000000  0.4903460000000 1.0
C      1  0.5931960000000  0.5204420000000  0.5469560000000 1.0
C      1  0.5502170000000  0.5172070000000  0.5889530000000 1.0
C      1  0.4931900000000  0.5235470000000  0.6016910000000 1.0
C      1  0.4391120000000  0.5184180000000  0.5828130000000 1.0
C      1  0.4008980000000  0.5161460000000  0.5378530000000 1.0
C      1  0.4005620000000  0.5185290000000  0.4765670000000 1.0
C      1  0.4279560000000  0.5193100000000  0.4269270000000 1.0
C      1  0.4786740000000  0.5132580000000  0.4051050000000 1.0
C      1  0.5433640000000  0.5198930000000  0.4004380000000 1.0
C      1  0.4904290000000  0.4431610000000  0.4059630000000 1.0
C      1  0.5310560000000  0.4494890000000  0.4154930000000 1.0
C      1  0.5867920000000  0.4499920000000  0.4579470000000 1.0
C      1  0.5825210000000  0.4458440000000  0.5058540000000 1.0
C      1  0.5737810000000  0.4478060000000  0.5551310000000 1.0
C      1  0.5311380000000  0.4379590000000  0.5854510000000 1.0
C      1  0.4784790000000  0.4492120000000  0.5940860000000 1.0
C      1  0.4406030000000  0.4457660000000  0.5642290000000 1.0
C      1  0.4166160000000  0.4425260000000  0.5198960000000 1.0
C      1  0.4081270000000  0.4521890000000  0.4805590000000 1.0
C      1  0.4371230000000  0.4545900000000  0.4406780000000 1.0
C      1  0.5622930000000  0.4130670000000  0.4725450000000 1.0
C      1  0.5474000000000  0.4141120000000  0.5185020000000 1.0
C      1  0.5455130000000  0.4120100000000  0.5458650000000 1.0
C      1  0.4951450000000  0.4126930000000  0.5632150000000 1.0
C      1  0.4718330000000  0.4097540000000  0.5454500000000 1.0
C      1  0.4594970000000  0.4150970000000  0.5191330000000 1.0
C      1  0.4282700000000  0.4049850000000  0.4943000000000 1.0
C      1  0.4370220000000  0.4118510000000  0.4677530000000 1.0
C      1  0.4728940000000  0.4204870000000  0.4453490000000 1.0
C      1  0.5060770000000  0.4094990000000  0.4253480000000 1.0
C      1  0.5379380000000  0.4202530000000  0.4573300000000 1.0
C      1  0.4546220000000  0.5753920000000  0.5022590000000 1.0
C      1  0.4537460000000  0.5626120000000  0.4771280000000 1.0
C      1  0.4901240000000  0.5854560000000  0.4445020000000 1.0
C      1  0.4995300000000  0.5642960000000  0.4626630000000 1.0
C      1  0.5249470000000  0.5744960000000  0.4663640000000 1.0
C      1  0.5419110000000  0.5637590000000  0.4847810000000 1.0
C      1  0.5416500000000  0.5748340000000  0.5114240000000 1.0
C      1  0.5324830000000  0.5626940000000  0.5350710000000 1.0
C      1  0.5080390000000  0.5749120000000  0.5465910000000 1.0
C      1  0.4816240000000  0.5767820000000  0.5414680000000 1.0
C      1  0.4710250000000  0.5602870000000  0.5203330000000 1.0
C      1  0.4621800000000  0.4960090000000  0.4196270000000 1.0
C      1  0.5185850000000  0.5109600000000  0.3983270000000 1.0
C      1  0.5547210000000  0.5084070000000  0.4396300000000 1.0
C      1  0.5907720000000  0.5008050000000  0.4725340000000 1.0
C      1  0.5815040000000  0.5084640000000  0.5228150000000 1.0
C      1  0.5533340000000  0.5146900000000  0.5593400000000 1.0
C      1  0.5105480000000  0.5109170000000  0.5815790000000 1.0
C      1  0.4654220000000  0.5117080000000  0.5722310000000 1.0
C      1  0.4255210000000  0.5045690000000  0.5468520000000 1.0
C      1  0.4164550000000  0.5110170000000  0.4998810000000 1.0
C      1  0.4352590000000  0.5141550000000  0.4545220000000 1.0
C      1  0.5004190000000  0.4844180000000  0.4547970000000 1.0
C      1  0.5232760000000  0.4972750000000  0.4633130000000 1.0
C      1  0.5410030000000  0.4849350000000  0.4810740000000 1.0
C      1  0.5456740000000  0.4966920000000  0.5042390000000 1.0
C      1  0.5355080000000  0.4856540000000  0.5261180000000 1.0
C      1  0.5136970000000  0.4971050000000  0.5394360000000 1.0
C      1  0.4900110000000  0.4859190000000  0.5462930000000 1.0
C      1  0.4658010000000  0.4843620000000  0.5299680000000 1.0
C      1  0.4577860000000  0.4955280000000  0.5051640000000 1.0
C      1  0.4620990000000  0.4811370000000  0.4822210000000 1.0
C      1  0.4769160000000  0.4952190000000  0.4627260000000 1.0
C      1  0.4056930000000  0.4637500000000  0.5086540000000 1.0
C      1  0.4177120000000  0.4677070000000  0.4578350000000 1.0
C      1  0.4489010000000  0.4707760000000  0.4200830000000 1.0
C      1  0.5066620000000  0.4627490000000  0.4024360000000 1.0
C      1  0.5466450000000  0.4703820000000  0.4264290000000 1.0
C      1  0.5975870000000  0.4749720000000  0.4631000000000 1.0
C      1  0.5927080000000  0.4700020000000  0.5097240000000 1.0
C      1  0.5779260000000  0.4731190000000  0.5597690000000 1.0
C      1  0.5306530000000  0.4649210000000  0.5804200000000 1.0
C      1  0.4774930000000  0.4739620000000  0.5983720000000 1.0
C      1  0.4299610000000  0.4687210000000  0.5633910000000 1.0
C      1  0.4997330000000  0.5369090000000  0.4497080000000 1.0
C      1  0.5314200000000  0.5244800000000  0.4578150000000 1.0
C      1  0.5443260000000  0.5346990000000  0.4826780000000 1.0
C      1  0.5522860000000  0.5224300000000  0.5087100000000 1.0
C      1  0.5399890000000  0.5301080000000  0.5382790000000 1.0
C      1  0.5092790000000  0.5223920000000  0.5516140000000 1.0
C      1  0.4778860000000  0.5247390000000  0.5499720000000 1.0
C      1  0.4612340000000  0.5339120000000  0.5286820000000 1.0
C      1  0.4479680000000  0.5209920000000  0.5049230000000 1.0
C      1  0.4535070000000  0.5330300000000  0.4751850000000 1.0
C      1  0.4782500000000  0.5228130000000  0.4631590000000 1.0
C      1  0.5242640000000  0.4171140000000  0.5664690000000 1.0
C      1  0.4774450000000  0.4226810000000  0.5850520000000 1.0
C      1  0.4538090000000  0.4208210000000  0.5663020000000 1.0
C      1  0.4296390000000  0.4176040000000  0.5210560000000 1.0
C      1  0.4137810000000  0.4235180000000  0.4774840000000 1.0
C      1  0.4461330000000  0.4268390000000  0.4462690000000 1.0
C      1  0.4809550000000  0.4182580000000  0.4164510000000 1.0
C      1  0.5314190000000  0.4204950000000  0.4281350000000 1.0
C      1  0.5770930000000  0.4287260000000  0.4546620000000 1.0
C      1  0.5695590000000  0.4205470000000  0.5009890000000 1.0
C      1  0.5674690000000  0.4259320000000  0.5498710000000 1.0
C      1  0.5232290000000  0.5817670000000  0.5695950000000 1.0
C      1  0.4603550000000  0.5806700000000  0.5601510000000 1.0
C      1  0.4352670000000  0.5808720000000  0.5447480000000 1.0
C      1  0.4291020000000  0.5791560000000  0.5154370000000 1.0
C      1  0.4411070000000  0.5784510000000  0.4563050000000 1.0
C      1  0.4629190000000  0.5811970000000  0.4358340000000 1.0
C      1  0.5131590000000  0.5825810000000  0.4270460000000 1.0
C      1  0.5384080000000  0.5816520000000  0.4423400000000 1.0
C      1  0.5686490000000  0.5790410000000  0.4812160000000 1.0
C      1  0.5697420000000  0.5800460000000  0.5099190000000 1.0
C      1  0.5481600000000  0.5777570000000  0.5562510000000 1.0
C      1  0.4363740000000  0.4957230000000  0.4124410000000 1.0
C      1  0.4987560000000  0.4939750000000  0.3970690000000 1.0
C      1  0.5553440000000  0.4945650000000  0.4146700000000 1.0
C      1  0.5987810000000  0.4994190000000  0.4470840000000 1.0
C      1  0.6043640000000  0.4955210000000  0.5111380000000 1.0
C      1  0.5793000000000  0.4999550000000  0.5639050000000 1.0
C      1  0.5315990000000  0.4935090000000  0.5912060000000 1.0
C      1  0.4737370000000  0.5014070000000  0.5985610000000 1.0
C      1  0.4225970000000  0.4947810000000  0.5732080000000 1.0
C      1  0.4008500000000  0.4940180000000  0.5168740000000 1.0
C      1  0.4129510000000  0.4968280000000  0.4590770000000 1.0
C      1  0.4604850000000  0.5564080000000  0.4219470000000 1.0
C      1  0.5112380000000  0.5577610000000  0.4121770000000 1.0
C      1  0.5555740000000  0.5604930000000  0.4314710000000 1.0
C      1  0.5871790000000  0.5590030000000  0.4717680000000 1.0
C      1  0.5874820000000  0.5589410000000  0.5201720000000 1.0
C      1  0.5653230000000  0.5583840000000  0.5682400000000 1.0
C      1  0.5189520000000  0.5600340000000  0.5889310000000 1.0
C      1  0.4646080000000  0.5612480000000  0.5813360000000 1.0
C      1  0.4223130000000  0.5573420000000  0.5542820000000 1.0
C      1  0.4109390000000  0.5578770000000  0.5053240000000 1.0
C      1  0.4194950000000  0.5594030000000  0.4525410000000 1.0
C      1  0.4396430000000  0.5468350000000  0.5761540000000 1.0
C      1  0.4079130000000  0.5451130000000  0.5313900000000 1.0
C      1  0.4080200000000  0.5475160000000  0.4770480000000 1.0
C      1  0.4334820000000  0.5479640000000  0.4286020000000 1.0
C      1  0.4866330000000  0.5405170000000  0.4187770000000 1.0
C      1  0.5384050000000  0.5475340000000  0.4111490000000 1.0
C      1  0.5755140000000  0.5468500000000  0.4476490000000 1.0
C      1  0.5962590000000  0.5450830000000  0.4956630000000 1.0
C      1  0.5848380000000  0.5485100000000  0.5474740000000 1.0
C      1  0.5451620000000  0.5463450000000  0.5871500000000 1.0
C      1  0.4907830000000  0.5511020000000  0.5927950000000 1.0
C      1  0.5018440000000  0.5080990000000  0.5012160000000 1.0
C      1  0.5020980000000  0.5320540000000  0.5009150000000 1.0
C      1  0.4997280000000  0.5613990000000  0.4986010000000 1.0
C      1  0.5039100000000  0.4337230000000  0.5014780000000 1.0
END
