TITL C-2441164-471-346 0.127870401730859 125000 -26105.4811798736 0 0 194 (C1) n - 1
REM
REM in /home/bkarasulu/work/CARBON/AIRSS/Generating-Clusters/ReaxFF-fromJPCA2015/Units_Real/with-SteepDescent/Higher-Symm
REM
REM
REM
REM
REM
REM ./C.cell (1df0a924f5614ab8850e4351716899ee)
REM
REM compiler GCC version 9.2.1 20190827 (Red Hat 9.2.1-1)
REM options -cpp -mtune=generic -march=x86-64 -g -O0 -fpre-include=/usr/include/finclude/math-vector-fortran.h
REM seed 2023402799 -1111700487 223771214 -1643982057 -1596254462 2143454916 -203847404 1957473129 -1365515319 603611341 560655983 1563023009 991376611 1082990498 -8938700 1168318306 -812969714 -6453415 1253526161 969679808 -1501946405 -715196950 1334345206 -1886718510 -1799620193 928853838 673259128 1419403821 -2030892523 -479511661 1823928570 -86601260 -160833471
REM
CELL 1.54180   50.00000   50.00000   50.00000   90.00000   90.00000   90.00000
LATT -1
SFAC C  
C      1  0.5182730000000  0.6003630000000  0.4733290000000 1.0
C      1  0.4015200000000  0.4670560000000  0.4749280000000 1.0
C      1  0.5746440000000  0.4318160000000  0.4752440000000 1.0
C      1  0.5355920000000  0.5570050000000  0.5648280000000 1.0
C      1  0.4365490000000  0.5009050000000  0.5616100000000 1.0
C      1  0.5339230000000  0.4478840000000  0.5652290000000 1.0
C      1  0.5617890000000  0.5189580000000  0.5810570000000 1.0
C      1  0.4523030000000  0.5440250000000  0.5805960000000 1.0
C      1  0.4918050000000  0.4392280000000  0.5814630000000 1.0
C      1  0.4718550000000  0.4087200000000  0.4415900000000 1.0
C      1  0.5943290000000  0.5219600000000  0.4396090000000 1.0
C      1  0.4404370000000  0.5711740000000  0.4450690000000 1.0
C      1  0.5066760000000  0.5074320000000  0.5097890000000 1.0
C      1  0.4848050000000  0.5017930000000  0.5189230000000 1.0
C      1  0.5205880000000  0.4874480000000  0.5121640000000 1.0
C      1  0.5770000000000  0.4986980000000  0.4678450000000 1.0
C      1  0.4596130000000  0.5697110000000  0.4665200000000 1.0
C      1  0.4582490000000  0.4287520000000  0.4678880000000 1.0
C      1  0.4214410000000  0.5700090000000  0.4978040000000 1.0
C      1  0.4817640000000  0.3955130000000  0.4977310000000 1.0
C      1  0.5999230000000  0.5222340000000  0.5022830000000 1.0
C      1  0.4650810000000  0.4309860000000  0.4214470000000 1.0
C      1  0.5790760000000  0.5053190000000  0.4231620000000 1.0
C      1  0.4551090000000  0.5676780000000  0.4213370000000 1.0
C      1  0.5423630000000  0.4155440000000  0.4506630000000 1.0
C      1  0.5623330000000  0.5797070000000  0.4582670000000 1.0
C      1  0.4015600000000  0.5072240000000  0.4560530000000 1.0
C      1  0.6046910000000  0.5453700000000  0.5201110000000 1.0
C      1  0.4098250000000  0.5662140000000  0.5238630000000 1.0
C      1  0.4911540000000  0.3859840000000  0.5227860000000 1.0
C      1  0.5027430000000  0.3964730000000  0.4795110000000 1.0
C      1  0.5814080000000  0.5645050000000  0.4720150000000 1.0
C      1  0.4073050000000  0.5525510000000  0.4801080000000 1.0
C      1  0.6057400000000  0.4748200000000  0.4958790000000 1.0
C      1  0.4703270000000  0.6062730000000  0.4925510000000 1.0
C      1  0.4217750000000  0.4213170000000  0.4961230000000 1.0
C      1  0.4232330000000  0.4461980000000  0.4460110000000 1.0
C      1  0.5829830000000  0.4608760000000  0.4467290000000 1.0
C      1  0.4917060000000  0.5914610000000  0.4441520000000 1.0
C      1  0.4563100000000  0.4959970000000  0.6002020000000 1.0
C      1  0.5231590000000  0.4638440000000  0.6020500000000 1.0
C      1  0.5182190000000  0.5338140000000  0.5982100000000 1.0
C      1  0.3982000000000  0.5194720000000  0.5439470000000 1.0
C      1  0.5298350000000  0.4047590000000  0.5414810000000 1.0
C      1  0.5652240000000  0.5704950000000  0.5384290000000 1.0
C      1  0.4098540000000  0.4678420000000  0.5561920000000 1.0
C      1  0.5738510000000  0.4358780000000  0.5560790000000 1.0
C      1  0.5155520000000  0.5929120000000  0.5466790000000 1.0
C      1  0.5951230000000  0.5309290000000  0.5433250000000 1.0
C      1  0.4323490000000  0.5721790000000  0.5417800000000 1.0
C      1  0.4783130000000  0.4016250000000  0.5436910000000 1.0
C      1  0.5851450000000  0.4738670000000  0.5667500000000 1.0
C      1  0.4897970000000  0.5698480000000  0.5789890000000 1.0
C      1  0.4381420000000  0.4290360000000  0.5589330000000 1.0
C      1  0.5101780000000  0.4444910000000  0.3999060000000 1.0
C      1  0.5409350000000  0.5359960000000  0.4011870000000 1.0
C      1  0.4495190000000  0.5189630000000  0.3990220000000 1.0
C      1  0.5008160000000  0.5213150000000  0.4097750000000 1.0
C      1  0.4907890000000  0.5004950000000  0.3940720000000 1.0
C      1  0.5065120000000  0.4828210000000  0.4064210000000 1.0
C      1  0.4922910000000  0.5421140000000  0.5893750000000 1.0
C      1  0.4519940000000  0.4682380000000  0.5949720000000 1.0
C      1  0.5494530000000  0.4736750000000  0.5975820000000 1.0
C      1  0.5492620000000  0.5277780000000  0.5211830000000 1.0
C      1  0.4495460000000  0.5320220000000  0.5202810000000 1.0
C      1  0.4969130000000  0.4482730000000  0.5157360000000 1.0
C      1  0.5386430000000  0.4583520000000  0.5366930000000 1.0
C      1  0.5124330000000  0.5519770000000  0.5317740000000 1.0
C      1  0.4436030000000  0.4872190000000  0.5260700000000 1.0
C      1  0.5469860000000  0.5955750000000  0.4764020000000 1.0
C      1  0.3916270000000  0.4965960000000  0.4800060000000 1.0
C      1  0.5528480000000  0.4096160000000  0.4764920000000 1.0
C      1  0.4107510000000  0.4380320000000  0.5164750000000 1.0
C      1  0.5965670000000  0.4557760000000  0.5152650000000 1.0
C      1  0.4918090000000  0.6099530000000  0.5119890000000 1.0
C      1  0.5095790000000  0.5741350000000  0.4821470000000 1.0
C      1  0.4294910000000  0.4724170000000  0.4790210000000 1.0
C      1  0.5573090000000  0.4535720000000  0.4835690000000 1.0
C      1  0.5141440000000  0.4388500000000  0.4957200000000 1.0
C      1  0.5458350000000  0.5464710000000  0.4972080000000 1.0
C      1  0.4351760000000  0.5275640000000  0.4954800000000 1.0
C      1  0.5541330000000  0.4629690000000  0.4551650000000 1.0
C      1  0.5032790000000  0.5661450000000  0.4542070000000 1.0
C      1  0.4408440000000  0.4699450000000  0.4543610000000 1.0
C      1  0.4195870000000  0.5556400000000  0.4541500000000 1.0
C      1  0.4959120000000  0.4089060000000  0.4567350000000 1.0
C      1  0.5898460000000  0.5410110000000  0.4593440000000 1.0
C      1  0.5101370000000  0.4560990000000  0.4450390000000 1.0
C      1  0.5323380000000  0.5330600000000  0.4466340000000 1.0
C      1  0.4632800000000  0.5124230000000  0.4529980000000 1.0
C      1  0.5157760000000  0.4242390000000  0.5740660000000 1.0
C      1  0.5625750000000  0.5555660000000  0.5770220000000 1.0
C      1  0.4210270000000  0.5258940000000  0.5611480000000 1.0
C      1  0.5128140000000  0.5153650000000  0.4350600000000 1.0
C      1  0.4844440000000  0.4922330000000  0.4517500000000 1.0
C      1  0.5077540000000  0.4856970000000  0.4352540000000 1.0
C      1  0.4678370000000  0.5380270000000  0.6043020000000 1.0
C      1  0.4773180000000  0.4543480000000  0.6010310000000 1.0
C      1  0.5496880000000  0.5020490000000  0.6010410000000 1.0
C      1  0.4304580000000  0.4754730000000  0.5753430000000 1.0
C      1  0.5649150000000  0.4555820000000  0.5797630000000 1.0
C      1  0.5163490000000  0.5785820000000  0.5717180000000 1.0
C      1  0.5201520000000  0.3903620000000  0.5191200000000 1.0
C      1  0.5873870000000  0.5690580000000  0.5190820000000 1.0
C      1  0.3980960000000  0.5390100000000  0.5226140000000 1.0
C      1  0.4637770000000  0.4189170000000  0.4984920000000 1.0
C      1  0.5748090000000  0.5084910000000  0.4953590000000 1.0
C      1  0.4512430000000  0.5682380000000  0.4959320000000 1.0
C      1  0.5033120000000  0.4168790000000  0.5486590000000 1.0
C      1  0.5671040000000  0.5409010000000  0.5418120000000 1.0
C      1  0.4365710000000  0.5436080000000  0.5440940000000 1.0
C      1  0.5196960000000  0.5601080000000  0.5046300000000 1.0
C      1  0.4436850000000  0.4875750000000  0.4971960000000 1.0
C      1  0.5380900000000  0.4502720000000  0.5036230000000 1.0
C      1  0.4294910000000  0.5052050000000  0.4149800000000 1.0
C      1  0.5325650000000  0.4314780000000  0.4122540000000 1.0
C      1  0.5425230000000  0.5617290000000  0.4146640000000 1.0
C      1  0.4688330000000  0.5621790000000  0.5601430000000 1.0
C      1  0.4595050000000  0.4460850000000  0.5524350000000 1.0
C      1  0.5740790000000  0.4980140000000  0.5581780000000 1.0
C      1  0.5897930000000  0.4305070000000  0.5012890000000 1.0
C      1  0.5177040000000  0.6136800000000  0.4994040000000 1.0
C      1  0.3945990000000  0.4572410000000  0.5020070000000 1.0
C      1  0.4853350000000  0.4745300000000  0.4753750000000 1.0
C      1  0.5296500000000  0.5044590000000  0.4746190000000 1.0
C      1  0.4868540000000  0.5336840000000  0.4852250000000 1.0
C      1  0.3973760000000  0.4899120000000  0.5390570000000 1.0
C      1  0.5587590000000  0.4170210000000  0.5389920000000 1.0
C      1  0.5418970000000  0.5881320000000  0.5318400000000 1.0
C      1  0.4495130000000  0.4078660000000  0.5409620000000 1.0
C      1  0.6001080000000  0.5025980000000  0.5417230000000 1.0
C      1  0.4575320000000  0.5893720000000  0.5403800000000 1.0
C      1  0.5245710000000  0.5114180000000  0.6131640000000 1.0
C      1  0.4733750000000  0.5119120000000  0.6162160000000 1.0
C      1  0.4985520000000  0.4703770000000  0.6141520000000 1.0
C      1  0.5512460000000  0.4810660000000  0.4051190000000 1.0
C      1  0.4893770000000  0.5579590000000  0.4005330000000 1.0
C      1  0.4577070000000  0.4709650000000  0.4138140000000 1.0
C      1  0.4410330000000  0.4091810000000  0.5128010000000 1.0
C      1  0.6108910000000  0.4977390000000  0.5142040000000 1.0
C      1  0.4526680000000  0.5930950000000  0.5109070000000 1.0
C      1  0.5427400000000  0.6009860000000  0.5059290000000 1.0
C      1  0.3924870000000  0.4833660000000  0.5123330000000 1.0
C      1  0.5686110000000  0.4167540000000  0.5130300000000 1.0
C      1  0.4710000000000  0.4445500000000  0.5134760000000 1.0
C      1  0.5519910000000  0.4967610000000  0.5136630000000 1.0
C      1  0.4737640000000  0.5463630000000  0.5101340000000 1.0
C      1  0.5424020000000  0.5294820000000  0.4727750000000 1.0
C      1  0.4506280000000  0.5094450000000  0.4796650000000 1.0
C      1  0.5099180000000  0.4575200000000  0.4743800000000 1.0
C      1  0.5263720000000  0.5593140000000  0.4384160000000 1.0
C      1  0.4463660000000  0.4904330000000  0.4329750000000 1.0
C      1  0.5355200000000  0.4444670000000  0.4389990000000 1.0
C      1  0.4063050000000  0.5175310000000  0.4281390000000 1.0
C      1  0.5270350000000  0.4068860000000  0.4274400000000 1.0
C      1  0.5655280000000  0.5690680000000  0.4312410000000 1.0
C      1  0.4838960000000  0.5157230000000  0.5599620000000 1.0
C      1  0.5008580000000  0.4916280000000  0.5589210000000 1.0
C      1  0.5261330000000  0.5059850000000  0.5536320000000 1.0
C      1  0.4850020000000  0.5451270000000  0.5397730000000 1.0
C      1  0.4613060000000  0.4648970000000  0.5318510000000 1.0
C      1  0.5500630000000  0.4877460000000  0.5425940000000 1.0
C      1  0.4777500000000  0.5437260000000  0.4601210000000 1.0
C      1  0.4642950000000  0.4571780000000  0.4658910000000 1.0
C      1  0.5495080000000  0.4911710000000  0.4599580000000 1.0
C      1  0.4993240000000  0.3996160000000  0.4318530000000 1.0
C      1  0.5870730000000  0.5492640000000  0.4321840000000 1.0
C      1  0.4159160000000  0.5427240000000  0.4323210000000 1.0
C      1  0.5099660000000  0.4687520000000  0.5317370000000 1.0
C      1  0.5227100000000  0.5250620000000  0.5305160000000 1.0
C      1  0.4622560000000  0.5079970000000  0.5324310000000 1.0
C      1  0.5340060000000  0.5284220000000  0.5751410000000 1.0
C      1  0.4577750000000  0.5132080000000  0.5752220000000 1.0
C      1  0.5106230000000  0.4640870000000  0.5758010000000 1.0
C      1  0.4728140000000  0.5968370000000  0.4654850000000 1.0
C      1  0.4286240000000  0.4273010000000  0.4675090000000 1.0
C      1  0.5965080000000  0.4761730000000  0.4673450000000 1.0
C      1  0.5128490000000  0.5410160000000  0.3955880000000 1.0
C      1  0.4626790000000  0.4936010000000  0.3935540000000 1.0
C      1  0.5267950000000  0.4681170000000  0.3947130000000 1.0
C      1  0.4875400000000  0.4493870000000  0.4182850000000 1.0
C      1  0.5548020000000  0.5102040000000  0.4079080000000 1.0
C      1  0.4631570000000  0.5447380000000  0.4049280000000 1.0
C      1  0.4814380000000  0.5798400000000  0.4189190000000 1.0
C      1  0.4408590000000  0.4469080000000  0.4222290000000 1.0
C      1  0.5753230000000  0.4765480000000  0.4222590000000 1.0
C      1  0.4146690000000  0.4418060000000  0.5452540000000 1.0
C      1  0.5912290000000  0.4553040000000  0.5445680000000 1.0
C      1  0.4885560000000  0.5976330000000  0.5369290000000 1.0
C      1  0.4057580000000  0.5278650000000  0.4958670000000 1.0
C      1  0.5265260000000  0.4052150000000  0.4936960000000 1.0
C      1  0.5701660000000  0.5637720000000  0.4973060000000 1.0
C      1  0.5026440000000  0.5087650000000  0.4828460000000 1.0
C      1  0.4991170000000  0.4985590000000  0.6181850000000 1.0
END
