TITL C-2441156-4686-1149 0.0234878671570319 125000 -18125.417500247 0 0 126 (C1) n - 1
REM
REM in /home/bkarasulu/work/CARBON/AIRSS/Generating-Clusters/ReaxFF-fromJPCA2015/Units_Real/with-SteepDescent/Higher-Symm
REM
REM
REM
REM
REM
REM ./C.cell (1df0a924f5614ab8850e4351716899ee)
REM
REM compiler GCC version 9.2.1 20190827 (Red Hat 9.2.1-1)
REM options -cpp -mtune=generic -march=x86-64 -g -O0 -fpre-include=/usr/include/finclude/math-vector-fortran.h
REM seed 1389840536 1106539991 -1048885410 1581471324 -1605586059 974743348 1697100977 576080519 123419315 -1795253974 22296515 -1520281322 1699807751 1288804409 -408583946 -1686012777 -55917020 1944661411 -691435879 -1579498759 -1547919160 840603941 1035849788 -872761346 839930593 53146384 -1212851659 960860992 -1290151278 288908502 2084394741 1405220421 1396442030
REM
CELL 1.54180   50.00000   50.00000   50.00000   90.00000   90.00000   90.00000
LATT -1
SFAC C  
C      1  0.4529810000000  0.5481280000000  0.5667180000000 1.0
C      1  0.5235130000000  0.5587880000000  0.5680170000000 1.0
C      1  0.5634620000000  0.4881220000000  0.5647200000000 1.0
C      1  0.5100260000000  0.4319760000000  0.5724730000000 1.0
C      1  0.4412590000000  0.4690520000000  0.5694400000000 1.0
C      1  0.4521220000000  0.5438370000000  0.4325220000000 1.0
C      1  0.5284360000000  0.5590260000000  0.4295840000000 1.0
C      1  0.5660740000000  0.4916810000000  0.4256870000000 1.0
C      1  0.5146180000000  0.4337490000000  0.4286830000000 1.0
C      1  0.4422790000000  0.4653370000000  0.4322780000000 1.0
C      1  0.5185510000000  0.5161040000000  0.4118590000000 1.0
C      1  0.5199550000000  0.4877600000000  0.4085110000000 1.0
C      1  0.4940010000000  0.4760400000000  0.4087940000000 1.0
C      1  0.4760320000000  0.4977390000000  0.4120360000000 1.0
C      1  0.4904840000000  0.5228090000000  0.4127850000000 1.0
C      1  0.5210290000000  0.5162550000000  0.5876540000000 1.0
C      1  0.5208790000000  0.4868060000000  0.5885080000000 1.0
C      1  0.4941690000000  0.4755300000000  0.5892650000000 1.0
C      1  0.4765020000000  0.4978620000000  0.5894490000000 1.0
C      1  0.4927900000000  0.5208720000000  0.5874600000000 1.0
C      1  0.4488930000000  0.4304260000000  0.4605120000000 1.0
C      1  0.4177340000000  0.5184520000000  0.4625430000000 1.0
C      1  0.4963070000000  0.5794880000000  0.4668350000000 1.0
C      1  0.5789280000000  0.5291640000000  0.4641190000000 1.0
C      1  0.5531810000000  0.4458150000000  0.4698810000000 1.0
C      1  0.4561400000000  0.4346430000000  0.5320100000000 1.0
C      1  0.4243790000000  0.5241120000000  0.5351850000000 1.0
C      1  0.4950300000000  0.5839450000000  0.5436840000000 1.0
C      1  0.5647640000000  0.5344460000000  0.5314200000000 1.0
C      1  0.5471960000000  0.4431480000000  0.5316840000000 1.0
C      1  0.4684140000000  0.4332850000000  0.4358690000000 1.0
C      1  0.4272010000000  0.5095450000000  0.4370890000000 1.0
C      1  0.4898550000000  0.5735070000000  0.4378990000000 1.0
C      1  0.5689010000000  0.5306960000000  0.4378480000000 1.0
C      1  0.5517080000000  0.4459310000000  0.4406830000000 1.0
C      1  0.4632830000000  0.4358550000000  0.5590330000000 1.0
C      1  0.4301630000000  0.5145610000000  0.5625130000000 1.0
C      1  0.4904270000000  0.5655840000000  0.5655930000000 1.0
C      1  0.5661290000000  0.5294180000000  0.5592120000000 1.0
C      1  0.5479650000000  0.4442470000000  0.5630860000000 1.0
C      1  0.5807480000000  0.5050010000000  0.5539160000000 1.0
C      1  0.5313980000000  0.4232130000000  0.5726100000000 1.0
C      1  0.4384490000000  0.4459610000000  0.5670390000000 1.0
C      1  0.4280280000000  0.5411580000000  0.5638390000000 1.0
C      1  0.5241090000000  0.5798080000000  0.5483400000000 1.0
C      1  0.5810760000000  0.5090570000000  0.4243890000000 1.0
C      1  0.5359750000000  0.4251060000000  0.4298720000000 1.0
C      1  0.4425450000000  0.4377760000000  0.4334260000000 1.0
C      1  0.4265380000000  0.5387100000000  0.4399230000000 1.0
C      1  0.5162580000000  0.5788960000000  0.4300360000000 1.0
C      1  0.4522610000000  0.4961370000000  0.5680270000000 1.0
C      1  0.4807340000000  0.5406210000000  0.5640330000000 1.0
C      1  0.5399300000000  0.5362040000000  0.5737760000000 1.0
C      1  0.5446590000000  0.4717440000000  0.5753980000000 1.0
C      1  0.4885050000000  0.4514300000000  0.5694170000000 1.0
C      1  0.4531210000000  0.4919370000000  0.4337750000000 1.0
C      1  0.4773690000000  0.5481110000000  0.4252250000000 1.0
C      1  0.5377980000000  0.5322540000000  0.4316140000000 1.0
C      1  0.5415380000000  0.4756350000000  0.4305960000000 1.0
C      1  0.4909400000000  0.4518120000000  0.4306200000000 1.0
C      1  0.4540210000000  0.5434720000000  0.4771810000000 1.0
C      1  0.5200750000000  0.5682980000000  0.4797460000000 1.0
C      1  0.5771550000000  0.5047770000000  0.4770330000000 1.0
C      1  0.5038290000000  0.4387670000000  0.4748440000000 1.0
C      1  0.4390210000000  0.4559120000000  0.4721840000000 1.0
C      1  0.4451470000000  0.5385400000000  0.5184430000000 1.0
C      1  0.5303830000000  0.5618790000000  0.5240190000000 1.0
C      1  0.5605070000000  0.4918450000000  0.5168560000000 1.0
C      1  0.5197910000000  0.4321410000000  0.5230790000000 1.0
C      1  0.4466030000000  0.4595970000000  0.5189170000000 1.0
C      1  0.4038390000000  0.5106570000000  0.5152870000000 1.0
C      1  0.4806000000000  0.5911090000000  0.5191170000000 1.0
C      1  0.5816340000000  0.5493770000000  0.5130820000000 1.0
C      1  0.5723380000000  0.4389790000000  0.5155340000000 1.0
C      1  0.4615520000000  0.4136980000000  0.5131270000000 1.0
C      1  0.4017130000000  0.5104830000000  0.4858360000000 1.0
C      1  0.4826690000000  0.5940970000000  0.4889670000000 1.0
C      1  0.5813800000000  0.5487640000000  0.4837170000000 1.0
C      1  0.5751390000000  0.4422510000000  0.4873660000000 1.0
C      1  0.4589160000000  0.4103310000000  0.4845140000000 1.0
C      1  0.5947280000000  0.4577130000000  0.5198640000000 1.0
C      1  0.4854560000000  0.3956110000000  0.5127310000000 1.0
C      1  0.3969990000000  0.4824630000000  0.5170000000000 1.0
C      1  0.4511310000000  0.5916800000000  0.5166630000000 1.0
C      1  0.5761670000000  0.5783050000000  0.5122450000000 1.0
C      1  0.5972920000000  0.4603770000000  0.4905530000000 1.0
C      1  0.4830140000000  0.3940070000000  0.4827320000000 1.0
C      1  0.3933820000000  0.4815860000000  0.4871780000000 1.0
C      1  0.4533310000000  0.5950980000000  0.4869410000000 1.0
C      1  0.5731350000000  0.5769490000000  0.4829430000000 1.0
C      1  0.4401360000000  0.5685790000000  0.4830920000000 1.0
C      1  0.5443070000000  0.5837740000000  0.4860790000000 1.0
C      1  0.5960820000000  0.4895880000000  0.4930120000000 1.0
C      1  0.5080830000000  0.4099330000000  0.4805120000000 1.0
C      1  0.4130720000000  0.4590800000000  0.4858710000000 1.0
C      1  0.4367390000000  0.5656160000000  0.5121590000000 1.0
C      1  0.5477090000000  0.5841090000000  0.5148090000000 1.0
C      1  0.5887730000000  0.4875830000000  0.5226240000000 1.0
C      1  0.5129420000000  0.4071420000000  0.5095450000000 1.0
C      1  0.4159030000000  0.4600300000000  0.5144120000000 1.0
C      1  0.4744380000000  0.4967430000000  0.5411900000000 1.0
C      1  0.4891590000000  0.5240100000000  0.5343440000000 1.0
C      1  0.5176530000000  0.5157200000000  0.5375620000000 1.0
C      1  0.5210390000000  0.4881270000000  0.5434770000000 1.0
C      1  0.4960490000000  0.4724750000000  0.5435600000000 1.0
C      1  0.4763900000000  0.4942850000000  0.4599610000000 1.0
C      1  0.4915330000000  0.5197000000000  0.4604280000000 1.0
C      1  0.5212310000000  0.5158020000000  0.4581050000000 1.0
C      1  0.5223620000000  0.4865660000000  0.4517730000000 1.0
C      1  0.4971780000000  0.4740340000000  0.4541740000000 1.0
C      1  0.5390730000000  0.4755870000000  0.5247570000000 1.0
C      1  0.4985350000000  0.4514460000000  0.5215070000000 1.0
C      1  0.4605160000000  0.4880660000000  0.5176990000000 1.0
C      1  0.4878940000000  0.5407950000000  0.5083000000000 1.0
C      1  0.5376920000000  0.5328200000000  0.5250710000000 1.0
C      1  0.5227660000000  0.4768990000000  0.4987800000000 1.0
C      1  0.4859010000000  0.4516170000000  0.4950430000000 1.0
C      1  0.4724780000000  0.5000880000000  0.4940120000000 1.0
C      1  0.4828150000000  0.5403310000000  0.4788010000000 1.0
C      1  0.5271850000000  0.5173740000000  0.4893400000000 1.0
C      1  0.5090280000000  0.5581280000000  0.5045270000000 1.0
C      1  0.5541670000000  0.5062280000000  0.4939520000000 1.0
C      1  0.5274640000000  0.4552830000000  0.4802330000000 1.0
C      1  0.4580420000000  0.4559650000000  0.4927720000000 1.0
C      1  0.4502230000000  0.5215470000000  0.4956630000000 1.0
C      1  0.5053700000000  0.4996500000000  0.4972700000000 1.0
END
