TITL C-2441159-1093-921 0.101557300580557 125000 -19657.6251464289 0 0 152 (C1) n - 1
REM
REM in /home/bkarasulu/work/CARBON/AIRSS/Generating-Clusters/ReaxFF-fromJPCA2015/Units_Real/with-SteepDescent/Higher-Symm
REM
REM
REM
REM
REM
REM ./C.cell (1df0a924f5614ab8850e4351716899ee)
REM
REM compiler GCC version 9.2.1 20190827 (Red Hat 9.2.1-1)
REM options -cpp -mtune=generic -march=x86-64 -g -O0 -fpre-include=/usr/include/finclude/math-vector-fortran.h
REM seed -1632995675 723870565 73644187 -1903980182 -55587674 -285429305 1674224704 1186476164 -1982926407 -748591450 -304870733 -595688689 694951960 992803568 -2049971696 1147580429 -49032451 1470879015 -1323459657 841588735 2083377677 759426506 -1647131219 -1905423334 -1487936434 1045954859 295264221 1115273025 953566427 -27328421 380016204 -806828533 607601524
REM
CELL 1.54180   50.00000   50.00000   50.00000   90.00000   90.00000   90.00000
LATT -1
SFAC C  
C      1  0.4886650000000  0.5433550000000  0.4462530000000 1.0
C      1  0.4435800000000  0.4856920000000  0.5538550000000 1.0
C      1  0.5540000000000  0.4443370000000  0.4852390000000 1.0
C      1  0.5105450000000  0.4576070000000  0.4465540000000 1.0
C      1  0.5099280000000  0.5471430000000  0.5527180000000 1.0
C      1  0.4844390000000  0.4425260000000  0.5551550000000 1.0
C      1  0.5530550000000  0.5111970000000  0.5438350000000 1.0
C      1  0.5543290000000  0.4840930000000  0.4452580000000 1.0
C      1  0.4455960000000  0.5148240000000  0.4451440000000 1.0
C      1  0.4491500000000  0.5538390000000  0.4873370000000 1.0
C      1  0.4557920000000  0.4541210000000  0.5114570000000 1.0
C      1  0.5534600000000  0.5545470000000  0.5125370000000 1.0
C      1  0.4842940000000  0.5577840000000  0.5544130000000 1.0
C      1  0.4425500000000  0.4856150000000  0.4435640000000 1.0
C      1  0.5423240000000  0.4466120000000  0.5107820000000 1.0
C      1  0.5099660000000  0.4540720000000  0.5527600000000 1.0
C      1  0.5145260000000  0.5551680000000  0.4457230000000 1.0
C      1  0.4848380000000  0.4455050000000  0.4459560000000 1.0
C      1  0.5550640000000  0.5136870000000  0.4483520000000 1.0
C      1  0.5539320000000  0.4855670000000  0.5561730000000 1.0
C      1  0.4465840000000  0.5117170000000  0.5433200000000 1.0
C      1  0.4462100000000  0.5537480000000  0.5160890000000 1.0
C      1  0.4444900000000  0.4453870000000  0.4847820000000 1.0
C      1  0.5581090000000  0.5551100000000  0.4847220000000 1.0
C      1  0.4818130000000  0.5914610000000  0.4733700000000 1.0
C      1  0.4794580000000  0.4889640000000  0.5752780000000 1.0
C      1  0.5798080000000  0.4801760000000  0.4869730000000 1.0
C      1  0.5181470000000  0.4080930000000  0.4718040000000 1.0
C      1  0.5158820000000  0.5804640000000  0.5246450000000 1.0
C      1  0.4821740000000  0.4146250000000  0.5235820000000 1.0
C      1  0.5228200000000  0.5174940000000  0.5830340000000 1.0
C      1  0.5252310000000  0.4842770000000  0.4060100000000 1.0
C      1  0.4755700000000  0.5169020000000  0.4067250000000 1.0
C      1  0.4179230000000  0.5212910000000  0.4855660000000 1.0
C      1  0.4128940000000  0.4739320000000  0.5177280000000 1.0
C      1  0.5900400000000  0.5229700000000  0.5167500000000 1.0
C      1  0.4873150000000  0.5904480000000  0.5247480000000 1.0
C      1  0.4796830000000  0.4878660000000  0.4237780000000 1.0
C      1  0.5904220000000  0.4737170000000  0.5181660000000 1.0
C      1  0.5222090000000  0.4076570000000  0.5302560000000 1.0
C      1  0.5142090000000  0.5779800000000  0.4786860000000 1.0
C      1  0.4887470000000  0.4193140000000  0.4774120000000 1.0
C      1  0.5198200000000  0.5133220000000  0.4217590000000 1.0
C      1  0.5262260000000  0.4853940000000  0.5943560000000 1.0
C      1  0.4736020000000  0.5174980000000  0.5906480000000 1.0
C      1  0.4060180000000  0.5252820000000  0.5186270000000 1.0
C      1  0.4196130000000  0.4777390000000  0.4882600000000 1.0
C      1  0.5915030000000  0.5239210000000  0.4860680000000 1.0
C      1  0.4359710000000  0.4307720000000  0.5306530000000 1.0
C      1  0.5302380000000  0.4396930000000  0.4322740000000 1.0
C      1  0.4235650000000  0.5343890000000  0.4428510000000 1.0
C      1  0.5589230000000  0.5773840000000  0.5341630000000 1.0
C      1  0.5587300000000  0.4227760000000  0.4665760000000 1.0
C      1  0.4405010000000  0.5756550000000  0.4679540000000 1.0
C      1  0.4691200000000  0.5614320000000  0.4323190000000 1.0
C      1  0.4636920000000  0.4445940000000  0.5749430000000 1.0
C      1  0.5290490000000  0.5638540000000  0.5704800000000 1.0
C      1  0.5760590000000  0.4651190000000  0.4437590000000 1.0
C      1  0.5673450000000  0.5310150000000  0.5612850000000 1.0
C      1  0.4222000000000  0.4674100000000  0.5583420000000 1.0
C      1  0.4429200000000  0.4235180000000  0.4659940000000 1.0
C      1  0.5307050000000  0.4399830000000  0.5690190000000 1.0
C      1  0.4318890000000  0.5300910000000  0.5619370000000 1.0
C      1  0.5592410000000  0.5765690000000  0.4658890000000 1.0
C      1  0.5614460000000  0.4325900000000  0.5287580000000 1.0
C      1  0.4428640000000  0.5755450000000  0.5355030000000 1.0
C      1  0.4663570000000  0.5608390000000  0.5773190000000 1.0
C      1  0.4653840000000  0.4429040000000  0.4245150000000 1.0
C      1  0.5346700000000  0.5580160000000  0.4249620000000 1.0
C      1  0.5749320000000  0.4657970000000  0.5579150000000 1.0
C      1  0.5763230000000  0.5333920000000  0.4424050000000 1.0
C      1  0.4225810000000  0.4652060000000  0.4439230000000 1.0
C      1  0.5124330000000  0.4587250000000  0.4068930000000 1.0
C      1  0.4065930000000  0.5149280000000  0.4587550000000 1.0
C      1  0.4548960000000  0.4105470000000  0.5138740000000 1.0
C      1  0.4876280000000  0.5427550000000  0.4066540000000 1.0
C      1  0.4834890000000  0.4630960000000  0.5893700000000 1.0
C      1  0.5145260000000  0.5439950000000  0.5923610000000 1.0
C      1  0.5921660000000  0.4845220000000  0.4607010000000 1.0
C      1  0.5926370000000  0.5145990000000  0.5438270000000 1.0
C      1  0.4053910000000  0.4850850000000  0.5419850000000 1.0
C      1  0.5410060000000  0.5919320000000  0.5141170000000 1.0
C      1  0.5427770000000  0.4054020000000  0.4849170000000 1.0
C      1  0.4577420000000  0.5942790000000  0.4870850000000 1.0
C      1  0.5127960000000  0.4604470000000  0.5919380000000 1.0
C      1  0.4059100000000  0.5142130000000  0.5442800000000 1.0
C      1  0.4602520000000  0.4080660000000  0.4855710000000 1.0
C      1  0.4862870000000  0.5431250000000  0.5945470000000 1.0
C      1  0.4836590000000  0.4620710000000  0.4093870000000 1.0
C      1  0.5163670000000  0.5402440000000  0.4086790000000 1.0
C      1  0.5939330000000  0.4856180000000  0.5434610000000 1.0
C      1  0.5928160000000  0.5137420000000  0.4594000000000 1.0
C      1  0.4075690000000  0.4856890000000  0.4623110000000 1.0
C      1  0.5397020000000  0.5909130000000  0.4849670000000 1.0
C      1  0.5449880000000  0.4058820000000  0.5142820000000 1.0
C      1  0.4604380000000  0.5915760000000  0.5160540000000 1.0
C      1  0.5528500000000  0.4853670000000  0.4156670000000 1.0
C      1  0.4193370000000  0.5511570000000  0.4861120000000 1.0
C      1  0.4890480000000  0.4141740000000  0.5524220000000 1.0
C      1  0.4476570000000  0.5158440000000  0.4148430000000 1.0
C      1  0.4497180000000  0.4866340000000  0.5806140000000 1.0
C      1  0.5525040000000  0.5171830000000  0.5852780000000 1.0
C      1  0.5812520000000  0.4498930000000  0.4866450000000 1.0
C      1  0.5834310000000  0.5513880000000  0.5150440000000 1.0
C      1  0.4149460000000  0.4453850000000  0.5156290000000 1.0
C      1  0.5164530000000  0.5862970000000  0.5536230000000 1.0
C      1  0.5157400000000  0.4157340000000  0.4444890000000 1.0
C      1  0.4845140000000  0.5845110000000  0.4459940000000 1.0
C      1  0.5539200000000  0.4881750000000  0.5858400000000 1.0
C      1  0.4161040000000  0.5518580000000  0.5151110000000 1.0
C      1  0.4872880000000  0.4183070000000  0.4477730000000 1.0
C      1  0.4456930000000  0.5151250000000  0.5849280000000 1.0
C      1  0.4507060000000  0.4864850000000  0.4165930000000 1.0
C      1  0.5493990000000  0.5147350000000  0.4186220000000 1.0
C      1  0.5848100000000  0.4461440000000  0.5146320000000 1.0
C      1  0.5862700000000  0.5532210000000  0.4858240000000 1.0
C      1  0.4157350000000  0.4474280000000  0.4863300000000 1.0
C      1  0.5132970000000  0.5826580000000  0.4492120000000 1.0
C      1  0.5173850000000  0.4148290000000  0.5568260000000 1.0
C      1  0.4876160000000  0.5866190000000  0.5538730000000 1.0
C      1  0.5092820000000  0.4813150000000  0.4634450000000 1.0
C      1  0.4466890000000  0.5121940000000  0.4857180000000 1.0
C      1  0.4814940000000  0.4425660000000  0.5146230000000 1.0
C      1  0.4878380000000  0.5193860000000  0.4639020000000 1.0
C      1  0.4851690000000  0.4878490000000  0.5400100000000 1.0
C      1  0.5145510000000  0.5204430000000  0.5488420000000 1.0
C      1  0.5500500000000  0.4943360000000  0.4840660000000 1.0
C      1  0.5339770000000  0.5165120000000  0.5243340000000 1.0
C      1  0.4657470000000  0.4826460000000  0.5122060000000 1.0
C      1  0.5271260000000  0.5430720000000  0.5131090000000 1.0
C      1  0.5080790000000  0.4692720000000  0.4892320000000 1.0
C      1  0.4859410000000  0.5379620000000  0.4885180000000 1.0
C      1  0.5101360000000  0.4752380000000  0.5367800000000 1.0
C      1  0.4549110000000  0.5137990000000  0.5150810000000 1.0
C      1  0.4914270000000  0.4473620000000  0.4891760000000 1.0
C      1  0.4913790000000  0.5146400000000  0.5351560000000 1.0
C      1  0.4799560000000  0.4901950000000  0.4591120000000 1.0
C      1  0.5155490000000  0.5098380000000  0.4558190000000 1.0
C      1  0.5382670000000  0.4930010000000  0.5096270000000 1.0
C      1  0.5371780000000  0.5183320000000  0.4733640000000 1.0
C      1  0.4597140000000  0.4868710000000  0.4824270000000 1.0
C      1  0.5138420000000  0.5462310000000  0.4875820000000 1.0
C      1  0.5244690000000  0.4696420000000  0.5131970000000 1.0
C      1  0.4782360000000  0.5307880000000  0.5155830000000 1.0
C      1  0.4394270000000  0.4435180000000  0.5581040000000 1.0
C      1  0.5582920000000  0.4409030000000  0.4438030000000 1.0
C      1  0.5595140000000  0.5575120000000  0.4421850000000 1.0
C      1  0.4430400000000  0.5591130000000  0.5601620000000 1.0
C      1  0.5563540000000  0.5598340000000  0.5569510000000 1.0
C      1  0.4410870000000  0.5590580000000  0.4435960000000 1.0
C      1  0.4408540000000  0.4422190000000  0.4420040000000 1.0
C      1  0.5577520000000  0.4426130000000  0.5567100000000 1.0
END
