TITL C-2441168-9922-88 0.0382047887327824 125000 -15596.1940070456 0 0 112 (C1) n - 1
REM
REM in /home/bkarasulu/work/CARBON/AIRSS/Generating-Clusters/ReaxFF-fromJPCA2015/Units_Real/with-SteepDescent/Higher-Symm
REM
REM
REM
REM
REM
REM ./C.cell (1df0a924f5614ab8850e4351716899ee)
REM
REM compiler GCC version 9.2.1 20190827 (Red Hat 9.2.1-1)
REM options -cpp -mtune=generic -march=x86-64 -g -O0 -fpre-include=/usr/include/finclude/math-vector-fortran.h
REM seed 707848685 -578637555 1982160517 705102075 180323294 -2045518868 925210446 555137953 -752404413 -1825204008 -1430491282 -401153879 -1240328794 -957948218 532170258 -1736880872 -1177845404 1155097984 -898740029 -943685429 387628653 310897656 -1070100499 1869180681 710749447 -1987356943 501190408 -1376678813 392242168 1400414257 1676066742 848072359 -109185858
REM
CELL 1.54180   50.00000   50.00000   50.00000   90.00000   90.00000   90.00000
LATT -1
SFAC C  
C      1  0.4551420000000  0.5289590000000  0.5579360000000 1.0
C      1  0.4689930000000  0.5293480000000  0.4306480000000 1.0
C      1  0.5760790000000  0.5265650000000  0.5116020000000 1.0
C      1  0.5597420000000  0.5120280000000  0.5471990000000 1.0
C      1  0.4310650000000  0.5137420000000  0.5184740000000 1.0
C      1  0.5116820000000  0.5151630000000  0.4240990000000 1.0
C      1  0.4990340000000  0.5549850000000  0.4530800000000 1.0
C      1  0.5485830000000  0.5687730000000  0.5258590000000 1.0
C      1  0.4582040000000  0.5658530000000  0.5197780000000 1.0
C      1  0.4639280000000  0.4697130000000  0.5011180000000 1.0
C      1  0.5168230000000  0.4662010000000  0.4733210000000 1.0
C      1  0.5124180000000  0.4644330000000  0.5298910000000 1.0
C      1  0.4203540000000  0.5514710000000  0.5287830000000 1.0
C      1  0.5102730000000  0.5567140000000  0.4255630000000 1.0
C      1  0.5625630000000  0.5560700000000  0.5498230000000 1.0
C      1  0.5379970000000  0.5535070000000  0.5625850000000 1.0
C      1  0.4349150000000  0.5552010000000  0.5052540000000 1.0
C      1  0.5256660000000  0.5638870000000  0.4487060000000 1.0
C      1  0.5431880000000  0.4608100000000  0.5259220000000 1.0
C      1  0.4568940000000  0.4662550000000  0.5282170000000 1.0
C      1  0.4980960000000  0.4676010000000  0.4512290000000 1.0
C      1  0.4826790000000  0.4504940000000  0.4914730000000 1.0
C      1  0.5219150000000  0.4392360000000  0.4851400000000 1.0
C      1  0.4945330000000  0.4453690000000  0.5170980000000 1.0
C      1  0.4752740000000  0.5144780000000  0.5134390000000 1.0
C      1  0.4995610000000  0.5093120000000  0.4662950000000 1.0
C      1  0.5290380000000  0.5097220000000  0.5166910000000 1.0
C      1  0.5124600000000  0.5322230000000  0.5230210000000 1.0
C      1  0.4925570000000  0.5349150000000  0.5025320000000 1.0
C      1  0.5048230000000  0.5359330000000  0.4756460000000 1.0
C      1  0.4552900000000  0.5141710000000  0.4754630000000 1.0
C      1  0.5390380000000  0.5178570000000  0.4774200000000 1.0
C      1  0.5018380000000  0.5166420000000  0.5447140000000 1.0
C      1  0.4275080000000  0.5282900000000  0.5432550000000 1.0
C      1  0.4943040000000  0.5353550000000  0.4149600000000 1.0
C      1  0.5771840000000  0.5325280000000  0.5402180000000 1.0
C      1  0.4741400000000  0.4710400000000  0.4182670000000 1.0
C      1  0.5814480000000  0.4725170000000  0.5166300000000 1.0
C      1  0.4437440000000  0.4687190000000  0.5667690000000 1.0
C      1  0.4334300000000  0.5343290000000  0.4789360000000 1.0
C      1  0.5493260000000  0.5405280000000  0.4579330000000 1.0
C      1  0.5141590000000  0.5417580000000  0.5712610000000 1.0
C      1  0.4058000000000  0.5047780000000  0.5071260000000 1.0
C      1  0.5392500000000  0.5066190000000  0.4211380000000 1.0
C      1  0.5492390000000  0.5051040000000  0.5738910000000 1.0
C      1  0.4569870000000  0.4992940000000  0.4994220000000 1.0
C      1  0.5230600000000  0.4940180000000  0.4701100000000 1.0
C      1  0.5149900000000  0.4923090000000  0.5348540000000 1.0
C      1  0.5134260000000  0.4245300000000  0.4612130000000 1.0
C      1  0.5404980000000  0.4325380000000  0.5336030000000 1.0
C      1  0.4528810000000  0.4261400000000  0.5133890000000 1.0
C      1  0.5634110000000  0.5600360000000  0.4778550000000 1.0
C      1  0.4889550000000  0.5623560000000  0.5622390000000 1.0
C      1  0.4419960000000  0.5565620000000  0.4598600000000 1.0
C      1  0.5010080000000  0.5749510000000  0.5416310000000 1.0
C      1  0.4608260000000  0.5755610000000  0.4709820000000 1.0
C      1  0.5433590000000  0.5790570000000  0.4818000000000 1.0
C      1  0.4512330000000  0.4875370000000  0.4113250000000 1.0
C      1  0.5995220000000  0.4870780000000  0.4991980000000 1.0
C      1  0.4512730000000  0.4875770000000  0.5878480000000 1.0
C      1  0.5748590000000  0.4970380000000  0.4516140000000 1.0
C      1  0.5037190000000  0.4945910000000  0.5888770000000 1.0
C      1  0.4306640000000  0.4858150000000  0.4551090000000 1.0
C      1  0.5589100000000  0.5181490000000  0.4401230000000 1.0
C      1  0.5231560000000  0.5150630000000  0.5831280000000 1.0
C      1  0.4114830000000  0.5107890000000  0.4797540000000 1.0
C      1  0.4618090000000  0.4311770000000  0.4543580000000 1.0
C      1  0.5607610000000  0.4287260000000  0.4921810000000 1.0
C      1  0.4773550000000  0.4273560000000  0.5564700000000 1.0
C      1  0.4747720000000  0.5134760000000  0.5417360000000 1.0
C      1  0.4733060000000  0.5121600000000  0.4547470000000 1.0
C      1  0.5524460000000  0.5126200000000  0.5013400000000 1.0
C      1  0.5367640000000  0.4336890000000  0.4449710000000 1.0
C      1  0.5308600000000  0.4346200000000  0.5609180000000 1.0
C      1  0.4313750000000  0.4354020000000  0.4970630000000 1.0
C      1  0.4310400000000  0.4973370000000  0.4295490000000 1.0
C      1  0.5949960000000  0.4994520000000  0.4732290000000 1.0
C      1  0.4754090000000  0.4993870000000  0.5953670000000 1.0
C      1  0.4232030000000  0.4592970000000  0.4558200000000 1.0
C      1  0.5736490000000  0.4523740000000  0.4550410000000 1.0
C      1  0.5015490000000  0.4525680000000  0.5862400000000 1.0
C      1  0.5439290000000  0.4565660000000  0.4270790000000 1.0
C      1  0.5419940000000  0.4565500000000  0.5775300000000 1.0
C      1  0.4158510000000  0.4606620000000  0.4998520000000 1.0
C      1  0.4747570000000  0.5764350000000  0.4972650000000 1.0
C      1  0.5188270000000  0.5848500000000  0.4715820000000 1.0
C      1  0.5199410000000  0.5799250000000  0.5222710000000 1.0
C      1  0.5628570000000  0.4546180000000  0.5049100000000 1.0
C      1  0.4642960000000  0.4529860000000  0.5533440000000 1.0
C      1  0.4758350000000  0.4534470000000  0.4404580000000 1.0
C      1  0.5668540000000  0.5579320000000  0.5066420000000 1.0
C      1  0.4643040000000  0.5587990000000  0.5486290000000 1.0
C      1  0.4665420000000  0.5619910000000  0.4449290000000 1.0
C      1  0.5609740000000  0.4289960000000  0.4622760000000 1.0
C      1  0.5028410000000  0.4289530000000  0.5714520000000 1.0
C      1  0.4361280000000  0.4363430000000  0.4669710000000 1.0
C      1  0.5296100000000  0.4787050000000  0.4157420000000 1.0
C      1  0.5599100000000  0.4778350000000  0.5696050000000 1.0
C      1  0.4108920000000  0.4774030000000  0.5221430000000 1.0
C      1  0.4771430000000  0.4224370000000  0.5274050000000 1.0
C      1  0.4853040000000  0.4280590000000  0.4712300000000 1.0
C      1  0.5362250000000  0.4232610000000  0.5063740000000 1.0
C      1  0.5699190000000  0.4714620000000  0.4364250000000 1.0
C      1  0.5203920000000  0.4702970000000  0.5945080000000 1.0
C      1  0.4100220000000  0.4781170000000  0.4740800000000 1.0
C      1  0.5974650000000  0.5139960000000  0.4964410000000 1.0
C      1  0.4555870000000  0.5155170000000  0.5847760000000 1.0
C      1  0.4485150000000  0.5150880000000  0.4172080000000 1.0
C      1  0.5004930000000  0.4827020000000  0.4255480000000 1.0
C      1  0.5668970000000  0.4835400000000  0.5404580000000 1.0
C      1  0.4338120000000  0.4780140000000  0.5409770000000 1.0
C      1  0.5035620000000  0.5826990000000  0.4970170000000 1.0
END
