TITL C-2441168-9922-1120 0.00381518137425769 125000 -8818.11639423303 0 0 60 (C1) n - 1
REM
REM in /home/bkarasulu/work/CARBON/AIRSS/Generating-Clusters/ReaxFF-fromJPCA2015/Units_Real/with-SteepDescent/Higher-Symm
REM
REM
REM
REM
REM
REM ./C.cell (1df0a924f5614ab8850e4351716899ee)
REM
REM compiler GCC version 9.2.1 20190827 (Red Hat 9.2.1-1)
REM options -cpp -mtune=generic -march=x86-64 -g -O0 -fpre-include=/usr/include/finclude/math-vector-fortran.h
REM seed -743930382 -503675670 -333512063 743810873 1762943758 -771376195 825495308 -677910055 226030870 -1547376058 1707164447 -1420814429 464178016 1598177824 -1836538812 68343485 -499902788 -262322221 -2137140345 -1188045276 742406617 160082186 1774743406 1126969933 -252558929 -857920010 1447852822 -1015544340 -1222015466 -828066131 -1859047750 -1491455561 555679012
REM
CELL 1.54180   50.00000   50.00000   50.00000   90.00000   90.00000   90.00000
LATT -1
SFAC C  
C      1  0.5042240000000  0.4390380000000  0.4942030000000 1.0
C      1  0.4479850000000  0.5224540000000  0.4930890000000 1.0
C      1  0.5471050000000  0.5303380000000  0.4929040000000 1.0
C      1  0.4890200000000  0.5212400000000  0.4244690000000 1.0
C      1  0.5163480000000  0.5155850000000  0.4254400000000 1.0
C      1  0.4977410000000  0.4937000000000  0.4267200000000 1.0
C      1  0.5426190000000  0.4528230000000  0.5455550000000 1.0
C      1  0.4458360000000  0.4908390000000  0.5484080000000 1.0
C      1  0.5175060000000  0.5421430000000  0.5456160000000 1.0
C      1  0.4707730000000  0.5392760000000  0.4384110000000 1.0
C      1  0.5610050000000  0.5098900000000  0.4484410000000 1.0
C      1  0.4918000000000  0.4786090000000  0.4497810000000 1.0
C      1  0.4985890000000  0.5238110000000  0.4875650000000 1.0
C      1  0.5241800000000  0.4843050000000  0.4894890000000 1.0
C      1  0.4768040000000  0.4826390000000  0.4791560000000 1.0
C      1  0.4379060000000  0.5318930000000  0.5479110000000 1.0
C      1  0.5591830000000  0.5340680000000  0.5453030000000 1.0
C      1  0.5049850000000  0.4409040000000  0.5525840000000 1.0
C      1  0.5598110000000  0.4671610000000  0.5295310000000 1.0
C      1  0.4471830000000  0.4681930000000  0.5302170000000 1.0
C      1  0.4987880000000  0.5564320000000  0.5281220000000 1.0
C      1  0.5393230000000  0.5247550000000  0.4388850000000 1.0
C      1  0.5037610000000  0.4568770000000  0.4430860000000 1.0
C      1  0.4429960000000  0.5301000000000  0.4407570000000 1.0
C      1  0.5188330000000  0.5132740000000  0.5520860000000 1.0
C      1  0.4964440000000  0.4946450000000  0.5541170000000 1.0
C      1  0.4703740000000  0.5061630000000  0.5555090000000 1.0
C      1  0.4999730000000  0.4695540000000  0.4937490000000 1.0
C      1  0.4748940000000  0.5095100000000  0.4886590000000 1.0
C      1  0.5231840000000  0.5125520000000  0.4930650000000 1.0
C      1  0.5312470000000  0.4337010000000  0.5103480000000 1.0
C      1  0.4282000000000  0.5043020000000  0.5081540000000 1.0
C      1  0.5394110000000  0.5565330000000  0.5066430000000 1.0
C      1  0.5710470000000  0.5137470000000  0.5109610000000 1.0
C      1  0.4767400000000  0.4330460000000  0.5094380000000 1.0
C      1  0.4536170000000  0.5516070000000  0.5066570000000 1.0
C      1  0.4644040000000  0.5360890000000  0.5550430000000 1.0
C      1  0.5487430000000  0.5092960000000  0.5537860000000 1.0
C      1  0.4904150000000  0.4643790000000  0.5508830000000 1.0
C      1  0.5761090000000  0.4977470000000  0.4890430000000 1.0
C      1  0.4583000000000  0.4314060000000  0.4884510000000 1.0
C      1  0.4631900000000  0.5622850000000  0.4828810000000 1.0
C      1  0.4407650000000  0.5257220000000  0.4629490000000 1.0
C      1  0.5518390000000  0.5319180000000  0.4630060000000 1.0
C      1  0.5058090000000  0.4421950000000  0.4635650000000 1.0
C      1  0.5430130000000  0.5552790000000  0.5357580000000 1.0
C      1  0.5279160000000  0.4289640000000  0.5398160000000 1.0
C      1  0.4248450000000  0.5091360000000  0.5368860000000 1.0
C      1  0.5016570000000  0.5510630000000  0.4781160000000 1.0
C      1  0.5482840000000  0.4694960000000  0.4800480000000 1.0
C      1  0.4472780000000  0.4693620000000  0.4789390000000 1.0
C      1  0.4792620000000  0.5587420000000  0.4603380000000 1.0
C      1  0.5681550000000  0.4861540000000  0.4650570000000 1.0
C      1  0.4440870000000  0.4422100000000  0.4715040000000 1.0
C      1  0.5122090000000  0.5639960000000  0.5027880000000 1.0
C      1  0.5522900000000  0.4519980000000  0.5038160000000 1.0
C      1  0.4345010000000  0.4768000000000  0.5046910000000 1.0
C      1  0.5672350000000  0.4959420000000  0.5342810000000 1.0
C      1  0.4703060000000  0.4506580000000  0.5320870000000 1.0
C      1  0.4699520000000  0.5534540000000  0.5312360000000 1.0
END
