TITL C-2441164-471-270 0.0446863935597724 125000 -11597.8003834717 0 0 89 (C1) n - 1
REM
REM in /home/bkarasulu/work/CARBON/AIRSS/Generating-Clusters/ReaxFF-fromJPCA2015/Units_Real/with-SteepDescent/Higher-Symm
REM
REM
REM
REM
REM
REM ./C.cell (1df0a924f5614ab8850e4351716899ee)
REM
REM compiler GCC version 9.2.1 20190827 (Red Hat 9.2.1-1)
REM options -cpp -mtune=generic -march=x86-64 -g -O0 -fpre-include=/usr/include/finclude/math-vector-fortran.h
REM seed -1494492844 529169462 -206613919 -824987113 -1007638597 918646488 562832224 -1998995232 -397480194 1295368784 1700175312 -1958875341 -1938626999 -851739967 -578216783 558206579 1293741096 -22669451 984675326 -1287716456 -1619443692 -432360624 1278938469 2097818254 -1673859685 -770805072 -474487562 607758544 -788728917 986774956 272114800 666122859 458278842
REM
CELL 1.54180   50.00000   50.00000   50.00000   90.00000   90.00000   90.00000
LATT -1
SFAC C  
C      1  0.4864690000000  0.4496570000000  0.5063390000000 1.0
C      1  0.5451770000000  0.4697670000000  0.5008880000000 1.0
C      1  0.5417150000000  0.5381960000000  0.4995070000000 1.0
C      1  0.4768620000000  0.5537350000000  0.5017700000000 1.0
C      1  0.4458330000000  0.4943950000000  0.4986530000000 1.0
C      1  0.5125520000000  0.4486700000000  0.4964080000000 1.0
C      1  0.4541590000000  0.4709900000000  0.4995310000000 1.0
C      1  0.4592120000000  0.5328070000000  0.4998340000000 1.0
C      1  0.5232960000000  0.5560140000000  0.4954880000000 1.0
C      1  0.5540740000000  0.4963580000000  0.4962710000000 1.0
C      1  0.4356290000000  0.4816130000000  0.5470680000000 1.0
C      1  0.4971070000000  0.4374830000000  0.5498980000000 1.0
C      1  0.5623900000000  0.4835640000000  0.5416470000000 1.0
C      1  0.5392800000000  0.5503800000000  0.5470500000000 1.0
C      1  0.4668030000000  0.5452380000000  0.5412930000000 1.0
C      1  0.5643420000000  0.4823040000000  0.4534970000000 1.0
C      1  0.5028190000000  0.4335850000000  0.4514650000000 1.0
C      1  0.4375300000000  0.4790660000000  0.4548560000000 1.0
C      1  0.4589600000000  0.5539840000000  0.4508320000000 1.0
C      1  0.5370340000000  0.5560130000000  0.4527510000000 1.0
C      1  0.5278810000000  0.5756540000000  0.4735190000000 1.0
C      1  0.4419020000000  0.5498070000000  0.4736160000000 1.0
C      1  0.4335340000000  0.4607430000000  0.4766080000000 1.0
C      1  0.5185660000000  0.4278000000000  0.4750830000000 1.0
C      1  0.5754140000000  0.4967310000000  0.4754270000000 1.0
C      1  0.4724790000000  0.5702200000000  0.5249600000000 1.0
C      1  0.5560660000000  0.5461640000000  0.5237570000000 1.0
C      1  0.5662140000000  0.4610560000000  0.5225990000000 1.0
C      1  0.4817460000000  0.4287270000000  0.5272720000000 1.0
C      1  0.4283630000000  0.4960260000000  0.5219690000000 1.0
C      1  0.4836020000000  0.5681480000000  0.4461650000000 1.0
C      1  0.4321140000000  0.5065590000000  0.4504140000000 1.0
C      1  0.4740460000000  0.4372180000000  0.4465570000000 1.0
C      1  0.5522710000000  0.4559790000000  0.4507400000000 1.0
C      1  0.5586590000000  0.5371130000000  0.4491070000000 1.0
C      1  0.5175550000000  0.5660860000000  0.5545260000000 1.0
C      1  0.5698140000000  0.5074730000000  0.5583800000000 1.0
C      1  0.5254350000000  0.4388900000000  0.5548750000000 1.0
C      1  0.4489260000000  0.4560360000000  0.5508600000000 1.0
C      1  0.4411370000000  0.5347190000000  0.5500480000000 1.0
C      1  0.4954880000000  0.4645280000000  0.5606620000000 1.0
C      1  0.5293150000000  0.4858690000000  0.5600840000000 1.0
C      1  0.5228790000000  0.5250940000000  0.5595430000000 1.0
C      1  0.4779720000000  0.5409260000000  0.5681780000000 1.0
C      1  0.4553300000000  0.4943190000000  0.5652510000000 1.0
C      1  0.5077080000000  0.4576260000000  0.4368400000000 1.0
C      1  0.4685200000000  0.4859280000000  0.4429820000000 1.0
C      1  0.4731670000000  0.5283810000000  0.4399320000000 1.0
C      1  0.5190620000000  0.5376530000000  0.4388550000000 1.0
C      1  0.5444450000000  0.4930820000000  0.4363700000000 1.0
C      1  0.4686810000000  0.4690750000000  0.5681450000000 1.0
C      1  0.5212400000000  0.4617950000000  0.5723340000000 1.0
C      1  0.5443180000000  0.5079380000000  0.5713460000000 1.0
C      1  0.5060300000000  0.5459530000000  0.5714780000000 1.0
C      1  0.4566860000000  0.5219330000000  0.5710940000000 1.0
C      1  0.5327520000000  0.4676230000000  0.4324050000000 1.0
C      1  0.4801180000000  0.4619630000000  0.4318730000000 1.0
C      1  0.4543320000000  0.5086020000000  0.4315950000000 1.0
C      1  0.4935700000000  0.5456030000000  0.4309130000000 1.0
C      1  0.5409510000000  0.5202830000000  0.4331660000000 1.0
C      1  0.4774320000000  0.4746540000000  0.5164760000000 1.0
C      1  0.5267120000000  0.4569750000000  0.5195910000000 1.0
C      1  0.5573120000000  0.5031500000000  0.5215140000000 1.0
C      1  0.5036750000000  0.5437130000000  0.5211090000000 1.0
C      1  0.4694670000000  0.5201280000000  0.5244730000000 1.0
C      1  0.5207060000000  0.4738300000000  0.4840490000000 1.0
C      1  0.4745150000000  0.4583160000000  0.4791860000000 1.0
C      1  0.4629010000000  0.5096330000000  0.4828480000000 1.0
C      1  0.4978220000000  0.5496230000000  0.4816970000000 1.0
C      1  0.5322420000000  0.5145880000000  0.4884570000000 1.0
C      1  0.4993370000000  0.5772220000000  0.4712790000000 1.0
C      1  0.4232410000000  0.5283800000000  0.4715650000000 1.0
C      1  0.4521600000000  0.4373730000000  0.4728980000000 1.0
C      1  0.5468310000000  0.4335140000000  0.4710230000000 1.0
C      1  0.5784170000000  0.5254430000000  0.4710160000000 1.0
C      1  0.5002000000000  0.5771210000000  0.5299780000000 1.0
C      1  0.5732090000000  0.5237090000000  0.5320030000000 1.0
C      1  0.5481830000000  0.4382330000000  0.5292930000000 1.0
C      1  0.4533510000000  0.4333380000000  0.5306260000000 1.0
C      1  0.4225300000000  0.5240520000000  0.5280920000000 1.0
C      1  0.5019830000000  0.5881110000000  0.5030100000000 1.0
C      1  0.5526780000000  0.4294510000000  0.4989790000000 1.0
C      1  0.5833500000000  0.5300190000000  0.4980350000000 1.0
C      1  0.4489330000000  0.4312060000000  0.5024320000000 1.0
C      1  0.4184010000000  0.5299470000000  0.5002250000000 1.0
C      1  0.5080380000000  0.4993960000000  0.5470630000000 1.0
C      1  0.4845590000000  0.5040080000000  0.4644240000000 1.0
C      1  0.5072190000000  0.4995830000000  0.4858670000000 1.0
C      1  0.4914160000000  0.4998640000000  0.5224620000000 1.0
END
