TITL C-2441160-1326-1210 0.0200713841964106 125000 -9472.21430747249 0 0 71 (C1) n - 1
REM
REM in /home/bkarasulu/work/CARBON/AIRSS/Generating-Clusters/ReaxFF-fromJPCA2015/Units_Real/with-SteepDescent/Higher-Symm
REM
REM
REM
REM
REM
REM ./C.cell (1df0a924f5614ab8850e4351716899ee)
REM
REM compiler GCC version 9.2.1 20190827 (Red Hat 9.2.1-1)
REM options -cpp -mtune=generic -march=x86-64 -g -O0 -fpre-include=/usr/include/finclude/math-vector-fortran.h
REM seed -150591993 -827812075 -2085669441 1402532351 -2076139441 1285290353 -1729395335 1871073052 945279018 -482931175 -960951857 -2126518870 14335802 1466151410 1348820009 817468955 2023390244 159932594 -1443783987 1629673256 -1585227052 1691021578 980819743 -834756922 -1502406975 1612959513 33606984 759634184 -279778901 -1600374353 -1057307371 -1419638384 1020241077
REM
CELL 1.54180   50.00000   50.00000   50.00000   90.00000   90.00000   90.00000
LATT -1
SFAC C  
C      1  0.5487040000000  0.5047910000000  0.4507180000000 1.0
C      1  0.4781310000000  0.5046840000000  0.5133840000000 1.0
C      1  0.4973140000000  0.5294410000000  0.4785040000000 1.0
C      1  0.4323510000000  0.5156570000000  0.5045200000000 1.0
C      1  0.5339320000000  0.5450700000000  0.5268270000000 1.0
C      1  0.4593100000000  0.4574690000000  0.5339100000000 1.0
C      1  0.5365130000000  0.5172110000000  0.5511580000000 1.0
C      1  0.5251070000000  0.4942260000000  0.5146690000000 1.0
C      1  0.4676540000000  0.5072350000000  0.5444180000000 1.0
C      1  0.4755980000000  0.5549000000000  0.5089940000000 1.0
C      1  0.4946110000000  0.5766830000000  0.4963690000000 1.0
C      1  0.4555560000000  0.5032930000000  0.4975510000000 1.0
C      1  0.4559960000000  0.4970220000000  0.4716810000000 1.0
C      1  0.4890330000000  0.4213500000000  0.5063160000000 1.0
C      1  0.4395280000000  0.5382950000000  0.5581170000000 1.0
C      1  0.4939670000000  0.5381580000000  0.4290510000000 1.0
C      1  0.4452460000000  0.4695620000000  0.4687730000000 1.0
C      1  0.5066380000000  0.5131840000000  0.4214710000000 1.0
C      1  0.4835400000000  0.4343750000000  0.4540620000000 1.0
C      1  0.4371000000000  0.4626170000000  0.4945380000000 1.0
C      1  0.5231370000000  0.4667210000000  0.5559920000000 1.0
C      1  0.5206990000000  0.5493540000000  0.4366980000000 1.0
C      1  0.5450150000000  0.5426540000000  0.4995880000000 1.0
C      1  0.4853100000000  0.4683000000000  0.5708480000000 1.0
C      1  0.4943130000000  0.5738590000000  0.5250660000000 1.0
C      1  0.5161330000000  0.4184370000000  0.4972290000000 1.0
C      1  0.5184090000000  0.5090920000000  0.4761980000000 1.0
C      1  0.4962800000000  0.5420350000000  0.5616100000000 1.0
C      1  0.4910350000000  0.5291750000000  0.5068510000000 1.0
C      1  0.5714990000000  0.4641040000000  0.5224330000000 1.0
C      1  0.5470690000000  0.5160330000000  0.4833280000000 1.0
C      1  0.4678440000000  0.5282820000000  0.4410110000000 1.0
C      1  0.5418910000000  0.4761290000000  0.4526200000000 1.0
C      1  0.4913510000000  0.4908100000000  0.4356130000000 1.0
C      1  0.5755060000000  0.4928800000000  0.5203990000000 1.0
C      1  0.4369910000000  0.5093370000000  0.5488060000000 1.0
C      1  0.4307960000000  0.5386040000000  0.4856600000000 1.0
C      1  0.4779170000000  0.5106820000000  0.4609260000000 1.0
C      1  0.4478860000000  0.5441670000000  0.4621750000000 1.0
C      1  0.5519930000000  0.4964760000000  0.5042230000000 1.0
C      1  0.5022450000000  0.5150110000000  0.5739730000000 1.0
C      1  0.4800710000000  0.4957870000000  0.5708140000000 1.0
C      1  0.4687760000000  0.5376890000000  0.5515640000000 1.0
C      1  0.5628060000000  0.5783820000000  0.4942080000000 1.0
C      1  0.5262720000000  0.5669280000000  0.4591520000000 1.0
C      1  0.5330220000000  0.5212500000000  0.4325760000000 1.0
C      1  0.5103930000000  0.4425980000000  0.4465380000000 1.0
C      1  0.5193490000000  0.5209720000000  0.5276580000000 1.0
C      1  0.4644880000000  0.4986790000000  0.4253920000000 1.0
C      1  0.4524850000000  0.5577920000000  0.4864200000000 1.0
C      1  0.5468200000000  0.5634180000000  0.4814420000000 1.0
C      1  0.5023750000000  0.5613970000000  0.4736570000000 1.0
C      1  0.4701090000000  0.4531090000000  0.4717880000000 1.0
C      1  0.5230060000000  0.4427460000000  0.5117870000000 1.0
C      1  0.5273980000000  0.4376940000000  0.4721050000000 1.0
C      1  0.5514150000000  0.4553220000000  0.4725260000000 1.0
C      1  0.5467950000000  0.4504700000000  0.5265580000000 1.0
C      1  0.5127770000000  0.4590800000000  0.4900260000000 1.0
C      1  0.4997380000000  0.4481890000000  0.5586680000000 1.0
C      1  0.5109490000000  0.4756390000000  0.5316510000000 1.0
C      1  0.5112360000000  0.5583900000000  0.5424750000000 1.0
C      1  0.4248770000000  0.4972120000000  0.5255290000000 1.0
C      1  0.4747170000000  0.4251780000000  0.4813560000000 1.0
C      1  0.4338330000000  0.4679060000000  0.5216230000000 1.0
C      1  0.4815030000000  0.4371450000000  0.5339320000000 1.0
C      1  0.5251910000000  0.4973760000000  0.5671980000000 1.0
C      1  0.5604420000000  0.4514160000000  0.4998580000000 1.0
C      1  0.5157230000000  0.4697010000000  0.4410920000000 1.0
C      1  0.5823740000000  0.5074690000000  0.5423460000000 1.0
C      1  0.4846150000000  0.4665110000000  0.5227270000000 1.0
C      1  0.5072950000000  0.4871890000000  0.4910540000000 1.0
END
