TITL C-2441154-10-158 0.0297239882667274 125000 -19159.8902175712 0 0 138 (C1) n - 1
REM
REM in /home/bkarasulu/work/CARBON/AIRSS/Generating-Clusters/ReaxFF-fromJPCA2015/Units_Real/with-SteepDescent/Higher-Symm
REM
REM
REM
REM
REM
REM ./C.cell (1df0a924f5614ab8850e4351716899ee)
REM
REM compiler GCC version 9.2.1 20190827 (Red Hat 9.2.1-1)
REM options -cpp -mtune=generic -march=x86-64 -g -O0 -fpre-include=/usr/include/finclude/math-vector-fortran.h
REM seed -1593657856 -1931642253 -1304351757 -1812376443 -1134173624 690252800 -151078498 1439007104 734415457 -1520116258 63829742 985149042 -177321037 -1586020524 -848500908 -2092275495 -655324382 -607482013 111300151 972537809 -14738049 -115367246 -1196177636 1966062488 1366047271 1818088700 198498270 1051287062 -828188218 2024270713 1560682274 742897451 -842175404
REM
CELL 1.54180   50.00000   50.00000   50.00000   90.00000   90.00000   90.00000
LATT -1
SFAC C  
C      1  0.4817390000000  0.4191340000000  0.4849120000000 1.0
C      1  0.4757930000000  0.5853510000000  0.4897780000000 1.0
C      1  0.5414740000000  0.5442400000000  0.5547780000000 1.0
C      1  0.5455210000000  0.4511270000000  0.5625640000000 1.0
C      1  0.5668000000000  0.4527120000000  0.5033580000000 1.0
C      1  0.5578720000000  0.5466210000000  0.4993900000000 1.0
C      1  0.5038830000000  0.5740060000000  0.5450900000000 1.0
C      1  0.4974280000000  0.4255310000000  0.5499730000000 1.0
C      1  0.5421890000000  0.5321630000000  0.4325020000000 1.0
C      1  0.5362240000000  0.4721770000000  0.4349860000000 1.0
C      1  0.4790970000000  0.4695430000000  0.5624940000000 1.0
C      1  0.4867560000000  0.5380510000000  0.5549020000000 1.0
C      1  0.4497800000000  0.5446590000000  0.4302190000000 1.0
C      1  0.4468010000000  0.4606040000000  0.4437390000000 1.0
C      1  0.5326720000000  0.5722160000000  0.5497090000000 1.0
C      1  0.5519130000000  0.4254320000000  0.5540510000000 1.0
C      1  0.4292990000000  0.5645820000000  0.4757830000000 1.0
C      1  0.4309120000000  0.4349830000000  0.4732590000000 1.0
C      1  0.5160720000000  0.4442020000000  0.5636920000000 1.0
C      1  0.5190870000000  0.5288520000000  0.5413310000000 1.0
C      1  0.4899360000000  0.5372610000000  0.5833030000000 1.0
C      1  0.4922220000000  0.4512420000000  0.5816040000000 1.0
C      1  0.5374520000000  0.5807100000000  0.5235720000000 1.0
C      1  0.5378610000000  0.4180480000000  0.5357750000000 1.0
C      1  0.4199320000000  0.5376520000000  0.5205440000000 1.0
C      1  0.4165430000000  0.4578430000000  0.5215490000000 1.0
C      1  0.4326770000000  0.4485310000000  0.4993530000000 1.0
C      1  0.4350950000000  0.5527500000000  0.5013740000000 1.0
C      1  0.4588830000000  0.5321280000000  0.5436460000000 1.0
C      1  0.4571780000000  0.4725570000000  0.5434940000000 1.0
C      1  0.4898080000000  0.5623430000000  0.5671000000000 1.0
C      1  0.4781600000000  0.4289360000000  0.5702880000000 1.0
C      1  0.4688190000000  0.4415770000000  0.4446190000000 1.0
C      1  0.4735370000000  0.5582750000000  0.4411540000000 1.0
C      1  0.4921440000000  0.4607940000000  0.4447610000000 1.0
C      1  0.4964560000000  0.5405560000000  0.4403090000000 1.0
C      1  0.5274650000000  0.4296780000000  0.4493920000000 1.0
C      1  0.5316280000000  0.5752790000000  0.4550970000000 1.0
C      1  0.4326480000000  0.4773300000000  0.5655460000000 1.0
C      1  0.4385560000000  0.5332860000000  0.5648810000000 1.0
C      1  0.4595170000000  0.4257080000000  0.4679660000000 1.0
C      1  0.4498250000000  0.5861190000000  0.4769160000000 1.0
C      1  0.5309830000000  0.5856910000000  0.4816800000000 1.0
C      1  0.5303660000000  0.4215720000000  0.4920830000000 1.0
C      1  0.5587120000000  0.4656920000000  0.4497540000000 1.0
C      1  0.5654510000000  0.5468180000000  0.4421470000000 1.0
C      1  0.4888340000000  0.5449160000000  0.4973750000000 1.0
C      1  0.4819370000000  0.4549840000000  0.5108110000000 1.0
C      1  0.5638870000000  0.4716210000000  0.5488200000000 1.0
C      1  0.5646620000000  0.5295740000000  0.5470600000000 1.0
C      1  0.5177680000000  0.5829390000000  0.5053910000000 1.0
C      1  0.5181830000000  0.4154610000000  0.5158670000000 1.0
C      1  0.5537350000000  0.4383760000000  0.4589910000000 1.0
C      1  0.5600260000000  0.5698940000000  0.4580950000000 1.0
C      1  0.4333750000000  0.4591390000000  0.5438590000000 1.0
C      1  0.4352350000000  0.5483540000000  0.5416760000000 1.0
C      1  0.4579240000000  0.4752180000000  0.4680280000000 1.0
C      1  0.4536000000000  0.5263890000000  0.4666060000000 1.0
C      1  0.4741160000000  0.5806130000000  0.4609860000000 1.0
C      1  0.5097580000000  0.4299410000000  0.4741650000000 1.0
C      1  0.5031330000000  0.4629540000000  0.4717260000000 1.0
C      1  0.5036170000000  0.5246250000000  0.4843970000000 1.0
C      1  0.4919950000000  0.5706100000000  0.5118290000000 1.0
C      1  0.4881500000000  0.4254580000000  0.5127190000000 1.0
C      1  0.5172050000000  0.4499450000000  0.4320600000000 1.0
C      1  0.5225890000000  0.5518920000000  0.4412450000000 1.0
C      1  0.5340390000000  0.5263230000000  0.4886860000000 1.0
C      1  0.5274580000000  0.4767660000000  0.4790130000000 1.0
C      1  0.5566160000000  0.4304720000000  0.4869360000000 1.0
C      1  0.5568960000000  0.5733640000000  0.4884940000000 1.0
C      1  0.4618590000000  0.5345110000000  0.4936430000000 1.0
C      1  0.4585230000000  0.4617980000000  0.4946220000000 1.0
C      1  0.5454830000000  0.4712180000000  0.5010460000000 1.0
C      1  0.5299830000000  0.5173130000000  0.5164710000000 1.0
C      1  0.5743580000000  0.5338160000000  0.5193770000000 1.0
C      1  0.5809380000000  0.4630490000000  0.5274790000000 1.0
C      1  0.4204780000000  0.4511840000000  0.4513530000000 1.0
C      1  0.4339070000000  0.5443700000000  0.4549340000000 1.0
C      1  0.5273080000000  0.4997830000000  0.3684850000000 1.0
C      1  0.4091010000000  0.4890560000000  0.4247190000000 1.0
C      1  0.4322590000000  0.5085560000000  0.6033480000000 1.0
C      1  0.4747450000000  0.5114260000000  0.5855880000000 1.0
C      1  0.6130860000000  0.5018250000000  0.4813010000000 1.0
C      1  0.4457960000000  0.4968010000000  0.6191090000000 1.0
C      1  0.4581590000000  0.5174170000000  0.4189450000000 1.0
C      1  0.4974970000000  0.5114600000000  0.4481100000000 1.0
C      1  0.5009630000000  0.4765740000000  0.5120310000000 1.0
C      1  0.5125690000000  0.5016370000000  0.5517090000000 1.0
C      1  0.5204750000000  0.4815070000000  0.5332960000000 1.0
C      1  0.5405610000000  0.5016750000000  0.4740540000000 1.0
C      1  0.4100600000000  0.4996440000000  0.6030360000000 1.0
C      1  0.3949610000000  0.4956830000000  0.5820230000000 1.0
C      1  0.3948210000000  0.5043400000000  0.4820810000000 1.0
C      1  0.4757150000000  0.4940820000000  0.3808560000000 1.0
C      1  0.5675100000000  0.5193110000000  0.4394420000000 1.0
C      1  0.3938380000000  0.4768980000000  0.5209610000000 1.0
C      1  0.4890720000000  0.4876790000000  0.4062800000000 1.0
C      1  0.4770750000000  0.4981160000000  0.4314900000000 1.0
C      1  0.4259300000000  0.4968120000000  0.4049250000000 1.0
C      1  0.4925700000000  0.4974890000000  0.4923400000000 1.0
C      1  0.4723150000000  0.4992910000000  0.6142010000000 1.0
C      1  0.4907080000000  0.4954290000000  0.5668950000000 1.0
C      1  0.6185180000000  0.4912520000000  0.4602830000000 1.0
C      1  0.3895740000000  0.4913280000000  0.5426430000000 1.0
C      1  0.5368280000000  0.5025310000000  0.3904570000000 1.0
C      1  0.3923200000000  0.4913120000000  0.4615530000000 1.0
C      1  0.5655840000000  0.5009590000000  0.5579370000000 1.0
C      1  0.4028490000000  0.4847210000000  0.5622740000000 1.0
C      1  0.5845800000000  0.4999690000000  0.5812490000000 1.0
C      1  0.3846480000000  0.4926700000000  0.5021210000000 1.0
C      1  0.5278820000000  0.4958110000000  0.6199790000000 1.0
C      1  0.4010250000000  0.4729260000000  0.4456340000000 1.0
C      1  0.5948020000000  0.4921220000000  0.4129560000000 1.0
C      1  0.6017670000000  0.4858540000000  0.5243570000000 1.0
C      1  0.5798500000000  0.5054850000000  0.5118980000000 1.0
C      1  0.4224520000000  0.5019440000000  0.4898220000000 1.0
C      1  0.4277210000000  0.5101170000000  0.5167530000000 1.0
C      1  0.5118840000000  0.5101100000000  0.6025620000000 1.0
C      1  0.5746720000000  0.5059250000000  0.4116490000000 1.0
C      1  0.5442760000000  0.4928580000000  0.5200060000000 1.0
C      1  0.5655160000000  0.4956150000000  0.4617060000000 1.0
C      1  0.4502980000000  0.5063610000000  0.3928190000000 1.0
C      1  0.5355060000000  0.4933560000000  0.5924710000000 1.0
C      1  0.6254160000000  0.4993450000000  0.5720240000000 1.0
C      1  0.5011480000000  0.4979950000000  0.3683720000000 1.0
C      1  0.4676090000000  0.5074450000000  0.5020260000000 1.0
C      1  0.6182300000000  0.4879740000000  0.5001570000000 1.0
C      1  0.5849320000000  0.5041390000000  0.4832000000000 1.0
C      1  0.5624680000000  0.4952160000000  0.5980810000000 1.0
C      1  0.6064170000000  0.4930970000000  0.5578940000000 1.0
C      1  0.5612360000000  0.4981830000000  0.3906950000000 1.0
C      1  0.6100360000000  0.4901280000000  0.4350370000000 1.0
C      1  0.4543460000000  0.5026080000000  0.5274670000000 1.0
C      1  0.4450270000000  0.5075810000000  0.5769200000000 1.0
C      1  0.4432020000000  0.5000590000000  0.4698570000000 1.0
C      1  0.5241180000000  0.5018340000000  0.4363730000000 1.0
C      1  0.5160900000000  0.4968110000000  0.4096900000000 1.0
C      1  0.4984760000000  0.4987140000000  0.6248550000000 1.0
END
