TITL C-2441168-9922-1407 0.0399531969735939 125000 -26027.1214196288 0 0 182 (C1) n - 1
REM
REM in /home/bkarasulu/work/CARBON/AIRSS/Generating-Clusters/ReaxFF-fromJPCA2015/Units_Real/with-SteepDescent/Higher-Symm
REM
REM
REM
REM
REM
REM ./C.cell (1df0a924f5614ab8850e4351716899ee)
REM
REM compiler GCC version 9.2.1 20190827 (Red Hat 9.2.1-1)
REM options -cpp -mtune=generic -march=x86-64 -g -O0 -fpre-include=/usr/include/finclude/math-vector-fortran.h
REM seed 2029555985 919305469 1971606649 -335433742 -963851691 -1544779892 589328756 968083288 -461543009 1091840656 -1295701470 -586307169 1287020673 502543700 1073007093 197900096 -485750769 1970253786 -577895274 345493864 -1993542821 -20421438 621286234 1221849279 1154207532 -1710267175 -458076660 1701467375 555196307 1933478080 -1533095597 -1076549732 -1382395919
REM
CELL 1.54180   50.00000   50.00000   50.00000   90.00000   90.00000   90.00000
LATT -1
SFAC C  
C      1  0.4772410000000  0.5227510000000  0.3964820000000 1.0
C      1  0.4727690000000  0.4407140000000  0.4187760000000 1.0
C      1  0.4783560000000  0.4029950000000  0.4944510000000 1.0
C      1  0.4864140000000  0.4383770000000  0.5603300000000 1.0
C      1  0.4722370000000  0.5256730000000  0.6007900000000 1.0
C      1  0.4741880000000  0.5916440000000  0.5478950000000 1.0
C      1  0.4798880000000  0.5874710000000  0.4703290000000 1.0
C      1  0.4356940000000  0.4139830000000  0.4781820000000 1.0
C      1  0.4358240000000  0.4295510000000  0.5569360000000 1.0
C      1  0.4323570000000  0.5000240000000  0.5863500000000 1.0
C      1  0.4325920000000  0.5719100000000  0.5589870000000 1.0
C      1  0.4344170000000  0.5856690000000  0.4832210000000 1.0
C      1  0.4337520000000  0.5394080000000  0.4173580000000 1.0
C      1  0.4323140000000  0.4642580000000  0.4188300000000 1.0
C      1  0.5896460000000  0.5520960000000  0.4275780000000 1.0
C      1  0.5788940000000  0.4830120000000  0.4357590000000 1.0
C      1  0.5920170000000  0.4393510000000  0.4665630000000 1.0
C      1  0.5725730000000  0.4376710000000  0.5250420000000 1.0
C      1  0.5828080000000  0.4857060000000  0.5612610000000 1.0
C      1  0.5772610000000  0.5526150000000  0.5665570000000 1.0
C      1  0.5910850000000  0.5900460000000  0.5050570000000 1.0
C      1  0.5263980000000  0.4450110000000  0.4682470000000 1.0
C      1  0.5262960000000  0.4192920000000  0.5222580000000 1.0
C      1  0.5228810000000  0.4757200000000  0.5730780000000 1.0
C      1  0.5344150000000  0.5262460000000  0.5611640000000 1.0
C      1  0.5298520000000  0.5706990000000  0.5072910000000 1.0
C      1  0.5260380000000  0.5532620000000  0.4478770000000 1.0
C      1  0.5365750000000  0.4988680000000  0.4256580000000 1.0
C      1  0.4629770000000  0.4198290000000  0.5603870000000 1.0
C      1  0.4588340000000  0.4991780000000  0.6006310000000 1.0
C      1  0.4606040000000  0.5760050000000  0.5665420000000 1.0
C      1  0.4600850000000  0.5978920000000  0.4888630000000 1.0
C      1  0.4615560000000  0.5443150000000  0.4079770000000 1.0
C      1  0.4590020000000  0.4626180000000  0.4083870000000 1.0
C      1  0.4619210000000  0.4025630000000  0.4701450000000 1.0
C      1  0.5179000000000  0.5825730000000  0.5750790000000 1.0
C      1  0.5190470000000  0.6097100000000  0.4863410000000 1.0
C      1  0.5164050000000  0.5567780000000  0.4034460000000 1.0
C      1  0.5161420000000  0.4602180000000  0.3996860000000 1.0
C      1  0.5175600000000  0.3971230000000  0.4683310000000 1.0
C      1  0.5209950000000  0.4081760000000  0.5656520000000 1.0
C      1  0.5119410000000  0.4934150000000  0.6143990000000 1.0
C      1  0.5796540000000  0.5810440000000  0.5220190000000 1.0
C      1  0.5797850000000  0.5684260000000  0.4472550000000 1.0
C      1  0.5650980000000  0.5035840000000  0.4239550000000 1.0
C      1  0.5763690000000  0.4266720000000  0.4456530000000 1.0
C      1  0.5538430000000  0.4204360000000  0.5117940000000 1.0
C      1  0.5715870000000  0.4660670000000  0.5791700000000 1.0
C      1  0.5634540000000  0.5285480000000  0.5694000000000 1.0
C      1  0.4277380000000  0.4542390000000  0.5662210000000 1.0
C      1  0.4339260000000  0.5273180000000  0.5845310000000 1.0
C      1  0.4253280000000  0.5736140000000  0.5316560000000 1.0
C      1  0.4290730000000  0.5721620000000  0.4598980000000 1.0
C      1  0.4263700000000  0.5137670000000  0.4189850000000 1.0
C      1  0.4365030000000  0.4437100000000  0.4371500000000 1.0
C      1  0.4292670000000  0.4171080000000  0.5053180000000 1.0
C      1  0.5638720000000  0.4608600000000  0.4238490000000 1.0
C      1  0.5808780000000  0.4145220000000  0.4705520000000 1.0
C      1  0.5694620000000  0.4287750000000  0.5516900000000 1.0
C      1  0.5637470000000  0.4877880000000  0.5975820000000 1.0
C      1  0.5679560000000  0.5782500000000  0.5707040000000 1.0
C      1  0.5687750000000  0.5984710000000  0.4863920000000 1.0
C      1  0.5632690000000  0.5519410000000  0.4131150000000 1.0
C      1  0.5200930000000  0.5067320000000  0.4010260000000 1.0
C      1  0.5219230000000  0.4279860000000  0.4320820000000 1.0
C      1  0.5162640000000  0.3916890000000  0.5195220000000 1.0
C      1  0.5158740000000  0.4530860000000  0.5911290000000 1.0
C      1  0.5187670000000  0.5352830000000  0.5896370000000 1.0
C      1  0.5205020000000  0.5933630000000  0.5288440000000 1.0
C      1  0.5158400000000  0.5811510000000  0.4429180000000 1.0
C      1  0.4761970000000  0.5530260000000  0.5841480000000 1.0
C      1  0.4754660000000  0.5974000000000  0.5148670000000 1.0
C      1  0.4734790000000  0.5661170000000  0.4232400000000 1.0
C      1  0.4758500000000  0.4923400000000  0.3988380000000 1.0
C      1  0.4759560000000  0.4152720000000  0.4465290000000 1.0
C      1  0.4765220000000  0.4037840000000  0.5407060000000 1.0
C      1  0.4727210000000  0.4742960000000  0.5946400000000 1.0
C      1  0.4823110000000  0.5385680000000  0.5579660000000 1.0
C      1  0.4819090000000  0.5679630000000  0.5079960000000 1.0
C      1  0.4737870000000  0.5625280000000  0.4535230000000 1.0
C      1  0.4820440000000  0.4917440000000  0.4298040000000 1.0
C      1  0.4769100000000  0.4402250000000  0.4639850000000 1.0
C      1  0.4770990000000  0.4223180000000  0.5176030000000 1.0
C      1  0.4757910000000  0.4669910000000  0.5642360000000 1.0
C      1  0.5357850000000  0.4180380000000  0.4717470000000 1.0
C      1  0.5491680000000  0.4158720000000  0.5668450000000 1.0
C      1  0.5344950000000  0.4908480000000  0.5960330000000 1.0
C      1  0.5435040000000  0.5878430000000  0.5622770000000 1.0
C      1  0.5418550000000  0.5932920000000  0.4915500000000 1.0
C      1  0.5369310000000  0.5534850000000  0.4211200000000 1.0
C      1  0.5389440000000  0.4706720000000  0.4149090000000 1.0
C      1  0.5360870000000  0.4741980000000  0.4735880000000 1.0
C      1  0.5458160000000  0.4743640000000  0.5009140000000 1.0
C      1  0.5306660000000  0.4868870000000  0.5236510000000 1.0
C      1  0.5320460000000  0.5155930000000  0.5281290000000 1.0
C      1  0.5376900000000  0.5328630000000  0.5039040000000 1.0
C      1  0.5259200000000  0.5258000000000  0.4767810000000 1.0
C      1  0.5284750000000  0.5005250000000  0.4611290000000 1.0
C      1  0.4078350000000  0.4954540000000  0.4543470000000 1.0
C      1  0.4037330000000  0.4544830000000  0.4766060000000 1.0
C      1  0.3948940000000  0.4381290000000  0.5247200000000 1.0
C      1  0.4044940000000  0.4852490000000  0.5418370000000 1.0
C      1  0.4133150000000  0.5297010000000  0.5441790000000 1.0
C      1  0.3984280000000  0.5488790000000  0.5018220000000 1.0
C      1  0.3951360000000  0.5424070000000  0.4508270000000 1.0
C      1  0.5900690000000  0.4633740000000  0.4838680000000 1.0
C      1  0.5720600000000  0.4642070000000  0.5113870000000 1.0
C      1  0.5846900000000  0.4886430000000  0.5313620000000 1.0
C      1  0.5807670000000  0.5179320000000  0.5214780000000 1.0
C      1  0.5643370000000  0.5233540000000  0.4999600000000 1.0
C      1  0.5769740000000  0.5180080000000  0.4756410000000 1.0
C      1  0.5867870000000  0.4905770000000  0.4634230000000 1.0
C      1  0.5050670000000  0.4078130000000  0.4447130000000 1.0
C      1  0.5039320000000  0.3930250000000  0.5461660000000 1.0
C      1  0.4971380000000  0.4688390000000  0.6083400000000 1.0
C      1  0.5057330000000  0.5606050000000  0.5895350000000 1.0
C      1  0.5042870000000  0.6085350000000  0.5107670000000 1.0
C      1  0.5003700000000  0.5758530000000  0.4185540000000 1.0
C      1  0.5038510000000  0.4850650000000  0.3911620000000 1.0
C      1  0.5001680000000  0.5194720000000  0.6060420000000 1.0
C      1  0.5024870000000  0.5927730000000  0.5522120000000 1.0
C      1  0.5052430000000  0.5982900000000  0.4639340000000 1.0
C      1  0.5050590000000  0.5308040000000  0.3955290000000 1.0
C      1  0.5014290000000  0.4390830000000  0.4137060000000 1.0
C      1  0.5036950000000  0.3888250000000  0.4930990000000 1.0
C      1  0.5061580000000  0.4288100000000  0.5787400000000 1.0
C      1  0.6252440000000  0.4845450000000  0.4784090000000 1.0
C      1  0.6166830000000  0.4675370000000  0.4987920000000 1.0
C      1  0.6144000000000  0.4815260000000  0.5250730000000 1.0
C      1  0.6200850000000  0.5088970000000  0.5251760000000 1.0
C      1  0.6059690000000  0.5290230000000  0.5109940000000 1.0
C      1  0.6033120000000  0.5274310000000  0.4812280000000 1.0
C      1  0.6151420000000  0.5065090000000  0.4643140000000 1.0
C      1  0.5054230000000  0.5689090000000  0.4921010000000 1.0
C      1  0.4993930000000  0.5397700000000  0.4468930000000 1.0
C      1  0.4991560000000  0.4728260000000  0.4418460000000 1.0
C      1  0.5001130000000  0.4429860000000  0.4801970000000 1.0
C      1  0.5044810000000  0.4387480000000  0.5300720000000 1.0
C      1  0.5005010000000  0.4849000000000  0.5576540000000 1.0
C      1  0.5114900000000  0.5430490000000  0.5490980000000 1.0
C      1  0.4176660000000  0.4787980000000  0.5698330000000 1.0
C      1  0.4209240000000  0.5463410000000  0.5697010000000 1.0
C      1  0.4166910000000  0.5719180000000  0.5061410000000 1.0
C      1  0.4191410000000  0.5556830000000  0.4403810000000 1.0
C      1  0.4167440000000  0.4901050000000  0.4256120000000 1.0
C      1  0.4242270000000  0.4359540000000  0.4608050000000 1.0
C      1  0.4197620000000  0.4232360000000  0.5301540000000 1.0
C      1  0.4877730000000  0.4796570000000  0.4725740000000 1.0
C      1  0.4914380000000  0.4638040000000  0.4990830000000 1.0
C      1  0.5096220000000  0.4661720000000  0.5214250000000 1.0
C      1  0.4896420000000  0.5009870000000  0.5360260000000 1.0
C      1  0.4921020000000  0.5219620000000  0.5160570000000 1.0
C      1  0.4964160000000  0.5257790000000  0.4861460000000 1.0
C      1  0.4935210000000  0.5050980000000  0.4670120000000 1.0
C      1  0.4579130000000  0.4682090000000  0.5404730000000 1.0
C      1  0.4673080000000  0.5155690000000  0.5484650000000 1.0
C      1  0.4726680000000  0.5432090000000  0.5184840000000 1.0
C      1  0.4711330000000  0.5428720000000  0.4754310000000 1.0
C      1  0.4709170000000  0.5108820000000  0.4491010000000 1.0
C      1  0.4642310000000  0.4657260000000  0.4627560000000 1.0
C      1  0.4630290000000  0.4550440000000  0.5156030000000 1.0
C      1  0.4430400000000  0.4794110000000  0.4757150000000 1.0
C      1  0.4416210000000  0.4702840000000  0.5026750000000 1.0
C      1  0.4369040000000  0.4842970000000  0.5283410000000 1.0
C      1  0.4416000000000  0.5141660000000  0.5324480000000 1.0
C      1  0.4482470000000  0.5310310000000  0.5099380000000 1.0
C      1  0.4468400000000  0.5291080000000  0.4817770000000 1.0
C      1  0.4452740000000  0.5062520000000  0.4636330000000 1.0
C      1  0.3990600000000  0.4769110000000  0.4706050000000 1.0
C      1  0.3882300000000  0.4521750000000  0.5013270000000 1.0
C      1  0.3888720000000  0.4651490000000  0.5273460000000 1.0
C      1  0.3923680000000  0.5111740000000  0.5408000000000 1.0
C      1  0.3913710000000  0.5347560000000  0.5255450000000 1.0
C      1  0.3883810000000  0.5395430000000  0.4774110000000 1.0
C      1  0.3897400000000  0.5156470000000  0.4612270000000 1.0
C      1  0.5578250000000  0.4110750000000  0.4850320000000 1.0
C      1  0.5568930000000  0.4433460000000  0.5708080000000 1.0
C      1  0.5766220000000  0.5064980000000  0.5795170000000 1.0
C      1  0.5608610000000  0.5682560000000  0.5458200000000 1.0
C      1  0.5692180000000  0.5813090000000  0.4643270000000 1.0
C      1  0.5735250000000  0.5284570000000  0.4265430000000 1.0
C      1  0.5527220000000  0.4354500000000  0.4312180000000 1.0
END
