TITL C-2441162-9305-102 0.0407537110496371 125000 -14098.7954704834 0 0 103 (C1) n - 1
REM
REM in /home/bkarasulu/work/CARBON/AIRSS/Generating-Clusters/ReaxFF-fromJPCA2015/Units_Real/with-SteepDescent/Higher-Symm
REM
REM
REM
REM
REM
REM ./C.cell (1df0a924f5614ab8850e4351716899ee)
REM
REM compiler GCC version 9.2.1 20190827 (Red Hat 9.2.1-1)
REM options -cpp -mtune=generic -march=x86-64 -g -O0 -fpre-include=/usr/include/finclude/math-vector-fortran.h
REM seed -142770009 1086590597 618317833 1813338562 1513646941 26683616 2042262566 493983415 605929352 -147440167 -1010875522 1881267620 -339576157 -1639674904 -1572938439 806775321 2141571001 -124203741 412831389 54054846 -1916005907 -1531169549 -653575879 1680786806 166508318 1113459636 -465867485 -1094470054 -1002576726 -250660990 231678887 -1337391006 -2002132716
REM
CELL 1.54180   50.00000   50.00000   50.00000   90.00000   90.00000   90.00000
LATT -1
SFAC C  
C      1  0.5866160000000  0.4765620000000  0.5246590000000 1.0
C      1  0.5742350000000  0.5159170000000  0.5322090000000 1.0
C      1  0.5727280000000  0.5497980000000  0.4872510000000 1.0
C      1  0.5808340000000  0.5072900000000  0.4586060000000 1.0
C      1  0.5817370000000  0.4558630000000  0.4827650000000 1.0
C      1  0.5087960000000  0.4861670000000  0.4682190000000 1.0
C      1  0.5096230000000  0.4648310000000  0.5131330000000 1.0
C      1  0.5129260000000  0.5028570000000  0.5412950000000 1.0
C      1  0.4982000000000  0.5287650000000  0.5122950000000 1.0
C      1  0.5084300000000  0.5141040000000  0.4707250000000 1.0
C      1  0.4679320000000  0.4612150000000  0.4415170000000 1.0
C      1  0.4696590000000  0.4334360000000  0.5233010000000 1.0
C      1  0.4691420000000  0.5037400000000  0.5757290000000 1.0
C      1  0.4582810000000  0.5873830000000  0.5118230000000 1.0
C      1  0.4587340000000  0.5563800000000  0.4286040000000 1.0
C      1  0.5664960000000  0.5597310000000  0.5125210000000 1.0
C      1  0.5693240000000  0.5330130000000  0.4495040000000 1.0
C      1  0.5706790000000  0.4575690000000  0.4563180000000 1.0
C      1  0.5781000000000  0.4527770000000  0.5103650000000 1.0
C      1  0.5765620000000  0.4914260000000  0.5476600000000 1.0
C      1  0.4806210000000  0.5796940000000  0.5461020000000 1.0
C      1  0.4863450000000  0.5688460000000  0.4367460000000 1.0
C      1  0.4850310000000  0.4653440000000  0.4178260000000 1.0
C      1  0.4879310000000  0.4153280000000  0.5095280000000 1.0
C      1  0.4861800000000  0.4831920000000  0.5887710000000 1.0
C      1  0.5575040000000  0.4851190000000  0.4510600000000 1.0
C      1  0.5512820000000  0.4448540000000  0.4943320000000 1.0
C      1  0.5531240000000  0.4811920000000  0.5587650000000 1.0
C      1  0.5525230000000  0.5389370000000  0.5312570000000 1.0
C      1  0.5543390000000  0.5470120000000  0.4697020000000 1.0
C      1  0.5471930000000  0.5213150000000  0.5755600000000 1.0
C      1  0.5494610000000  0.5806450000000  0.5018700000000 1.0
C      1  0.5519870000000  0.5246610000000  0.4268290000000 1.0
C      1  0.5529910000000  0.4352580000000  0.4503230000000 1.0
C      1  0.5458620000000  0.4361000000000  0.5409090000000 1.0
C      1  0.5439680000000  0.5455860000000  0.5604680000000 1.0
C      1  0.5436110000000  0.5754790000000  0.4733500000000 1.0
C      1  0.5437040000000  0.4970120000000  0.4253730000000 1.0
C      1  0.5439960000000  0.4246760000000  0.4758930000000 1.0
C      1  0.5424460000000  0.4557690000000  0.5620100000000 1.0
C      1  0.4660170000000  0.5308950000000  0.5385590000000 1.0
C      1  0.4756890000000  0.5557530000000  0.4784790000000 1.0
C      1  0.4644460000000  0.5068580000000  0.4340430000000 1.0
C      1  0.4654560000000  0.4385170000000  0.4789120000000 1.0
C      1  0.4748810000000  0.4743690000000  0.5454150000000 1.0
C      1  0.5244370000000  0.4344970000000  0.4409020000000 1.0
C      1  0.5209550000000  0.4229220000000  0.5485790000000 1.0
C      1  0.5232600000000  0.5244830000000  0.5922740000000 1.0
C      1  0.5200330000000  0.5870680000000  0.5059980000000 1.0
C      1  0.5238800000000  0.5328780000000  0.4204870000000 1.0
C      1  0.4422570000000  0.4269730000000  0.4926230000000 1.0
C      1  0.4293970000000  0.4774220000000  0.5580040000000 1.0
C      1  0.4591790000000  0.5587200000000  0.5457010000000 1.0
C      1  0.4441860000000  0.5587790000000  0.4688100000000 1.0
C      1  0.4408490000000  0.4914840000000  0.4270910000000 1.0
C      1  0.4421210000000  0.5676950000000  0.5227830000000 1.0
C      1  0.4373910000000  0.5462740000000  0.4442800000000 1.0
C      1  0.4392010000000  0.4667360000000  0.4470660000000 1.0
C      1  0.4399240000000  0.4367530000000  0.5216530000000 1.0
C      1  0.4418590000000  0.5014500000000  0.5664520000000 1.0
C      1  0.5161020000000  0.4228820000000  0.4667370000000 1.0
C      1  0.5142110000000  0.4465600000000  0.5661270000000 1.0
C      1  0.5179480000000  0.5506830000000  0.5730360000000 1.0
C      1  0.5153370000000  0.5838860000000  0.4769710000000 1.0
C      1  0.5157790000000  0.5045790000000  0.4181000000000 1.0
C      1  0.5061880000000  0.5025360000000  0.5936550000000 1.0
C      1  0.4987050000000  0.5743980000000  0.5215960000000 1.0
C      1  0.5049940000000  0.5463480000000  0.4388940000000 1.0
C      1  0.5083300000000  0.4580920000000  0.4350340000000 1.0
C      1  0.5142710000000  0.4174870000000  0.5209180000000 1.0
C      1  0.4820960000000  0.5535320000000  0.5091350000000 1.0
C      1  0.4904280000000  0.5341960000000  0.4605550000000 1.0
C      1  0.4915240000000  0.4644210000000  0.4584270000000 1.0
C      1  0.4839980000000  0.4586200000000  0.5228650000000 1.0
C      1  0.4835430000000  0.5080140000000  0.5493340000000 1.0
C      1  0.4896830000000  0.4620810000000  0.5679580000000 1.0
C      1  0.4956720000000  0.5641690000000  0.5638590000000 1.0
C      1  0.4899580000000  0.5780270000000  0.4642530000000 1.0
C      1  0.4879480000000  0.4947240000000  0.4211410000000 1.0
C      1  0.4905420000000  0.4238940000000  0.4814940000000 1.0
C      1  0.5303200000000  0.4440400000000  0.5140690000000 1.0
C      1  0.5357450000000  0.5008000000000  0.5585340000000 1.0
C      1  0.5272280000000  0.5327260000000  0.5124320000000 1.0
C      1  0.5327730000000  0.5248930000000  0.4851660000000 1.0
C      1  0.5369390000000  0.4836710000000  0.4729810000000 1.0
C      1  0.4299470000000  0.4524460000000  0.4952040000000 1.0
C      1  0.4148280000000  0.4757090000000  0.5340430000000 1.0
C      1  0.4199540000000  0.5225610000000  0.5235380000000 1.0
C      1  0.4230450000000  0.5454440000000  0.4792950000000 1.0
C      1  0.4284940000000  0.4952510000000  0.4526790000000 1.0
C      1  0.4250720000000  0.5449930000000  0.5069890000000 1.0
C      1  0.4514770000000  0.5107000000000  0.4625710000000 1.0
C      1  0.4508110000000  0.4654010000000  0.4791610000000 1.0
C      1  0.4425810000000  0.4653250000000  0.5357680000000 1.0
C      1  0.4397830000000  0.5196380000000  0.5442410000000 1.0
C      1  0.3857980000000  0.4966140000000  0.4950720000000 1.0
C      1  0.5767310000000  0.5002870000000  0.5071980000000 1.0
C      1  0.5205320000000  0.4905650000000  0.5163200000000 1.0
C      1  0.5434740000000  0.4966730000000  0.4976570000000 1.0
C      1  0.4054530000000  0.4970190000000  0.5135970000000 1.0
C      1  0.4799560000000  0.5092040000000  0.5010660000000 1.0
C      1  0.5964600000000  0.5052060000000  0.4820210000000 1.0
C      1  0.4611620000000  0.4963360000000  0.4866670000000 1.0
END
