TITL C-2441159-1093-350 0.0654750822763316 125000 -24154.8368685765 0 0 177 (C1) n - 1
REM
REM in /home/bkarasulu/work/CARBON/AIRSS/Generating-Clusters/ReaxFF-fromJPCA2015/Units_Real/with-SteepDescent/Higher-Symm
REM
REM
REM
REM
REM
REM ./C.cell (1df0a924f5614ab8850e4351716899ee)
REM
REM compiler GCC version 9.2.1 20190827 (Red Hat 9.2.1-1)
REM options -cpp -mtune=generic -march=x86-64 -g -O0 -fpre-include=/usr/include/finclude/math-vector-fortran.h
REM seed -1671314707 1503538416 1972995063 1291217896 -1159162997 1186543599 1505266176 977409837 -1801456021 -1547680570 883820075 1497675495 533620814 -678610482 1489206495 1726454046 -280404656 1640561550 -805760473 -1893986828 483874083 -2079654593 1777436780 828200625 -238866280 47461981 1235570257 1429248277 -1774157436 698032138 -2111454763 -327815343 1485372416
REM
CELL 1.54180   50.00000   50.00000   50.00000   90.00000   90.00000   90.00000
LATT -1
SFAC C  
C      1  0.5043690000000  0.5367680000000  0.4736840000000 1.0
C      1  0.4634400000000  0.5591900000000  0.4997510000000 1.0
C      1  0.4979370000000  0.5442920000000  0.5287960000000 1.0
C      1  0.5410400000000  0.5409290000000  0.5161820000000 1.0
C      1  0.5125650000000  0.5612120000000  0.4878210000000 1.0
C      1  0.4777190000000  0.4476100000000  0.4764010000000 1.0
C      1  0.4564550000000  0.4580760000000  0.4933760000000 1.0
C      1  0.5023950000000  0.4495750000000  0.5149020000000 1.0
C      1  0.5265650000000  0.4566000000000  0.5265310000000 1.0
C      1  0.5250360000000  0.4489600000000  0.4700910000000 1.0
C      1  0.5042080000000  0.5172830000000  0.3925990000000 1.0
C      1  0.4027390000000  0.5133870000000  0.4565490000000 1.0
C      1  0.4346170000000  0.5145720000000  0.5816060000000 1.0
C      1  0.5551360000000  0.5174580000000  0.5881880000000 1.0
C      1  0.6065500000000  0.5118200000000  0.4723710000000 1.0
C      1  0.5033800000000  0.4875040000000  0.3913770000000 1.0
C      1  0.4032600000000  0.4836740000000  0.4589340000000 1.0
C      1  0.4332940000000  0.4848620000000  0.5829420000000 1.0
C      1  0.5527260000000  0.4829510000000  0.5853600000000 1.0
C      1  0.6041970000000  0.4825490000000  0.4722160000000 1.0
C      1  0.5042100000000  0.4754410000000  0.6026940000000 1.0
C      1  0.6054550000000  0.4772860000000  0.5244270000000 1.0
C      1  0.5569200000000  0.4749400000000  0.4154560000000 1.0
C      1  0.4277270000000  0.4715860000000  0.4164200000000 1.0
C      1  0.3999790000000  0.4728350000000  0.5390180000000 1.0
C      1  0.5065420000000  0.5242670000000  0.6066350000000 1.0
C      1  0.6014440000000  0.5185590000000  0.5278970000000 1.0
C      1  0.5564130000000  0.5248420000000  0.4075380000000 1.0
C      1  0.4350410000000  0.5220850000000  0.4180450000000 1.0
C      1  0.4034930000000  0.5234680000000  0.5362190000000 1.0
C      1  0.5277730000000  0.4372680000000  0.5851180000000 1.0
C      1  0.5874050000000  0.4348050000000  0.5024270000000 1.0
C      1  0.5278530000000  0.4387130000000  0.4197900000000 1.0
C      1  0.4319440000000  0.4392460000000  0.4532150000000 1.0
C      1  0.4261260000000  0.4332600000000  0.5495470000000 1.0
C      1  0.5188910000000  0.5636630000000  0.5800000000000 1.0
C      1  0.5853410000000  0.5597680000000  0.5015740000000 1.0
C      1  0.5276810000000  0.5598720000000  0.4247910000000 1.0
C      1  0.4305630000000  0.5602790000000  0.4453330000000 1.0
C      1  0.4293350000000  0.5630410000000  0.5485930000000 1.0
C      1  0.4302090000000  0.5745190000000  0.4705380000000 1.0
C      1  0.4512830000000  0.5752610000000  0.5615600000000 1.0
C      1  0.5351710000000  0.5710720000000  0.5547780000000 1.0
C      1  0.5727790000000  0.5720450000000  0.4791250000000 1.0
C      1  0.5028410000000  0.5744450000000  0.4282520000000 1.0
C      1  0.4298170000000  0.4216860000000  0.4771070000000 1.0
C      1  0.4508840000000  0.4209630000000  0.5592580000000 1.0
C      1  0.5438680000000  0.4235130000000  0.5636030000000 1.0
C      1  0.5728350000000  0.4210970000000  0.4816680000000 1.0
C      1  0.5034370000000  0.4248820000000  0.4231410000000 1.0
C      1  0.5105400000000  0.4844620000000  0.4311730000000 1.0
C      1  0.4427990000000  0.4915120000000  0.4669750000000 1.0
C      1  0.4454570000000  0.4743540000000  0.5466850000000 1.0
C      1  0.5379520000000  0.4911490000000  0.5607700000000 1.0
C      1  0.5672720000000  0.4802850000000  0.4934000000000 1.0
C      1  0.5125510000000  0.5169590000000  0.4331240000000 1.0
C      1  0.4388870000000  0.5195200000000  0.4758230000000 1.0
C      1  0.4542250000000  0.5284470000000  0.5466260000000 1.0
C      1  0.5239840000000  0.5182930000000  0.5601630000000 1.0
C      1  0.5690310000000  0.5198450000000  0.4850770000000 1.0
C      1  0.4604360000000  0.4840060000000  0.4463930000000 1.0
C      1  0.4412440000000  0.4888550000000  0.5219410000000 1.0
C      1  0.4931860000000  0.4814550000000  0.5553340000000 1.0
C      1  0.5590710000000  0.4930830000000  0.5189750000000 1.0
C      1  0.5440170000000  0.4870540000000  0.4590150000000 1.0
C      1  0.4734170000000  0.5078490000000  0.4464980000000 1.0
C      1  0.4465380000000  0.5192940000000  0.5185020000000 1.0
C      1  0.4960840000000  0.5101230000000  0.5606570000000 1.0
C      1  0.5575750000000  0.5204620000000  0.5257920000000 1.0
C      1  0.5368110000000  0.5126890000000  0.4499670000000 1.0
C      1  0.5941360000000  0.5280790000000  0.4990890000000 1.0
C      1  0.5271620000000  0.5313520000000  0.4072350000000 1.0
C      1  0.4187490000000  0.5324140000000  0.4398090000000 1.0
C      1  0.4248970000000  0.5331060000000  0.5563500000000 1.0
C      1  0.5297260000000  0.5327480000000  0.5906030000000 1.0
C      1  0.5945760000000  0.4673280000000  0.4984360000000 1.0
C      1  0.5277080000000  0.4690540000000  0.4115410000000 1.0
C      1  0.4152290000000  0.4655380000000  0.4412050000000 1.0
C      1  0.4200690000000  0.4635510000000  0.5575570000000 1.0
C      1  0.5302410000000  0.4646850000000  0.5963310000000 1.0
C      1  0.5059110000000  0.4681110000000  0.4539050000000 1.0
C      1  0.4340710000000  0.4658210000000  0.4768940000000 1.0
C      1  0.4630120000000  0.4527480000000  0.5388190000000 1.0
C      1  0.5199670000000  0.4683870000000  0.5529500000000 1.0
C      1  0.5502350000000  0.4569540000000  0.4891960000000 1.0
C      1  0.4981580000000  0.5404230000000  0.4461810000000 1.0
C      1  0.4571670000000  0.5417930000000  0.4758240000000 1.0
C      1  0.4772020000000  0.5450020000000  0.5478520000000 1.0
C      1  0.5258400000000  0.5435010000000  0.5404570000000 1.0
C      1  0.5482030000000  0.5386490000000  0.4781690000000 1.0
C      1  0.5279130000000  0.4073970000000  0.5399990000000 1.0
C      1  0.5435170000000  0.4059210000000  0.4870250000000 1.0
C      1  0.5007130000000  0.4072810000000  0.4509770000000 1.0
C      1  0.4565600000000  0.4048610000000  0.4851860000000 1.0
C      1  0.4722120000000  0.4054620000000  0.5376340000000 1.0
C      1  0.5223430000000  0.5917720000000  0.5308490000000 1.0
C      1  0.5376830000000  0.5786900000000  0.4849320000000 1.0
C      1  0.5022220000000  0.5933700000000  0.4558920000000 1.0
C      1  0.4581230000000  0.5882720000000  0.4867210000000 1.0
C      1  0.4666030000000  0.5917530000000  0.5422890000000 1.0
C      1  0.4713460000000  0.5080720000000  0.5024620000000 1.0
C      1  0.4924590000000  0.5149190000000  0.5217890000000 1.0
C      1  0.5113760000000  0.5008340000000  0.5173330000000 1.0
C      1  0.5270270000000  0.5201950000000  0.4778360000000 1.0
C      1  0.4833050000000  0.5097380000000  0.4747240000000 1.0
C      1  0.4657050000000  0.4812520000000  0.5089710000000 1.0
C      1  0.4836050000000  0.4675040000000  0.5271910000000 1.0
C      1  0.5311310000000  0.4858050000000  0.5123690000000 1.0
C      1  0.5262330000000  0.4909740000000  0.4816240000000 1.0
C      1  0.4974950000000  0.4832390000000  0.4765950000000 1.0
C      1  0.4071440000000  0.4652830000000  0.4870070000000 1.0
C      1  0.4549620000000  0.4663530000000  0.5890330000000 1.0
C      1  0.5708280000000  0.4653080000000  0.5670730000000 1.0
C      1  0.5898460000000  0.4640560000000  0.4551360000000 1.0
C      1  0.4831980000000  0.4686070000000  0.3988530000000 1.0
C      1  0.4089860000000  0.5296900000000  0.4827800000000 1.0
C      1  0.4560740000000  0.5323530000000  0.5893150000000 1.0
C      1  0.5707040000000  0.5350900000000  0.5717460000000 1.0
C      1  0.5884050000000  0.5288490000000  0.4563730000000 1.0
C      1  0.4826750000000  0.5349580000000  0.4022200000000 1.0
C      1  0.5205880000000  0.4028630000000  0.4708710000000 1.0
C      1  0.4796580000000  0.4014980000000  0.4691910000000 1.0
C      1  0.4691770000000  0.4024710000000  0.5101740000000 1.0
C      1  0.5000770000000  0.4019820000000  0.5378750000000 1.0
C      1  0.5324590000000  0.4035290000000  0.5123140000000 1.0
C      1  0.5222280000000  0.6013610000000  0.4760710000000 1.0
C      1  0.4818640000000  0.5933820000000  0.4723360000000 1.0
C      1  0.4693960000000  0.5997860000000  0.5153450000000 1.0
C      1  0.4952780000000  0.5999660000000  0.5306410000000 1.0
C      1  0.5308230000000  0.5982890000000  0.5043720000000 1.0
C      1  0.5832840000000  0.4338470000000  0.4574280000000 1.0
C      1  0.4833720000000  0.4392370000000  0.4067390000000 1.0
C      1  0.4118360000000  0.4354420000000  0.4938730000000 1.0
C      1  0.4582110000000  0.4355810000000  0.5841290000000 1.0
C      1  0.5676710000000  0.4382420000000  0.5567660000000 1.0
C      1  0.5849850000000  0.5600820000000  0.4560190000000 1.0
C      1  0.4798810000000  0.5625590000000  0.4134810000000 1.0
C      1  0.4082280000000  0.5624190000000  0.4837990000000 1.0
C      1  0.4605280000000  0.5615020000000  0.5865720000000 1.0
C      1  0.5637890000000  0.5643810000000  0.5643620000000 1.0
C      1  0.4853380000000  0.4318900000000  0.5805330000000 1.0
C      1  0.5724010000000  0.4318560000000  0.5270830000000 1.0
C      1  0.5603010000000  0.4284210000000  0.4425840000000 1.0
C      1  0.4641110000000  0.4341460000000  0.4266310000000 1.0
C      1  0.4239650000000  0.4278140000000  0.5203200000000 1.0
C      1  0.4882450000000  0.5702460000000  0.5893670000000 1.0
C      1  0.5739090000000  0.5705100000000  0.5394220000000 1.0
C      1  0.5633370000000  0.5692750000000  0.4398260000000 1.0
C      1  0.4573880000000  0.5659550000000  0.4322430000000 1.0
C      1  0.4168020000000  0.5683900000000  0.5098070000000 1.0
C      1  0.5356020000000  0.4342220000000  0.4458750000000 1.0
C      1  0.4625060000000  0.4372240000000  0.4527200000000 1.0
C      1  0.4503170000000  0.4393080000000  0.5169290000000 1.0
C      1  0.5064840000000  0.4394570000000  0.5651520000000 1.0
C      1  0.5487190000000  0.4417400000000  0.5140080000000 1.0
C      1  0.5426870000000  0.5565260000000  0.4499350000000 1.0
C      1  0.4720090000000  0.5508210000000  0.4520190000000 1.0
C      1  0.4386180000000  0.5658800000000  0.5212940000000 1.0
C      1  0.4937440000000  0.5617780000000  0.5638610000000 1.0
C      1  0.5605780000000  0.5629710000000  0.5170830000000 1.0
C      1  0.5659640000000  0.5199900000000  0.4355940000000 1.0
C      1  0.4647190000000  0.5221620000000  0.4219480000000 1.0
C      1  0.4173460000000  0.5253890000000  0.5114460000000 1.0
C      1  0.4843720000000  0.5168420000000  0.5881050000000 1.0
C      1  0.5782760000000  0.5270960000000  0.5440660000000 1.0
C      1  0.5636610000000  0.4717290000000  0.4441680000000 1.0
C      1  0.4567100000000  0.4770180000000  0.4174480000000 1.0
C      1  0.4108860000000  0.4810590000000  0.5135020000000 1.0
C      1  0.4825230000000  0.4737060000000  0.5829820000000 1.0
C      1  0.5795400000000  0.4796120000000  0.5424390000000 1.0
C      1  0.6035850000000  0.4957170000000  0.5424090000000 1.0
C      1  0.4949330000000  0.5004970000000  0.6108130000000 1.0
C      1  0.5701080000000  0.5001910000000  0.4117660000000 1.0
C      1  0.4367980000000  0.4959620000000  0.4058040000000 1.0
C      1  0.3916360000000  0.4981190000000  0.5293840000000 1.0
C      1  0.5025790000000  0.4404660000000  0.4882430000000 1.0
C      1  0.4919180000000  0.5611790000000  0.5065420000000 1.0
END
