TITL C-2441159-1093-91 0.00121526171852482 125000 -6814.2627169839 0 0 53 (C1) n - 1
REM
REM in /home/bkarasulu/work/CARBON/AIRSS/Generating-Clusters/ReaxFF-fromJPCA2015/Units_Real/with-SteepDescent/Higher-Symm
REM
REM
REM
REM
REM
REM ./C.cell (1df0a924f5614ab8850e4351716899ee)
REM
REM compiler GCC version 9.2.1 20190827 (Red Hat 9.2.1-1)
REM options -cpp -mtune=generic -march=x86-64 -g -O0 -fpre-include=/usr/include/finclude/math-vector-fortran.h
REM seed 1118912726 1130531590 18003627 -15967167 -864189878 -1840146701 -1441252648 -294582376 -1709614308 -273906241 -832540241 1341855511 -1098591718 1766173728 -1302710203 -615308671 1681694580 -512226632 181452292 1149854061 -1136920046 -169899912 1135286226 -819306816 -1059394603 2129417078 618401682 -1568785545 -628344441 -1891259464 998196210 -1872438245 -1006579292
REM
CELL 1.54180   50.00000   50.00000   50.00000   90.00000   90.00000   90.00000
LATT -1
SFAC C  
C      1  0.5537290000000  0.5042600000000  0.5426080000000 1.0
C      1  0.5074180000000  0.5478190000000  0.5564720000000 1.0
C      1  0.5439870000000  0.5560780000000  0.5018470000000 1.0
C      1  0.4373330000000  0.4934900000000  0.5406160000000 1.0
C      1  0.5567410000000  0.4948580000000  0.4532480000000 1.0
C      1  0.4442740000000  0.5085880000000  0.4519100000000 1.0
C      1  0.4924910000000  0.4557040000000  0.5567760000000 1.0
C      1  0.5035630000000  0.4591480000000  0.4418890000000 1.0
C      1  0.4962880000000  0.5406690000000  0.4412880000000 1.0
C      1  0.4571050000000  0.4376940000000  0.5057550000000 1.0
C      1  0.5403720000000  0.4441670000000  0.4957140000000 1.0
C      1  0.4561970000000  0.5549960000000  0.5011200000000 1.0
C      1  0.4527920000000  0.4811480000000  0.4804310000000 1.0
C      1  0.4815120000000  0.4784820000000  0.4476740000000 1.0
C      1  0.4732750000000  0.4375300000000  0.4806130000000 1.0
C      1  0.5610010000000  0.5219950000000  0.4668940000000 1.0
C      1  0.4328940000000  0.5222680000000  0.5347830000000 1.0
C      1  0.5594020000000  0.4770370000000  0.5319510000000 1.0
C      1  0.5227640000000  0.5307480000000  0.4336420000000 1.0
C      1  0.4788820000000  0.5196450000000  0.5497820000000 1.0
C      1  0.5197710000000  0.4689020000000  0.5621780000000 1.0
C      1  0.5301410000000  0.5600050000000  0.4749240000000 1.0
C      1  0.4707250000000  0.5569480000000  0.5265150000000 1.0
C      1  0.5274580000000  0.4385920000000  0.5219900000000 1.0
C      1  0.5160600000000  0.4449920000000  0.5475050000000 1.0
C      1  0.4433730000000  0.5463110000000  0.5232790000000 1.0
C      1  0.5467960000000  0.5181700000000  0.4421710000000 1.0
C      1  0.4832270000000  0.5469780000000  0.5506860000000 1.0
C      1  0.5184120000000  0.5542790000000  0.4491390000000 1.0
C      1  0.4831410000000  0.4508100000000  0.4575010000000 1.0
C      1  0.5527650000000  0.4524780000000  0.5184540000000 1.0
C      1  0.4502790000000  0.4528950000000  0.4850880000000 1.0
C      1  0.5550350000000  0.5471890000000  0.4782310000000 1.0
C      1  0.4541420000000  0.4857240000000  0.4528590000000 1.0
C      1  0.5441510000000  0.4822930000000  0.5558990000000 1.0
C      1  0.4513070000000  0.5127370000000  0.5535640000000 1.0
C      1  0.4599600000000  0.4448590000000  0.5339810000000 1.0
C      1  0.4486010000000  0.5329600000000  0.4544040000000 1.0
C      1  0.5319990000000  0.4627650000000  0.4462000000000 1.0
C      1  0.5277550000000  0.5446940000000  0.5219880000000 1.0
C      1  0.4600920000000  0.5503430000000  0.4737370000000 1.0
C      1  0.5272600000000  0.4578000000000  0.4750140000000 1.0
C      1  0.5502180000000  0.4713440000000  0.4672300000000 1.0
C      1  0.4501760000000  0.4716500000000  0.5273960000000 1.0
C      1  0.5496460000000  0.5317480000000  0.5343160000000 1.0
C      1  0.4762050000000  0.5320960000000  0.4591400000000 1.0
C      1  0.5311680000000  0.5485950000000  0.5489820000000 1.0
C      1  0.4688880000000  0.4688290000000  0.5480330000000 1.0
C      1  0.4860260000000  0.5183060000000  0.5208250000000 1.0
C      1  0.5233610000000  0.5199660000000  0.4836530000000 1.0
C      1  0.5191110000000  0.4793910000000  0.5219570000000 1.0
C      1  0.4796130000000  0.4911130000000  0.4876130000000 1.0
C      1  0.5032370000000  0.5012610000000  0.5023080000000 1.0
END
