TITL C-2441163-1170-929 -0.00119274578671459 125000 -6285.8663516297 0 0 44 (C1) n - 1
REM
REM in /home/bkarasulu/work/CARBON/AIRSS/Generating-Clusters/ReaxFF-fromJPCA2015/Units_Real/with-SteepDescent/Higher-Symm
REM
REM
REM
REM
REM
REM ./C.cell (1df0a924f5614ab8850e4351716899ee)
REM
REM compiler GCC version 9.2.1 20190827 (Red Hat 9.2.1-1)
REM options -cpp -mtune=generic -march=x86-64 -g -O0 -fpre-include=/usr/include/finclude/math-vector-fortran.h
REM seed -1097292493 648325318 749142139 -80225932 -1659588259 609603923 -1734444916 1006855476 -212648470 -1680346908 -979993755 -1256885232 1536252060 115877360 -1159805116 -1693292724 1059743624 -739664754 1468083427 -581811462 -159235277 -564988940 -978363912 1115758167 407492272 -880484315 -981522128 -1997420747 -1145715007 -670749151 -39516384 -1650318541 -1758406180
REM
CELL 1.54180   50.00000   50.00000   50.00000   90.00000   90.00000   90.00000
LATT -1
SFAC C  
C      1  0.5472610000000  0.5201600000000  0.5378650000000 1.0
C      1  0.5403220000000  0.4714730000000  0.5383210000000 1.0
C      1  0.4953290000000  0.4520050000000  0.5371820000000 1.0
C      1  0.4545050000000  0.4789860000000  0.5375070000000 1.0
C      1  0.4601690000000  0.5278380000000  0.5378240000000 1.0
C      1  0.5075240000000  0.5487200000000  0.5376530000000 1.0
C      1  0.5471510000000  0.4790430000000  0.4620180000000 1.0
C      1  0.5404770000000  0.5276970000000  0.4615610000000 1.0
C      1  0.4954960000000  0.5472520000000  0.4627290000000 1.0
C      1  0.4547740000000  0.5199680000000  0.4626440000000 1.0
C      1  0.4601450000000  0.4713000000000  0.4619820000000 1.0
C      1  0.5074280000000  0.4503470000000  0.4621670000000 1.0
C      1  0.5522380000000  0.4589880000000  0.5128690000000 1.0
C      1  0.4907810000000  0.4366690000000  0.5109960000000 1.0
C      1  0.4388770000000  0.4747180000000  0.5111770000000 1.0
C      1  0.4493990000000  0.5401260000000  0.5135770000000 1.0
C      1  0.5113310000000  0.5630820000000  0.5126120000000 1.0
C      1  0.5626380000000  0.5239150000000  0.5114430000000 1.0
C      1  0.5526230000000  0.5401800000000  0.4869210000000 1.0
C      1  0.4909730000000  0.5626580000000  0.4888890000000 1.0
C      1  0.4395460000000  0.5230790000000  0.4893530000000 1.0
C      1  0.4490930000000  0.4589410000000  0.4861240000000 1.0
C      1  0.5110690000000  0.4359710000000  0.4872890000000 1.0
C      1  0.5623390000000  0.4755710000000  0.4886430000000 1.0
C      1  0.5408310000000  0.4963640000000  0.5466400000000 1.0
C      1  0.5165320000000  0.4643940000000  0.5458590000000 1.0
C      1  0.4765160000000  0.4679110000000  0.5463230000000 1.0
C      1  0.4580400000000  0.5029300000000  0.5458510000000 1.0
C      1  0.4864810000000  0.5322660000000  0.5461550000000 1.0
C      1  0.5272240000000  0.5336450000000  0.5463540000000 1.0
C      1  0.5408780000000  0.5028250000000  0.4531720000000 1.0
C      1  0.5166770000000  0.5348220000000  0.4540760000000 1.0
C      1  0.4766350000000  0.5313150000000  0.4538510000000 1.0
C      1  0.4581470000000  0.4962080000000  0.4538400000000 1.0
C      1  0.4863990000000  0.4667570000000  0.4535690000000 1.0
C      1  0.5271540000000  0.4654810000000  0.4536740000000 1.0
C      1  0.5319590000000  0.4471130000000  0.5001520000000 1.0
C      1  0.4390840000000  0.4988560000000  0.5002610000000 1.0
C      1  0.4694640000000  0.5518110000000  0.5003780000000 1.0
C      1  0.5325960000000  0.5521350000000  0.5001060000000 1.0
C      1  0.5625260000000  0.4997550000000  0.5000010000000 1.0
C      1  0.4689200000000  0.4472870000000  0.4996570000000 1.0
C      1  0.4996420000000  0.5024990000000  0.5468750000000 1.0
C      1  0.4997140000000  0.4967390000000  0.4529490000000 1.0
END
