TITL C-2441166-8118-852 0.0255141576883369 125000 -11064.2222818028 0 0 81 (C1) n - 1
REM
REM in /home/bkarasulu/work/CARBON/AIRSS/Generating-Clusters/ReaxFF-fromJPCA2015/Units_Real/with-SteepDescent/Higher-Symm
REM
REM
REM
REM
REM
REM ./C.cell (1df0a924f5614ab8850e4351716899ee)
REM
REM compiler GCC version 9.2.1 20190827 (Red Hat 9.2.1-1)
REM options -cpp -mtune=generic -march=x86-64 -g -O0 -fpre-include=/usr/include/finclude/math-vector-fortran.h
REM seed -1204941032 319043097 18873680 12854002 506516958 -449359558 1884493312 -297455397 423058095 -1287010692 -437822203 2110681658 -1311783486 -660502602 -238536188 1416087619 1045810953 -1314439245 747046484 2072501698 -470833921 616072282 471834447 -973251857 -525823234 -2086405833 -1216953326 -848446176 -127397620 -1006191047 1723451924 512763520 30636008
REM
CELL 1.54180   50.00000   50.00000   50.00000   90.00000   90.00000   90.00000
LATT -1
SFAC C  
C      1  0.5355800000000  0.5376460000000  0.4387240000000 1.0
C      1  0.5448730000000  0.4771350000000  0.4413920000000 1.0
C      1  0.4927910000000  0.4497340000000  0.4403240000000 1.0
C      1  0.4484180000000  0.4908240000000  0.4387390000000 1.0
C      1  0.4748740000000  0.5461380000000  0.4383780000000 1.0
C      1  0.5359500000000  0.4659300000000  0.5575310000000 1.0
C      1  0.5440220000000  0.5221390000000  0.5575860000000 1.0
C      1  0.4907780000000  0.5504060000000  0.5590790000000 1.0
C      1  0.4490050000000  0.5075820000000  0.5602480000000 1.0
C      1  0.4762190000000  0.4536310000000  0.5610470000000 1.0
C      1  0.4678640000000  0.4289310000000  0.4815370000000 1.0
C      1  0.4228300000000  0.5078030000000  0.4814200000000 1.0
C      1  0.4853010000000  0.5751600000000  0.4833740000000 1.0
C      1  0.5680960000000  0.5379550000000  0.4822580000000 1.0
C      1  0.5602680000000  0.4477250000000  0.4810660000000 1.0
C      1  0.4676270000000  0.5720500000000  0.5211830000000 1.0
C      1  0.4212660000000  0.4933590000000  0.5201040000000 1.0
C      1  0.4817360000000  0.4235810000000  0.5209660000000 1.0
C      1  0.5674260000000  0.4581890000000  0.5209100000000 1.0
C      1  0.5581950000000  0.5520450000000  0.5203000000000 1.0
C      1  0.5607210000000  0.5066020000000  0.5407810000000 1.0
C      1  0.5269230000000  0.4423570000000  0.5436050000000 1.0
C      1  0.4533220000000  0.4554940000000  0.5432030000000 1.0
C      1  0.4429100000000  0.5306870000000  0.5436830000000 1.0
C      1  0.5102770000000  0.5625670000000  0.5414920000000 1.0
C      1  0.5658950000000  0.4947740000000  0.4505230000000 1.0
C      1  0.5265140000000  0.5613390000000  0.4523020000000 1.0
C      1  0.4486370000000  0.5445080000000  0.4496490000000 1.0
C      1  0.4418290000000  0.4653250000000  0.4498790000000 1.0
C      1  0.5168520000000  0.4372190000000  0.4515370000000 1.0
C      1  0.4748970000000  0.5044580000000  0.5745720000000 1.0
C      1  0.4959770000000  0.5249600000000  0.5742900000000 1.0
C      1  0.5218390000000  0.5110510000000  0.5735290000000 1.0
C      1  0.5167250000000  0.4822320000000  0.5732400000000 1.0
C      1  0.4876890000000  0.4777640000000  0.5743250000000 1.0
C      1  0.4749260000000  0.4956100000000  0.4253170000000 1.0
C      1  0.4962180000000  0.4756700000000  0.4261580000000 1.0
C      1  0.5215150000000  0.4896920000000  0.4269000000000 1.0
C      1  0.5161670000000  0.5182280000000  0.4255170000000 1.0
C      1  0.4873440000000  0.5219150000000  0.4249630000000 1.0
C      1  0.4744270000000  0.4916000000000  0.5332260000000 1.0
C      1  0.4835310000000  0.5188810000000  0.5334670000000 1.0
C      1  0.5119410000000  0.5214250000000  0.5325460000000 1.0
C      1  0.5173210000000  0.4943890000000  0.5262480000000 1.0
C      1  0.4973030000000  0.4755490000000  0.5338270000000 1.0
C      1  0.4747600000000  0.5081170000000  0.4658030000000 1.0
C      1  0.4831810000000  0.4805260000000  0.4661880000000 1.0
C      1  0.5107210000000  0.4861040000000  0.4740370000000 1.0
C      1  0.5216240000000  0.5107400000000  0.4655270000000 1.0
C      1  0.4980010000000  0.5255520000000  0.4649270000000 1.0
C      1  0.5269300000000  0.5375250000000  0.4962130000000 1.0
C      1  0.5463070000000  0.4855300000000  0.4948430000000 1.0
C      1  0.5007870000000  0.4530080000000  0.4958460000000 1.0
C      1  0.4563820000000  0.4852680000000  0.4957060000000 1.0
C      1  0.4720120000000  0.5365230000000  0.4951860000000 1.0
C      1  0.5282600000000  0.4608170000000  0.5011700000000 1.0
C      1  0.5438570000000  0.5133520000000  0.5026640000000 1.0
C      1  0.5001770000000  0.5434240000000  0.5049890000000 1.0
C      1  0.4562110000000  0.5138890000000  0.5043830000000 1.0
C      1  0.4733730000000  0.4628930000000  0.5028800000000 1.0
C      1  0.4407220000000  0.5155730000000  0.4597710000000 1.0
C      1  0.4963300000000  0.5591520000000  0.4608980000000 1.0
C      1  0.5546970000000  0.5220670000000  0.4606630000000 1.0
C      1  0.5431080000000  0.4506030000000  0.4578790000000 1.0
C      1  0.4672590000000  0.4495410000000  0.4603750000000 1.0
C      1  0.4426700000000  0.4835940000000  0.5413320000000 1.0
C      1  0.4970180000000  0.4406340000000  0.5419330000000 1.0
C      1  0.5586000000000  0.4779510000000  0.5420890000000 1.0
C      1  0.5358770000000  0.5472200000000  0.5410760000000 1.0
C      1  0.4642420000000  0.5514690000000  0.5425960000000 1.0
C      1  0.5429930000000  0.4417450000000  0.5186250000000 1.0
C      1  0.4579310000000  0.4405500000000  0.5181050000000 1.0
C      1  0.4298640000000  0.5211480000000  0.5183610000000 1.0
C      1  0.4970120000000  0.5732960000000  0.5156450000000 1.0
C      1  0.5688770000000  0.5252390000000  0.5144400000000 1.0
C      1  0.5494250000000  0.5571010000000  0.4929320000000 1.0
C      1  0.4608910000000  0.5644840000000  0.4936170000000 1.0
C      1  0.4257350000000  0.4825140000000  0.4937010000000 1.0
C      1  0.4930600000000  0.4238400000000  0.4940630000000 1.0
C      1  0.5718100000000  0.4702330000000  0.4945100000000 1.0
C      1  0.5069010000000  0.4960800000000  0.5000980000000 1.0
END
