TITL C-2441167-4473-883 0.07966734752509 125000 -25466.6089015679 0 0 184 (C1) n - 1
REM
REM in /home/bkarasulu/work/CARBON/AIRSS/Generating-Clusters/ReaxFF-fromJPCA2015/Units_Real/with-SteepDescent/Higher-Symm
REM
REM
REM
REM
REM
REM ./C.cell (1df0a924f5614ab8850e4351716899ee)
REM
REM compiler GCC version 9.2.1 20190827 (Red Hat 9.2.1-1)
REM options -cpp -mtune=generic -march=x86-64 -g -O0 -fpre-include=/usr/include/finclude/math-vector-fortran.h
REM seed 1618285517 1204239860 -1272117514 599491265 1134602304 365058689 -713816276 -1058046731 1494415155 -2044134951 1768416895 932044697 1752719894 -1749757598 2005813995 769816210 487788938 2019776119 1316978514 -547249284 235804838 79275787 874494015 -1347745709 121517811 1709432818 1722128185 -309574812 76280375 -1458742354 1761913033 174054728 -2022046503
REM
CELL 1.54180   50.00000   50.00000   50.00000   90.00000   90.00000   90.00000
LATT -1
SFAC C  
C      1  0.4717680000000  0.4579680000000  0.4030030000000 1.0
C      1  0.5174140000000  0.5403170000000  0.4101760000000 1.0
C      1  0.4675380000000  0.5355860000000  0.4108740000000 1.0
C      1  0.5240950000000  0.4548820000000  0.4006730000000 1.0
C      1  0.4341040000000  0.5246170000000  0.4775890000000 1.0
C      1  0.5682560000000  0.4745720000000  0.4781410000000 1.0
C      1  0.4330150000000  0.4730410000000  0.4737830000000 1.0
C      1  0.5648560000000  0.5286080000000  0.4787940000000 1.0
C      1  0.4579880000000  0.5339780000000  0.5942190000000 1.0
C      1  0.5482750000000  0.4651010000000  0.5921850000000 1.0
C      1  0.4507420000000  0.4640810000000  0.5908590000000 1.0
C      1  0.5444160000000  0.5370370000000  0.5912430000000 1.0
C      1  0.5604390000000  0.5509780000000  0.5720700000000 1.0
C      1  0.4381740000000  0.4458470000000  0.5728410000000 1.0
C      1  0.5608970000000  0.4489570000000  0.5720350000000 1.0
C      1  0.4404100000000  0.5486960000000  0.5772820000000 1.0
C      1  0.3975710000000  0.4822130000000  0.4958290000000 1.0
C      1  0.6049450000000  0.5253830000000  0.5046230000000 1.0
C      1  0.4049670000000  0.5316350000000  0.5142620000000 1.0
C      1  0.5970090000000  0.4844920000000  0.4925030000000 1.0
C      1  0.5344190000000  0.3985600000000  0.4805400000000 1.0
C      1  0.4620280000000  0.6030560000000  0.4873230000000 1.0
C      1  0.5389060000000  0.6007070000000  0.4901060000000 1.0
C      1  0.4590760000000  0.3958850000000  0.4857330000000 1.0
C      1  0.5475450000000  0.5238390000000  0.5325240000000 1.0
C      1  0.4400490000000  0.4680940000000  0.5290640000000 1.0
C      1  0.5641720000000  0.4657640000000  0.5232270000000 1.0
C      1  0.4532050000000  0.5303130000000  0.5296630000000 1.0
C      1  0.5728460000000  0.4663940000000  0.5512980000000 1.0
C      1  0.4212580000000  0.5326210000000  0.5624070000000 1.0
C      1  0.5694040000000  0.5431160000000  0.5454440000000 1.0
C      1  0.4226460000000  0.4577500000000  0.5506850000000 1.0
C      1  0.5385190000000  0.4178930000000  0.5182330000000 1.0
C      1  0.4510620000000  0.5789000000000  0.5205490000000 1.0
C      1  0.5469040000000  0.5861160000000  0.5276870000000 1.0
C      1  0.4519490000000  0.4194420000000  0.5188980000000 1.0
C      1  0.4181870000000  0.4296770000000  0.4819710000000 1.0
C      1  0.5789560000000  0.5716300000000  0.4854300000000 1.0
C      1  0.4180330000000  0.5739190000000  0.4818170000000 1.0
C      1  0.5755810000000  0.4249620000000  0.4875600000000 1.0
C      1  0.4617310000000  0.4106260000000  0.5457370000000 1.0
C      1  0.5368570000000  0.5948590000000  0.5524450000000 1.0
C      1  0.4603610000000  0.5871350000000  0.5463430000000 1.0
C      1  0.5289500000000  0.4143050000000  0.5467260000000 1.0
C      1  0.4760500000000  0.4565840000000  0.4631870000000 1.0
C      1  0.5257220000000  0.5450370000000  0.4618010000000 1.0
C      1  0.4806800000000  0.5370110000000  0.4653380000000 1.0
C      1  0.5253240000000  0.4570420000000  0.4643680000000 1.0
C      1  0.5392400000000  0.5589330000000  0.4200670000000 1.0
C      1  0.4539590000000  0.4398120000000  0.4225090000000 1.0
C      1  0.5445320000000  0.4401860000000  0.4173580000000 1.0
C      1  0.4544830000000  0.5606040000000  0.4216480000000 1.0
C      1  0.4277310000000  0.5528440000000  0.4298320000000 1.0
C      1  0.5621250000000  0.4624890000000  0.4148510000000 1.0
C      1  0.4347440000000  0.4565350000000  0.4264520000000 1.0
C      1  0.5639500000000  0.5475940000000  0.4247390000000 1.0
C      1  0.5837790000000  0.4734090000000  0.4308710000000 1.0
C      1  0.4166170000000  0.5269670000000  0.4341650000000 1.0
C      1  0.5822590000000  0.5271400000000  0.4331940000000 1.0
C      1  0.4176250000000  0.4779190000000  0.4275450000000 1.0
C      1  0.5117340000000  0.4649680000000  0.5108540000000 1.0
C      1  0.4839740000000  0.4945410000000  0.4988100000000 1.0
C      1  0.5135480000000  0.5205220000000  0.5071830000000 1.0
C      1  0.4573340000000  0.4966910000000  0.4996010000000 1.0
C      1  0.4559230000000  0.5426740000000  0.4813550000000 1.0
C      1  0.5438490000000  0.4583260000000  0.4856840000000 1.0
C      1  0.4543060000000  0.4560640000000  0.4814370000000 1.0
C      1  0.5437690000000  0.5475330000000  0.4849250000000 1.0
C      1  0.5233490000000  0.4529840000000  0.6003610000000 1.0
C      1  0.4802770000000  0.5519370000000  0.5998920000000 1.0
C      1  0.5221330000000  0.5535790000000  0.5993770000000 1.0
C      1  0.4755850000000  0.4524450000000  0.5997930000000 1.0
C      1  0.6105590000000  0.4578200000000  0.5021830000000 1.0
C      1  0.3999980000000  0.5480570000000  0.4876190000000 1.0
C      1  0.5968070000000  0.5538050000000  0.5038030000000 1.0
C      1  0.4045280000000  0.4527430000000  0.4985760000000 1.0
C      1  0.5391340000000  0.4283750000000  0.5696030000000 1.0
C      1  0.4606380000000  0.5705770000000  0.5681040000000 1.0
C      1  0.5387490000000  0.5712800000000  0.5661960000000 1.0
C      1  0.4616190000000  0.4285960000000  0.5679590000000 1.0
C      1  0.4766010000000  0.5234090000000  0.4407570000000 1.0
C      1  0.5278690000000  0.4800800000000  0.4477830000000 1.0
C      1  0.4786910000000  0.4790720000000  0.4458750000000 1.0
C      1  0.5271440000000  0.5215210000000  0.4500740000000 1.0
C      1  0.5802730000000  0.5591320000000  0.5249090000000 1.0
C      1  0.4143270000000  0.4483250000000  0.5246860000000 1.0
C      1  0.5847150000000  0.4455500000000  0.5073900000000 1.0
C      1  0.4254230000000  0.5396910000000  0.5340130000000 1.0
C      1  0.4857400000000  0.5767930000000  0.5845270000000 1.0
C      1  0.5152290000000  0.4295440000000  0.5861050000000 1.0
C      1  0.4853920000000  0.4295700000000  0.5853180000000 1.0
C      1  0.5160680000000  0.5777010000000  0.5834070000000 1.0
C      1  0.4751280000000  0.4752480000000  0.5523590000000 1.0
C      1  0.5251390000000  0.5212720000000  0.5518950000000 1.0
C      1  0.4753860000000  0.5222650000000  0.5506400000000 1.0
C      1  0.5235560000000  0.4750860000000  0.5549420000000 1.0
C      1  0.5717900000000  0.4326260000000  0.4595080000000 1.0
C      1  0.4302110000000  0.5713590000000  0.4559500000000 1.0
C      1  0.5673240000000  0.5693160000000  0.4590250000000 1.0
C      1  0.4328000000000  0.4288040000000  0.4578920000000 1.0
C      1  0.4072530000000  0.5238760000000  0.4647550000000 1.0
C      1  0.5796470000000  0.4600690000000  0.4557780000000 1.0
C      1  0.4094200000000  0.4743600000000  0.4563280000000 1.0
C      1  0.5885010000000  0.5279950000000  0.4627230000000 1.0
C      1  0.4569310000000  0.4214240000000  0.4475500000000 1.0
C      1  0.5439840000000  0.5776700000000  0.4452890000000 1.0
C      1  0.4569570000000  0.5775850000000  0.4480110000000 1.0
C      1  0.5491980000000  0.4248350000000  0.4420210000000 1.0
C      1  0.4654230000000  0.5499990000000  0.5080830000000 1.0
C      1  0.5383280000000  0.4515750000000  0.5139570000000 1.0
C      1  0.4608340000000  0.4502660000000  0.5103280000000 1.0
C      1  0.5323360000000  0.5401890000000  0.5113370000000 1.0
C      1  0.4365190000000  0.5910160000000  0.4969050000000 1.0
C      1  0.5573990000000  0.4048290000000  0.4977830000000 1.0
C      1  0.4350410000000  0.4094680000000  0.4952790000000 1.0
C      1  0.5626410000000  0.5889020000000  0.5027710000000 1.0
C      1  0.5292830000000  0.4067730000000  0.4525270000000 1.0
C      1  0.4777590000000  0.5898580000000  0.4665720000000 1.0
C      1  0.5253950000000  0.5875050000000  0.4682230000000 1.0
C      1  0.4759780000000  0.4088260000000  0.4666030000000 1.0
C      1  0.4703670000000  0.5108780000000  0.5792030000000 1.0
C      1  0.5432830000000  0.4864970000000  0.5734630000000 1.0
C      1  0.4548160000000  0.4864890000000  0.5730350000000 1.0
C      1  0.5299660000000  0.5120830000000  0.5799240000000 1.0
C      1  0.5251890000000  0.6023810000000  0.5159990000000 1.0
C      1  0.4768750000000  0.4031950000000  0.5095960000000 1.0
C      1  0.5173090000000  0.4073030000000  0.5014990000000 1.0
C      1  0.4741080000000  0.6032650000000  0.5138610000000 1.0
C      1  0.4955900000000  0.5577560000000  0.5033340000000 1.0
C      1  0.4906120000000  0.4478550000000  0.5067700000000 1.0
C      1  0.4925590000000  0.5734090000000  0.4314020000000 1.0
C      1  0.5039570000000  0.4189730000000  0.4397370000000 1.0
C      1  0.5018460000000  0.5637360000000  0.5305150000000 1.0
C      1  0.5040730000000  0.4285350000000  0.5456330000000 1.0
C      1  0.5916420000000  0.5061700000000  0.5738410000000 1.0
C      1  0.4025420000000  0.4981530000000  0.5757880000000 1.0
C      1  0.5292440000000  0.5005790000000  0.4686110000000 1.0
C      1  0.4628670000000  0.5007680000000  0.4507270000000 1.0
C      1  0.4938850000000  0.4203030000000  0.4942590000000 1.0
C      1  0.5007340000000  0.5792790000000  0.4824560000000 1.0
C      1  0.6055550000000  0.5108600000000  0.4797910000000 1.0
C      1  0.3960400000000  0.4957500000000  0.4703200000000 1.0
C      1  0.4947010000000  0.5436530000000  0.3944010000000 1.0
C      1  0.4962220000000  0.4454650000000  0.3930180000000 1.0
C      1  0.5271200000000  0.4836480000000  0.3962770000000 1.0
C      1  0.4724470000000  0.4874730000000  0.3995510000000 1.0
C      1  0.4993860000000  0.4685060000000  0.5976830000000 1.0
C      1  0.5015910000000  0.5402310000000  0.5854690000000 1.0
C      1  0.5905750000000  0.5027120000000  0.5190800000000 1.0
C      1  0.4093350000000  0.5030980000000  0.5138420000000 1.0
C      1  0.5025970000000  0.5398170000000  0.5529780000000 1.0
C      1  0.4994960000000  0.4585720000000  0.5511640000000 1.0
C      1  0.4984730000000  0.5932680000000  0.5274700000000 1.0
C      1  0.4891260000000  0.4051560000000  0.5389910000000 1.0
C      1  0.5468830000000  0.4883390000000  0.4185530000000 1.0
C      1  0.4537210000000  0.5083500000000  0.4055800000000 1.0
C      1  0.5747660000000  0.5004630000000  0.4244130000000 1.0
C      1  0.4279290000000  0.5051190000000  0.4191900000000 1.0
C      1  0.5611730000000  0.4979770000000  0.5157270000000 1.0
C      1  0.4380510000000  0.4987690000000  0.5215370000000 1.0
C      1  0.5003470000000  0.5544170000000  0.4502540000000 1.0
C      1  0.5008760000000  0.4415230000000  0.4609850000000 1.0
C      1  0.5871460000000  0.4922790000000  0.5526980000000 1.0
C      1  0.4255990000000  0.5026550000000  0.5675540000000 1.0
C      1  0.5551220000000  0.5014010000000  0.4847090000000 1.0
C      1  0.4457950000000  0.4989070000000  0.4737630000000 1.0
C      1  0.4990140000000  0.5024620000000  0.6433590000000 1.0
C      1  0.4992390000000  0.4997580000000  0.2652650000000 1.0
C      1  0.5005510000000  0.4985170000000  0.3637340000000 1.0
C      1  0.4992780000000  0.5005060000000  0.2896130000000 1.0
C      1  0.5000110000000  0.5006080000000  0.3401850000000 1.0
C      1  0.4994340000000  0.5003660000000  0.6916920000000 1.0
C      1  0.4990200000000  0.4986070000000  0.5920310000000 1.0
C      1  0.5035540000000  0.4869650000000  0.4343690000000 1.0
C      1  0.5038920000000  0.4938880000000  0.5199610000000 1.0
C      1  0.4992720000000  0.5012450000000  0.6682370000000 1.0
C      1  0.4991460000000  0.5136370000000  0.4823100000000 1.0
C      1  0.5057920000000  0.5163550000000  0.4307350000000 1.0
C      1  0.4992950000000  0.4996450000000  0.7413570000000 1.0
C      1  0.4854180000000  0.4974990000000  0.5408970000000 1.0
C      1  0.4987840000000  0.5033130000000  0.6198600000000 1.0
C      1  0.5005820000000  0.4960830000000  0.3898010000000 1.0
C      1  0.4995030000000  0.5010780000000  0.3151100000000 1.0
C      1  0.4994200000000  0.4998730000000  0.7172780000000 1.0
END
