TITL C-2441164-471-793 -3.22240365797425e-06 125000 -4547.89280353634 0 0 32 (C1) n - 1
REM
REM in /home/bkarasulu/work/CARBON/AIRSS/Generating-Clusters/ReaxFF-fromJPCA2015/Units_Real/with-SteepDescent/Higher-Symm
REM
REM
REM
REM
REM
REM ./C.cell (1df0a924f5614ab8850e4351716899ee)
REM
REM compiler GCC version 9.2.1 20190827 (Red Hat 9.2.1-1)
REM options -cpp -mtune=generic -march=x86-64 -g -O0 -fpre-include=/usr/include/finclude/math-vector-fortran.h
REM seed -1037920565 -18786787 -1453341797 2007245782 1073264877 970246962 -1935066567 895083576 -271195187 701016434 -775493667 -175901070 -767289036 -1179519350 763271816 1660517504 -681564038 -1730674551 1030455591 -379323202 -228391587 -37876888 1210664318 1293806089 -1747883720 -392523297 -529292320 -1904738184 -1672193853 -291821730 -1356420908 -43504289 -240646418
REM
CELL 1.54180   50.00000   50.00000   50.00000   90.00000   90.00000   90.00000
LATT -1
SFAC C  
C      1  0.4654030000000  0.4863340000000  0.4357200000000 1.0
C      1  0.4665090000000  0.5137820000000  0.5588730000000 1.0
C      1  0.5327830000000  0.4848210000000  0.4406640000000 1.0
C      1  0.5335640000000  0.5147590000000  0.5638170000000 1.0
C      1  0.4659830000000  0.5151370000000  0.4357070000000 1.0
C      1  0.4669670000000  0.4850120000000  0.5589220000000 1.0
C      1  0.5331060000000  0.5138680000000  0.4408810000000 1.0
C      1  0.5337100000000  0.4866920000000  0.5644250000000 1.0
C      1  0.4853090000000  0.5342840000000  0.4419360000000 1.0
C      1  0.4870660000000  0.4659740000000  0.5566780000000 1.0
C      1  0.5131380000000  0.5340260000000  0.4444620000000 1.0
C      1  0.5148290000000  0.4667500000000  0.5593900000000 1.0
C      1  0.4844920000000  0.4657750000000  0.4425900000000 1.0
C      1  0.4866430000000  0.5341720000000  0.5554840000000 1.0
C      1  0.5124080000000  0.4650830000000  0.4445650000000 1.0
C      1  0.5144610000000  0.5341800000000  0.5579100000000 1.0
C      1  0.5394570000000  0.4853590000000  0.5157170000000 1.0
C      1  0.5280040000000  0.5136980000000  0.4887630000000 1.0
C      1  0.4737260000000  0.4854770000000  0.5106280000000 1.0
C      1  0.4607530000000  0.5149050000000  0.4842230000000 1.0
C      1  0.5394260000000  0.5145130000000  0.5150400000000 1.0
C      1  0.5274450000000  0.4852390000000  0.4886850000000 1.0
C      1  0.4732980000000  0.5146150000000  0.5108570000000 1.0
C      1  0.4612220000000  0.4858130000000  0.4839990000000 1.0
C      1  0.5361640000000  0.4709560000000  0.5408460000000 1.0
C      1  0.5308100000000  0.5283800000000  0.4654040000000 1.0
C      1  0.4698930000000  0.4705040000000  0.5351260000000 1.0
C      1  0.4642580000000  0.5296880000000  0.4595430000000 1.0
C      1  0.5358150000000  0.5296810000000  0.5394330000000 1.0
C      1  0.5302280000000  0.4702780000000  0.4650080000000 1.0
C      1  0.4693220000000  0.5286740000000  0.5345570000000 1.0
C      1  0.4638080000000  0.4715730000000  0.4601460000000 1.0
END
