TITL C-2441168-9922-321 0.302144591909023 125000 -18527.2035104713 0 0 185 (C1) n - 1
REM
REM in /home/bkarasulu/work/CARBON/AIRSS/Generating-Clusters/ReaxFF-fromJPCA2015/Units_Real/with-SteepDescent/Higher-Symm
REM
REM
REM
REM
REM
REM ./C.cell (1df0a924f5614ab8850e4351716899ee)
REM
REM compiler GCC version 9.2.1 20190827 (Red Hat 9.2.1-1)
REM options -cpp -mtune=generic -march=x86-64 -g -O0 -fpre-include=/usr/include/finclude/math-vector-fortran.h
REM seed -202648385 1686792517 -1766230740 -159026373 -1019569535 -664020796 -961092917 1531430105 1833718789 526170955 888629210 -1748198935 -302322782 -323147211 1630969367 -138401411 -590757638 987788408 -864995701 578364592 1224341745 773045795 2117882054 -1602912880 2093058945 1895936461 437342034 703614598 1249457624 132331904 -1941749698 -1688504073 -1893893674
REM
CELL 1.54180   50.00000   50.00000   50.00000   90.00000   90.00000   90.00000
LATT -1
SFAC C  
C      1  0.4186260000000  0.4208370000000  0.4887700000000 1.0
C      1  0.5493390000000  0.3969520000000  0.4895040000000 1.0
C      1  0.6122010000000  0.5150990000000  0.4897360000000 1.0
C      1  0.5205780000000  0.6130840000000  0.4885740000000 1.0
C      1  0.4008810000000  0.5539020000000  0.4879730000000 1.0
C      1  0.4195740000000  0.5784260000000  0.4883760000000 1.0
C      1  0.5487640000000  0.6035130000000  0.4889070000000 1.0
C      1  0.6115320000000  0.4850720000000  0.4888010000000 1.0
C      1  0.5213540000000  0.3877170000000  0.4895970000000 1.0
C      1  0.4004650000000  0.4448970000000  0.4892650000000 1.0
C      1  0.4954280000000  0.4417690000000  0.4495490000000 1.0
C      1  0.5541050000000  0.4781110000000  0.4491920000000 1.0
C      1  0.5379380000000  0.5443720000000  0.4495480000000 1.0
C      1  0.4689660000000  0.5496470000000  0.4494500000000 1.0
C      1  0.4430840000000  0.4860370000000  0.4488460000000 1.0
C      1  0.4952880000000  0.5575360000000  0.4495910000000 1.0
C      1  0.5539000000000  0.5223960000000  0.4493040000000 1.0
C      1  0.5379250000000  0.4561440000000  0.4491310000000 1.0
C      1  0.4696140000000  0.4510090000000  0.4494450000000 1.0
C      1  0.4437950000000  0.5132620000000  0.4490180000000 1.0
C      1  0.4890010000000  0.4217890000000  0.4169400000000 1.0
C      1  0.5714620000000  0.4663550000000  0.4174940000000 1.0
C      1  0.5542840000000  0.5572110000000  0.4169770000000 1.0
C      1  0.4618930000000  0.5690670000000  0.4174760000000 1.0
C      1  0.4222830000000  0.4857480000000  0.4166040000000 1.0
C      1  0.4891830000000  0.5778540000000  0.4171270000000 1.0
C      1  0.5711400000000  0.5339980000000  0.4171490000000 1.0
C      1  0.5546860000000  0.4431100000000  0.4171170000000 1.0
C      1  0.4617480000000  0.4308370000000  0.4178470000000 1.0
C      1  0.4225030000000  0.5144110000000  0.4171970000000 1.0
C      1  0.5054890000000  0.4365360000000  0.5803900000000 1.0
C      1  0.5596080000000  0.4857590000000  0.5820220000000 1.0
C      1  0.5326060000000  0.5540350000000  0.5811310000000 1.0
C      1  0.4597140000000  0.5470990000000  0.5815120000000 1.0
C      1  0.4421980000000  0.4763230000000  0.5813120000000 1.0
C      1  0.5047540000000  0.5635580000000  0.5805540000000 1.0
C      1  0.5601160000000  0.5146960000000  0.5813300000000 1.0
C      1  0.5332780000000  0.4447310000000  0.5808560000000 1.0
C      1  0.4602230000000  0.4532620000000  0.5808340000000 1.0
C      1  0.4433180000000  0.5231440000000  0.5808980000000 1.0
C      1  0.4362600000000  0.4370470000000  0.4692920000000 1.0
C      1  0.5400780000000  0.4197290000000  0.4687710000000 1.0
C      1  0.5878880000000  0.5138490000000  0.4694300000000 1.0
C      1  0.5144340000000  0.5889100000000  0.4694300000000 1.0
C      1  0.4205510000000  0.5415670000000  0.4687040000000 1.0
C      1  0.4362050000000  0.5628540000000  0.4687570000000 1.0
C      1  0.5403690000000  0.5807370000000  0.4682890000000 1.0
C      1  0.5882980000000  0.4868910000000  0.4693190000000 1.0
C      1  0.5145740000000  0.4107540000000  0.4702870000000 1.0
C      1  0.4198350000000  0.4582600000000  0.4687800000000 1.0
C      1  0.5970070000000  0.5119770000000  0.5567150000000 1.0
C      1  0.5038320000000  0.5982370000000  0.5486370000000 1.0
C      1  0.4144550000000  0.5467640000000  0.5551380000000 1.0
C      1  0.4296060000000  0.4343960000000  0.5566890000000 1.0
C      1  0.5555130000000  0.4188890000000  0.5482640000000 1.0
C      1  0.5964700000000  0.4836530000000  0.5536660000000 1.0
C      1  0.5033700000000  0.4028000000000  0.5485030000000 1.0
C      1  0.4113950000000  0.4597260000000  0.5547350000000 1.0
C      1  0.4315730000000  0.5701420000000  0.5519870000000 1.0
C      1  0.5519540000000  0.5810230000000  0.5491660000000 1.0
C      1  0.5472580000000  0.4850920000000  0.4207580000000 1.0
C      1  0.5289130000000  0.5398520000000  0.4212280000000 1.0
C      1  0.4705600000000  0.5399390000000  0.4211220000000 1.0
C      1  0.4529560000000  0.4843220000000  0.4207060000000 1.0
C      1  0.5000580000000  0.4506440000000  0.4211590000000 1.0
C      1  0.5471290000000  0.5149200000000  0.4207800000000 1.0
C      1  0.5288700000000  0.4600420000000  0.4205840000000 1.0
C      1  0.4706490000000  0.4601660000000  0.4206790000000 1.0
C      1  0.4532070000000  0.5156300000000  0.4199430000000 1.0
C      1  0.5001970000000  0.5489450000000  0.4209840000000 1.0
C      1  0.4726820000000  0.5356310000000  0.4723910000000 1.0
C      1  0.4575810000000  0.4858820000000  0.4750230000000 1.0
C      1  0.5001390000000  0.4548980000000  0.4760770000000 1.0
C      1  0.5436580000000  0.4867500000000  0.4722300000000 1.0
C      1  0.5269370000000  0.5368610000000  0.4761300000000 1.0
C      1  0.4738590000000  0.4648400000000  0.4714710000000 1.0
C      1  0.4576790000000  0.5144640000000  0.4721250000000 1.0
C      1  0.4998930000000  0.5448650000000  0.4752480000000 1.0
C      1  0.5441460000000  0.5133780000000  0.4746150000000 1.0
C      1  0.5267600000000  0.4643300000000  0.4735750000000 1.0
C      1  0.5395720000000  0.5824840000000  0.5071040000000 1.0
C      1  0.4353180000000  0.5646350000000  0.5089400000000 1.0
C      1  0.4199720000000  0.4568200000000  0.5074200000000 1.0
C      1  0.5162260000000  0.4097600000000  0.5093550000000 1.0
C      1  0.5899120000000  0.4871830000000  0.5090220000000 1.0
C      1  0.5415360000000  0.4185810000000  0.5074950000000 1.0
C      1  0.4356800000000  0.4348360000000  0.5081990000000 1.0
C      1  0.4182550000000  0.5418950000000  0.5083970000000 1.0
C      1  0.5149610000000  0.5917320000000  0.5077400000000 1.0
C      1  0.5897250000000  0.5149650000000  0.5080890000000 1.0
C      1  0.5008660000000  0.4611880000000  0.5655630000000 1.0
C      1  0.5366920000000  0.4874840000000  0.5656750000000 1.0
C      1  0.5236430000000  0.5326400000000  0.5634930000000 1.0
C      1  0.4759720000000  0.5327560000000  0.5614450000000 1.0
C      1  0.4619360000000  0.4875280000000  0.5618130000000 1.0
C      1  0.4998920000000  0.5394710000000  0.5651510000000 1.0
C      1  0.5384700000000  0.5123700000000  0.5622480000000 1.0
C      1  0.5252090000000  0.4668270000000  0.5569530000000 1.0
C      1  0.4771060000000  0.4669420000000  0.5622350000000 1.0
C      1  0.4619240000000  0.5119090000000  0.5620070000000 1.0
C      1  0.4133030000000  0.4745560000000  0.4435220000000 1.0
C      1  0.4971750000000  0.4076860000000  0.4428970000000 1.0
C      1  0.5856740000000  0.4706550000000  0.4448240000000 1.0
C      1  0.5550460000000  0.5725210000000  0.4434020000000 1.0
C      1  0.4479530000000  0.5737290000000  0.4450020000000 1.0
C      1  0.4129720000000  0.5263310000000  0.4442550000000 1.0
C      1  0.4974480000000  0.5930270000000  0.4431100000000 1.0
C      1  0.5854560000000  0.5304660000000  0.4439740000000 1.0
C      1  0.5562110000000  0.4270380000000  0.4434910000000 1.0
C      1  0.4473790000000  0.4253430000000  0.4445900000000 1.0
C      1  0.4798180000000  0.3939920000000  0.4628400000000 1.0
C      1  0.5935930000000  0.4483750000000  0.4655280000000 1.0
C      1  0.5787270000000  0.5740020000000  0.4643960000000 1.0
C      1  0.4545090000000  0.5971070000000  0.4652540000000 1.0
C      1  0.3931940000000  0.4864460000000  0.4648700000000 1.0
C      1  0.4796430000000  0.6057000000000  0.4627660000000 1.0
C      1  0.5941580000000  0.5518690000000  0.4645890000000 1.0
C      1  0.5785260000000  0.4262710000000  0.4640910000000 1.0
C      1  0.4545560000000  0.4026920000000  0.4644730000000 1.0
C      1  0.3933110000000  0.5134800000000  0.4650370000000 1.0
C      1  0.5356280000000  0.5099230000000  0.5138220000000 1.0
C      1  0.4980020000000  0.5372070000000  0.5224210000000 1.0
C      1  0.4576730000000  0.5138830000000  0.5114890000000 1.0
C      1  0.4729940000000  0.4673810000000  0.5098480000000 1.0
C      1  0.5260280000000  0.4654150000000  0.5149930000000 1.0
C      1  0.5412320000000  0.4869690000000  0.5103300000000 1.0
C      1  0.4984770000000  0.4639710000000  0.5212480000000 1.0
C      1  0.4566830000000  0.4879410000000  0.5198010000000 1.0
C      1  0.4745390000000  0.5334770000000  0.5107320000000 1.0
C      1  0.5245270000000  0.5321790000000  0.5192210000000 1.0
C      1  0.4163350000000  0.4833950000000  0.5711660000000 1.0
C      1  0.4891710000000  0.4156230000000  0.5689810000000 1.0
C      1  0.5754570000000  0.4641080000000  0.5683470000000 1.0
C      1  0.5584620000000  0.5616100000000  0.5701140000000 1.0
C      1  0.4604210000000  0.5736270000000  0.5676440000000 1.0
C      1  0.4173750000000  0.5158700000000  0.5682750000000 1.0
C      1  0.4897030000000  0.5856240000000  0.5704030000000 1.0
C      1  0.5763430000000  0.5361540000000  0.5689110000000 1.0
C      1  0.5587000000000  0.4365500000000  0.5710790000000 1.0
C      1  0.4575420000000  0.4267030000000  0.5674270000000 1.0
C      1  0.4537420000000  0.6013250000000  0.4949710000000 1.0
C      1  0.3892000000000  0.4846180000000  0.4939950000000 1.0
C      1  0.4807390000000  0.3883510000000  0.4970020000000 1.0
C      1  0.5979040000000  0.4462260000000  0.4951810000000 1.0
C      1  0.5816160000000  0.5784310000000  0.4930780000000 1.0
C      1  0.4532680000000  0.3984400000000  0.4948390000000 1.0
C      1  0.3888390000000  0.5146160000000  0.4943620000000 1.0
C      1  0.4805470000000  0.6115810000000  0.4989080000000 1.0
C      1  0.5985610000000  0.5540320000000  0.4942640000000 1.0
C      1  0.5817030000000  0.4218080000000  0.4964490000000 1.0
C      1  0.4605520000000  0.4439860000000  0.4954570000000 1.0
C      1  0.5424130000000  0.4423320000000  0.4911820000000 1.0
C      1  0.5674890000000  0.5226290000000  0.4916030000000 1.0
C      1  0.4991940000000  0.5727440000000  0.4923200000000 1.0
C      1  0.4340510000000  0.5198740000000  0.4948390000000 1.0
C      1  0.4604950000000  0.5553820000000  0.4961330000000 1.0
C      1  0.5428750000000  0.5583890000000  0.4912720000000 1.0
C      1  0.5654600000000  0.4777270000000  0.4941670000000 1.0
C      1  0.4997950000000  0.4277840000000  0.4923520000000 1.0
C      1  0.4321560000000  0.4777740000000  0.4902130000000 1.0
C      1  0.4826040000000  0.6069170000000  0.5277200000000 1.0
C      1  0.3966960000000  0.5136030000000  0.5245880000000 1.0
C      1  0.4577950000000  0.4063700000000  0.5254360000000 1.0
C      1  0.5753970000000  0.4248160000000  0.5256250000000 1.0
C      1  0.5896080000000  0.5518790000000  0.5237380000000 1.0
C      1  0.4832130000000  0.3931670000000  0.5268350000000 1.0
C      1  0.3994010000000  0.4845330000000  0.5242290000000 1.0
C      1  0.4569730000000  0.5926230000000  0.5272720000000 1.0
C      1  0.5718570000000  0.5739120000000  0.5270740000000 1.0
C      1  0.5891820000000  0.4496340000000  0.5259710000000 1.0
C      1  0.4302360000000  0.4852120000000  0.5315080000000 1.0
C      1  0.4928530000000  0.4373850000000  0.5269710000000 1.0
C      1  0.5655740000000  0.4622680000000  0.5387780000000 1.0
C      1  0.5458940000000  0.5467710000000  0.5288080000000 1.0
C      1  0.4693050000000  0.5681590000000  0.5373130000000 1.0
C      1  0.4239410000000  0.5119710000000  0.5391220000000 1.0
C      1  0.4973360000000  0.5639530000000  0.5272170000000 1.0
C      1  0.5698940000000  0.5332090000000  0.5369800000000 1.0
C      1  0.5375730000000  0.4546840000000  0.5357920000000 1.0
C      1  0.4667960000000  0.4316900000000  0.5369340000000 1.0
C      1  0.4396230000000  0.5435710000000  0.5420080000000 1.0
C      1  0.4374260000000  0.4567360000000  0.5419540000000 1.0
C      1  0.5266430000000  0.4219680000000  0.5432380000000 1.0
C      1  0.5219480000000  0.5760750000000  0.5427240000000 1.0
C      1  0.5751770000000  0.5009800000000  0.5413860000000 1.0
END
