TITL C-2441163-1170-538 0.0481346671669879 125000 -16884.8063263985 0 0 123 (C1) n - 1
REM
REM in /home/bkarasulu/work/CARBON/AIRSS/Generating-Clusters/ReaxFF-fromJPCA2015/Units_Real/with-SteepDescent/Higher-Symm
REM
REM
REM
REM
REM
REM ./C.cell (1df0a924f5614ab8850e4351716899ee)
REM
REM compiler GCC version 9.2.1 20190827 (Red Hat 9.2.1-1)
REM options -cpp -mtune=generic -march=x86-64 -g -O0 -fpre-include=/usr/include/finclude/math-vector-fortran.h
REM seed 1589834449 1191901805 -1245330502 379662883 -948319976 1643503725 1104009961 864932746 -374271176 -764985718 -1102085637 -1444734670 -869824938 -1896430088 999090263 -273722107 990272022 -1850653249 -1702668945 1075493457 1495171213 435003738 1190224115 -1576797315 -1380481842 2139875306 526353071 -13553703 -120403915 -2050738115 766728487 -1579298230 969413476
REM
CELL 1.54180   50.00000   50.00000   50.00000   90.00000   90.00000   90.00000
LATT -1
SFAC C  
C      1  0.5128030000000  0.4688180000000  0.5640670000000 1.0
C      1  0.4725500000000  0.4982210000000  0.5660800000000 1.0
C      1  0.5279400000000  0.5266910000000  0.5621380000000 1.0
C      1  0.5148230000000  0.4683360000000  0.4376980000000 1.0
C      1  0.4649720000000  0.5036710000000  0.4394890000000 1.0
C      1  0.5152050000000  0.5207460000000  0.4353490000000 1.0
C      1  0.4859200000000  0.4701540000000  0.5634410000000 1.0
C      1  0.5262440000000  0.4981520000000  0.5630860000000 1.0
C      1  0.4720890000000  0.5268720000000  0.5636290000000 1.0
C      1  0.4856300000000  0.4683870000000  0.4375860000000 1.0
C      1  0.5362500000000  0.5025920000000  0.4392390000000 1.0
C      1  0.4874130000000  0.5212560000000  0.4355470000000 1.0
C      1  0.5251180000000  0.4263050000000  0.5243130000000 1.0
C      1  0.4216070000000  0.5160200000000  0.5198080000000 1.0
C      1  0.5484000000000  0.5595640000000  0.5279340000000 1.0
C      1  0.5238740000000  0.4279620000000  0.4772800000000 1.0
C      1  0.4250380000000  0.5156800000000  0.4738400000000 1.0
C      1  0.5522090000000  0.5591500000000  0.4798640000000 1.0
C      1  0.4750070000000  0.4265630000000  0.5226750000000 1.0
C      1  0.5786460000000  0.5163050000000  0.5188310000000 1.0
C      1  0.4516190000000  0.5589490000000  0.5280420000000 1.0
C      1  0.4734330000000  0.4279330000000  0.4744300000000 1.0
C      1  0.5755240000000  0.5154180000000  0.4727590000000 1.0
C      1  0.4476750000000  0.5593800000000  0.4802310000000 1.0
C      1  0.4287860000000  0.4415370000000  0.4661650000000 1.0
C      1  0.4844360000000  0.5832780000000  0.4663420000000 1.0
C      1  0.5869040000000  0.4659270000000  0.4668310000000 1.0
C      1  0.4313070000000  0.4442150000000  0.5329690000000 1.0
C      1  0.4849150000000  0.5914650000000  0.5333390000000 1.0
C      1  0.5816700000000  0.4728560000000  0.5349750000000 1.0
C      1  0.5705370000000  0.4405250000000  0.4668260000000 1.0
C      1  0.5144830000000  0.5831100000000  0.4661990000000 1.0
C      1  0.4129480000000  0.4671520000000  0.4667970000000 1.0
C      1  0.5688200000000  0.4448550000000  0.5344080000000 1.0
C      1  0.5147550000000  0.5922130000000  0.5331160000000 1.0
C      1  0.4179100000000  0.4722840000000  0.5344760000000 1.0
C      1  0.5266690000000  0.5455930000000  0.5150550000000 1.0
C      1  0.5284900000000  0.4549690000000  0.5146740000000 1.0
C      1  0.4460690000000  0.5001530000000  0.5131540000000 1.0
C      1  0.5265780000000  0.5461830000000  0.4879410000000 1.0
C      1  0.5283110000000  0.4555390000000  0.4869870000000 1.0
C      1  0.4466220000000  0.4978700000000  0.4859490000000 1.0
C      1  0.4738240000000  0.5456030000000  0.5154140000000 1.0
C      1  0.4727600000000  0.4547680000000  0.5136730000000 1.0
C      1  0.5544980000000  0.4995470000000  0.5124630000000 1.0
C      1  0.4736020000000  0.5467860000000  0.4880950000000 1.0
C      1  0.4730400000000  0.4545880000000  0.4867330000000 1.0
C      1  0.5535010000000  0.4983290000000  0.4849950000000 1.0
C      1  0.4068290000000  0.4889060000000  0.4847440000000 1.0
C      1  0.5361810000000  0.5853080000000  0.4864250000000 1.0
C      1  0.5549620000000  0.4249640000000  0.4862020000000 1.0
C      1  0.4066160000000  0.4886880000000  0.5133640000000 1.0
C      1  0.5370920000000  0.5847390000000  0.5157290000000 1.0
C      1  0.5559130000000  0.4252030000000  0.5150110000000 1.0
C      1  0.5928710000000  0.4879010000000  0.4845930000000 1.0
C      1  0.4631240000000  0.5858280000000  0.4867900000000 1.0
C      1  0.4449330000000  0.4254440000000  0.4852110000000 1.0
C      1  0.5938050000000  0.4886260000000  0.5133210000000 1.0
C      1  0.4622350000000  0.5845620000000  0.5161720000000 1.0
C      1  0.4451740000000  0.4257100000000  0.5140280000000 1.0
C      1  0.5385550000000  0.4969690000000  0.4100280000000 1.0
C      1  0.4755050000000  0.4710750000000  0.4096830000000 1.0
C      1  0.4850900000000  0.5320170000000  0.4080200000000 1.0
C      1  0.5337980000000  0.4960860000000  0.5911290000000 1.0
C      1  0.4787940000000  0.4666740000000  0.5921510000000 1.0
C      1  0.4860280000000  0.5358740000000  0.5880840000000 1.0
C      1  0.4616260000000  0.4972370000000  0.4100800000000 1.0
C      1  0.5244120000000  0.4707730000000  0.4096590000000 1.0
C      1  0.5156220000000  0.5313840000000  0.4084620000000 1.0
C      1  0.4626850000000  0.4917910000000  0.5927940000000 1.0
C      1  0.5196990000000  0.4692570000000  0.5914590000000 1.0
C      1  0.5161600000000  0.5338800000000  0.5878470000000 1.0
C      1  0.4280890000000  0.5188220000000  0.5487090000000 1.0
C      1  0.5519600000000  0.5403900000000  0.5500580000000 1.0
C      1  0.5128580000000  0.4388110000000  0.5494440000000 1.0
C      1  0.4443590000000  0.5223470000000  0.4505100000000 1.0
C      1  0.5492720000000  0.5503020000000  0.4512790000000 1.0
C      1  0.5131460000000  0.4402930000000  0.4501620000000 1.0
C      1  0.5721610000000  0.5196690000000  0.5476590000000 1.0
C      1  0.4484970000000  0.5396020000000  0.5503930000000 1.0
C      1  0.4856960000000  0.4378150000000  0.5486620000000 1.0
C      1  0.5564580000000  0.5224260000000  0.4499680000000 1.0
C      1  0.4499180000000  0.5505790000000  0.4515140000000 1.0
C      1  0.4850960000000  0.4394450000000  0.4495850000000 1.0
C      1  0.4864160000000  0.4767200000000  0.5238850000000 1.0
C      1  0.4868960000000  0.5230040000000  0.5256680000000 1.0
C      1  0.5281980000000  0.4999800000000  0.5228140000000 1.0
C      1  0.4866970000000  0.4769350000000  0.4775910000000 1.0
C      1  0.4862730000000  0.5243410000000  0.4775540000000 1.0
C      1  0.5262600000000  0.5004320000000  0.4781320000000 1.0
C      1  0.5139300000000  0.4769330000000  0.5236870000000 1.0
C      1  0.5137530000000  0.5227950000000  0.5244550000000 1.0
C      1  0.4718610000000  0.4999490000000  0.5244710000000 1.0
C      1  0.5133920000000  0.4773810000000  0.4778440000000 1.0
C      1  0.5134600000000  0.5243370000000  0.4771240000000 1.0
C      1  0.4738380000000  0.4999310000000  0.4785580000000 1.0
C      1  0.4866600000000  0.5651820000000  0.5845210000000 1.0
C      1  0.5604550000000  0.4831220000000  0.5819930000000 1.0
C      1  0.4523230000000  0.4529430000000  0.5837760000000 1.0
C      1  0.4850630000000  0.5603830000000  0.4182960000000 1.0
C      1  0.5636830000000  0.4810860000000  0.4148560000000 1.0
C      1  0.4497910000000  0.4569300000000  0.4135600000000 1.0
C      1  0.5160540000000  0.5635030000000  0.5836060000000 1.0
C      1  0.4379120000000  0.4792730000000  0.5815480000000 1.0
C      1  0.5469500000000  0.4569130000000  0.5845810000000 1.0
C      1  0.5140730000000  0.5604830000000  0.4177870000000 1.0
C      1  0.4359480000000  0.4826480000000  0.4153550000000 1.0
C      1  0.5494890000000  0.4553940000000  0.4143470000000 1.0
C      1  0.4725260000000  0.5677740000000  0.4436490000000 1.0
C      1  0.5705350000000  0.4759380000000  0.4439210000000 1.0
C      1  0.4434970000000  0.4518530000000  0.4430190000000 1.0
C      1  0.4861370000000  0.5727720000000  0.5558820000000 1.0
C      1  0.5731320000000  0.4914890000000  0.5567460000000 1.0
C      1  0.4451280000000  0.4455680000000  0.5571110000000 1.0
C      1  0.5262040000000  0.5671830000000  0.4439400000000 1.0
C      1  0.4299870000000  0.4771030000000  0.4442590000000 1.0
C      1  0.5559730000000  0.4507400000000  0.4431890000000 1.0
C      1  0.5148880000000  0.5726420000000  0.5551830000000 1.0
C      1  0.4265270000000  0.4902200000000  0.5565610000000 1.0
C      1  0.5563570000000  0.4480020000000  0.5588840000000 1.0
C      1  0.4233150000000  0.5394930000000  0.4943170000000 1.0
C      1  0.5770570000000  0.5392390000000  0.4934360000000 1.0
C      1  0.5027150000000  0.4175250000000  0.5012020000000 1.0
END
