TITL C-2441161-5029-89 0.00554912573363394 125000 -13477.8880287541 0 0 89 (C1) n - 1
REM
REM in /home/bkarasulu/work/CARBON/AIRSS/Generating-Clusters/ReaxFF-fromJPCA2015/Units_Real/with-SteepDescent/Higher-Symm
REM
REM
REM
REM
REM
REM ./C.cell (1df0a924f5614ab8850e4351716899ee)
REM
REM compiler GCC version 9.2.1 20190827 (Red Hat 9.2.1-1)
REM options -cpp -mtune=generic -march=x86-64 -g -O0 -fpre-include=/usr/include/finclude/math-vector-fortran.h
REM seed -768759892 -793279489 -208126975 -731016599 1851580169 -340930293 554502282 -1979537866 2014079311 -973206193 -411173052 1141135387 -1554928208 -1484445559 -1124684466 -893250841 1514782473 508587325 1880742018 -2020153518 -252994929 -1979244147 -652450012 1472906067 1032995688 338831731 -551266118 -1774992767 1562908237 -245680662 444695699 -1789026722 1867509337
REM
CELL 1.54180   50.00000   50.00000   50.00000   90.00000   90.00000   90.00000
LATT -1
SFAC C  
C      1  0.5466710000000  0.5510060000000  0.5332490000000 1.0
C      1  0.5498270000000  0.4446310000000  0.5304740000000 1.0
C      1  0.5464840000000  0.5013070000000  0.4400350000000 1.0
C      1  0.5600680000000  0.5281710000000  0.4955890000000 1.0
C      1  0.5779070000000  0.4852590000000  0.5337600000000 1.0
C      1  0.5792120000000  0.4719090000000  0.4647790000000 1.0
C      1  0.5867800000000  0.4965190000000  0.4788050000000 1.0
C      1  0.5785460000000  0.5240060000000  0.5183730000000 1.0
C      1  0.5852780000000  0.4808090000000  0.5053930000000 1.0
C      1  0.4960710000000  0.4839520000000  0.5277660000000 1.0
C      1  0.4891130000000  0.4777920000000  0.4796430000000 1.0
C      1  0.4968440000000  0.5267080000000  0.4901080000000 1.0
C      1  0.4442920000000  0.5382660000000  0.4750820000000 1.0
C      1  0.4468480000000  0.5019880000000  0.5447260000000 1.0
C      1  0.4406620000000  0.4570330000000  0.4791650000000 1.0
C      1  0.4257150000000  0.4697790000000  0.5018000000000 1.0
C      1  0.4272820000000  0.5137990000000  0.4754610000000 1.0
C      1  0.4280900000000  0.5143030000000  0.5250480000000 1.0
C      1  0.5158560000000  0.4533630000000  0.5630350000000 1.0
C      1  0.5139940000000  0.4705880000000  0.4288610000000 1.0
C      1  0.5136710000000  0.5773110000000  0.5097350000000 1.0
C      1  0.5356290000000  0.4286810000000  0.4873820000000 1.0
C      1  0.5381210000000  0.5486920000000  0.4437010000000 1.0
C      1  0.5372470000000  0.5263720000000  0.5737670000000 1.0
C      1  0.5759510000000  0.5221120000000  0.4702370000000 1.0
C      1  0.5798490000000  0.5137340000000  0.5442460000000 1.0
C      1  0.5780670000000  0.4568190000000  0.4908430000000 1.0
C      1  0.4918330000000  0.4650540000000  0.5063840000000 1.0
C      1  0.4958710000000  0.5033400000000  0.4660980000000 1.0
C      1  0.4958740000000  0.5329440000000  0.5183720000000 1.0
C      1  0.4782470000000  0.4238280000000  0.5335360000000 1.0
C      1  0.4772400000000  0.5122230000000  0.4213480000000 1.0
C      1  0.4763810000000  0.5643630000000  0.5488940000000 1.0
C      1  0.4428490000000  0.5397620000000  0.5261270000000 1.0
C      1  0.4410060000000  0.4542310000000  0.5207590000000 1.0
C      1  0.4425580000000  0.5027520000000  0.4525410000000 1.0
C      1  0.5164520000000  0.5436150000000  0.4233130000000 1.0
C      1  0.5161370000000  0.5478810000000  0.5785660000000 1.0
C      1  0.5128970000000  0.4141540000000  0.4994470000000 1.0
C      1  0.5171630000000  0.4989050000000  0.4375970000000 1.0
C      1  0.5157570000000  0.5549340000000  0.5311970000000 1.0
C      1  0.5247340000000  0.4353950000000  0.5420300000000 1.0
C      1  0.4859780000000  0.5843070000000  0.5042860000000 1.0
C      1  0.4873910000000  0.4546520000000  0.5711410000000 1.0
C      1  0.4864480000000  0.4626360000000  0.4253700000000 1.0
C      1  0.4721830000000  0.5387400000000  0.5345010000000 1.0
C      1  0.4711310000000  0.4416880000000  0.5105740000000 1.0
C      1  0.4715590000000  0.5116380000000  0.4500360000000 1.0
C      1  0.4938520000000  0.5664250000000  0.4580130000000 1.0
C      1  0.4950630000000  0.5021010000000  0.5797890000000 1.0
C      1  0.4945670000000  0.4365160000000  0.4663370000000 1.0
C      1  0.4862610000000  0.4228990000000  0.4902270000000 1.0
C      1  0.4923510000000  0.5486840000000  0.4366260000000 1.0
C      1  0.4952920000000  0.5295080000000  0.5777520000000 1.0
C      1  0.4670180000000  0.4837570000000  0.4187210000000 1.0
C      1  0.4660200000000  0.5799570000000  0.5260740000000 1.0
C      1  0.4679140000000  0.4380530000000  0.5568120000000 1.0
C      1  0.4701360000000  0.4972280000000  0.5272790000000 1.0
C      1  0.4607740000000  0.4784580000000  0.4821700000000 1.0
C      1  0.4673950000000  0.5256980000000  0.4888020000000 1.0
C      1  0.5340810000000  0.5725700000000  0.4899910000000 1.0
C      1  0.5355400000000  0.4746080000000  0.5648470000000 1.0
C      1  0.5343890000000  0.4573190000000  0.4440390000000 1.0
C      1  0.4747190000000  0.4798610000000  0.5771730000000 1.0
C      1  0.4753660000000  0.4448810000000  0.4461300000000 1.0
C      1  0.4743790000000  0.5760790000000  0.4789160000000 1.0
C      1  0.4475790000000  0.5660230000000  0.4843710000000 1.0
C      1  0.4485810000000  0.4802690000000  0.5642460000000 1.0
C      1  0.4472730000000  0.4531310000000  0.4508420000000 1.0
C      1  0.5571030000000  0.4683910000000  0.5455110000000 1.0
C      1  0.5573660000000  0.4752140000000  0.4452120000000 1.0
C      1  0.5535390000000  0.5573960000000  0.5061120000000 1.0
C      1  0.5239970000000  0.5648270000000  0.4628510000000 1.0
C      1  0.5252400000000  0.4998570000000  0.5753170000000 1.0
C      1  0.5231800000000  0.4505860000000  0.4710890000000 1.0
C      1  0.5228800000000  0.4913400000000  0.5160290000000 1.0
C      1  0.5295920000000  0.4795430000000  0.4901620000000 1.0
C      1  0.5316250000000  0.5080070000000  0.4931060000000 1.0
C      1  0.5064720000000  0.4167430000000  0.5283070000000 1.0
C      1  0.5058820000000  0.5168950000000  0.4164730000000 1.0
C      1  0.5038330000000  0.5649460000000  0.5581250000000 1.0
C      1  0.4432780000000  0.5663520000000  0.5133930000000 1.0
C      1  0.4445350000000  0.4548820000000  0.5495210000000 1.0
C      1  0.4439420000000  0.4780530000000  0.4361130000000 1.0
C      1  0.5577800000000  0.5266170000000  0.4479610000000 1.0
C      1  0.5574910000000  0.5327320000000  0.5534740000000 1.0
C      1  0.5580400000000  0.4385030000000  0.5028370000000 1.0
C      1  0.4614260000000  0.5003270000000  0.4999360000000 1.0
C      1  0.4209790000000  0.4995900000000  0.5006080000000 1.0
END
