TITL C-2441154-10-277 0.000249777355452167 125000 -3899.29813493798 0 0 29 (C1) n - 1
REM
REM in /home/bkarasulu/work/CARBON/AIRSS/Generating-Clusters/ReaxFF-fromJPCA2015/Units_Real/with-SteepDescent/Higher-Symm
REM
REM
REM
REM
REM
REM ./C.cell (1df0a924f5614ab8850e4351716899ee)
REM
REM compiler GCC version 9.2.1 20190827 (Red Hat 9.2.1-1)
REM options -cpp -mtune=generic -march=x86-64 -g -O0 -fpre-include=/usr/include/finclude/math-vector-fortran.h
REM seed 1889594695 -1904780599 -1956592978 617594669 -1360322775 23382261 -62674539 -2055929890 1204906932 947743142 -204198866 412145012 486189681 -1131070134 -805022174 -1445070692 1911436572 -272413691 -2095744949 -137352163 1518074430 1849083976 1163270626 2034027658 -1216534319 588616346 82181635 -55777558 -864156448 1729072393 789317640 355800828 -1646399092
REM
CELL 1.54180   50.00000   50.00000   50.00000   90.00000   90.00000   90.00000
LATT -1
SFAC C  
C      1  0.4640320000000  0.4674410000000  0.4624750000000 1.0
C      1  0.5380950000000  0.5287370000000  0.4562280000000 1.0
C      1  0.5539540000000  0.4522930000000  0.5013390000000 1.0
C      1  0.4505840000000  0.5480330000000  0.5033030000000 1.0
C      1  0.4907840000000  0.4603390000000  0.5599010000000 1.0
C      1  0.5098470000000  0.5415300000000  0.5597520000000 1.0
C      1  0.5253950000000  0.5472600000000  0.5348210000000 1.0
C      1  0.4771140000000  0.4539600000000  0.5342510000000 1.0
C      1  0.5104050000000  0.5113950000000  0.5517980000000 1.0
C      1  0.4895190000000  0.4904730000000  0.5515930000000 1.0
C      1  0.5092650000000  0.5241220000000  0.4706870000000 1.0
C      1  0.4917550000000  0.4777270000000  0.4701200000000 1.0
C      1  0.4989260000000  0.5713780000000  0.5007500000000 1.0
C      1  0.5068190000000  0.4263670000000  0.5025480000000 1.0
C      1  0.5223760000000  0.5189980000000  0.5258810000000 1.0
C      1  0.4787420000000  0.4822940000000  0.5253830000000 1.0
C      1  0.4884110000000  0.5475000000000  0.4682920000000 1.0
C      1  0.5116390000000  0.4549400000000  0.4722460000000 1.0
C      1  0.5475480000000  0.5694500000000  0.4936830000000 1.0
C      1  0.4610510000000  0.4361630000000  0.4904270000000 1.0
C      1  0.5314970000000  0.4403410000000  0.4883210000000 1.0
C      1  0.4717110000000  0.5604760000000  0.4886670000000 1.0
C      1  0.5241760000000  0.5694700000000  0.5126100000000 1.0
C      1  0.4802760000000  0.4318890000000  0.5112920000000 1.0
C      1  0.4910030000000  0.4910430000000  0.5004770000000 1.0
C      1  0.5098620000000  0.5106500000000  0.5010270000000 1.0
C      1  0.4416790000000  0.4503940000000  0.4714570000000 1.0
C      1  0.5507030000000  0.5504000000000  0.4710620000000 1.0
C      1  0.5053680000000  0.5017020000000  0.4514700000000 1.0
END
