TITL C-2441168-9922-623 0.0311584518697299 125000 -18156.6088037354 0 0 127 (C1) n - 1
REM
REM in /home/bkarasulu/work/CARBON/AIRSS/Generating-Clusters/ReaxFF-fromJPCA2015/Units_Real/with-SteepDescent/Higher-Symm
REM
REM
REM
REM
REM
REM ./C.cell (1df0a924f5614ab8850e4351716899ee)
REM
REM compiler GCC version 9.2.1 20190827 (Red Hat 9.2.1-1)
REM options -cpp -mtune=generic -march=x86-64 -g -O0 -fpre-include=/usr/include/finclude/math-vector-fortran.h
REM seed -1863067849 -446558597 186051751 -188781310 -38907960 1995137296 999990797 -1928140139 1792337207 1446927200 171635207 -1121416426 323031613 -111491107 699024996 -233316035 -138081049 1003093075 1506332009 1189148885 -1912507787 -1954414836 638243917 -1547830188 912965114 2129777815 -318603881 -1088902940 1089636305 1626064556 1632045016 -1832976034 1946654522
REM
CELL 1.54180   50.00000   50.00000   50.00000   90.00000   90.00000   90.00000
LATT -1
SFAC C  
C      1  0.4648720000000  0.4675250000000  0.5279800000000 1.0
C      1  0.5480520000000  0.4653310000000  0.5167820000000 1.0
C      1  0.4890410000000  0.4603160000000  0.4556640000000 1.0
C      1  0.5081250000000  0.4793160000000  0.5431890000000 1.0
C      1  0.5465380000000  0.4838390000000  0.4711900000000 1.0
C      1  0.4585960000000  0.4784650000000  0.4849860000000 1.0
C      1  0.4733490000000  0.5216950000000  0.4717300000000 1.0
C      1  0.4885710000000  0.5204810000000  0.5324310000000 1.0
C      1  0.5337740000000  0.5220890000000  0.4902570000000 1.0
C      1  0.5832910000000  0.4541710000000  0.4922020000000 1.0
C      1  0.4466150000000  0.4608540000000  0.4269210000000 1.0
C      1  0.4678870000000  0.4578070000000  0.5718220000000 1.0
C      1  0.4059050000000  0.4768600000000  0.5369120000000 1.0
C      1  0.5761200000000  0.4814540000000  0.5582630000000 1.0
C      1  0.5118000000000  0.4801600000000  0.4032300000000 1.0
C      1  0.5191240000000  0.4347590000000  0.5114470000000 1.0
C      1  0.5025690000000  0.4323390000000  0.4889560000000 1.0
C      1  0.4808780000000  0.4239420000000  0.5047310000000 1.0
C      1  0.4377880000000  0.4886520000000  0.4250300000000 1.0
C      1  0.4684190000000  0.5055610000000  0.5970080000000 1.0
C      1  0.5927130000000  0.4977660000000  0.4676070000000 1.0
C      1  0.4023230000000  0.4928190000000  0.4902620000000 1.0
C      1  0.5391930000000  0.4896540000000  0.5860750000000 1.0
C      1  0.5531140000000  0.4913540000000  0.4260160000000 1.0
C      1  0.5739550000000  0.4355530000000  0.4704840000000 1.0
C      1  0.4383730000000  0.4422310000000  0.4488170000000 1.0
C      1  0.4887400000000  0.4369770000000  0.5759130000000 1.0
C      1  0.5653190000000  0.4509130000000  0.4471540000000 1.0
C      1  0.4193590000000  0.4544900000000  0.4669010000000 1.0
C      1  0.5130040000000  0.4504450000000  0.5861020000000 1.0
C      1  0.5571640000000  0.5384290000000  0.4709220000000 1.0
C      1  0.4457840000000  0.5389650000000  0.4599730000000 1.0
C      1  0.4937370000000  0.5387980000000  0.5617310000000 1.0
C      1  0.5607670000000  0.4436470000000  0.5301360000000 1.0
C      1  0.4854850000000  0.4356990000000  0.4401920000000 1.0
C      1  0.4414320000000  0.4505310000000  0.5306460000000 1.0
C      1  0.5632380000000  0.5296010000000  0.4413790000000 1.0
C      1  0.4212170000000  0.5221410000000  0.4644490000000 1.0
C      1  0.5120350000000  0.5229350000000  0.5794090000000 1.0
C      1  0.4571750000000  0.5905930000000  0.5098700000000 1.0
C      1  0.5365070000000  0.5898190000000  0.5360450000000 1.0
C      1  0.5168230000000  0.5974480000000  0.4521300000000 1.0
C      1  0.5086090000000  0.5639470000000  0.5527080000000 1.0
C      1  0.5400370000000  0.5622350000000  0.4641350000000 1.0
C      1  0.4490500000000  0.5568400000000  0.4846420000000 1.0
C      1  0.4727600000000  0.4534200000000  0.4168290000000 1.0
C      1  0.4408470000000  0.4536870000000  0.5598890000000 1.0
C      1  0.5877660000000  0.4509990000000  0.5205790000000 1.0
C      1  0.5911220000000  0.4774800000000  0.5328240000000 1.0
C      1  0.4829730000000  0.4771640000000  0.4061490000000 1.0
C      1  0.4207280000000  0.4750800000000  0.5631770000000 1.0
C      1  0.5383140000000  0.5112620000000  0.5162170000000 1.0
C      1  0.4900670000000  0.5039310000000  0.4548670000000 1.0
C      1  0.4668650000000  0.4986910000000  0.5286090000000 1.0
C      1  0.5712490000000  0.5609610000000  0.5106060000000 1.0
C      1  0.4781800000000  0.5647030000000  0.4352650000000 1.0
C      1  0.4503520000000  0.5582440000000  0.5530230000000 1.0
C      1  0.5049850000000  0.5894050000000  0.4782430000000 1.0
C      1  0.4795340000000  0.5720780000000  0.5173640000000 1.0
C      1  0.5228910000000  0.5770420000000  0.4987310000000 1.0
C      1  0.4932020000000  0.5404780000000  0.4792630000000 1.0
C      1  0.4906980000000  0.5447500000000  0.5091140000000 1.0
C      1  0.5202440000000  0.5482170000000  0.5086400000000 1.0
C      1  0.5634840000000  0.5064450000000  0.5578050000000 1.0
C      1  0.5152040000000  0.5069040000000  0.4125900000000 1.0
C      1  0.4166150000000  0.4983390000000  0.5475230000000 1.0
C      1  0.4106050000000  0.5208030000000  0.4915080000000 1.0
C      1  0.5416910000000  0.5175550000000  0.5762210000000 1.0
C      1  0.5430960000000  0.5194470000000  0.4207800000000 1.0
C      1  0.4096430000000  0.4727130000000  0.5090480000000 1.0
C      1  0.5561390000000  0.4692280000000  0.5759880000000 1.0
C      1  0.5366900000000  0.4701400000000  0.4168590000000 1.0
C      1  0.5195120000000  0.4210360000000  0.5368940000000 1.0
C      1  0.5220390000000  0.4168700000000  0.4671120000000 1.0
C      1  0.4572010000000  0.4224020000000  0.4877150000000 1.0
C      1  0.5174990000000  0.4291790000000  0.4419900000000 1.0
C      1  0.4381650000000  0.4341710000000  0.5066670000000 1.0
C      1  0.5441350000000  0.4296350000000  0.5501430000000 1.0
C      1  0.5794910000000  0.5420010000000  0.4902350000000 1.0
C      1  0.4523340000000  0.5502590000000  0.4321270000000 1.0
C      1  0.4672300000000  0.5473690000000  0.5728370000000 1.0
C      1  0.5926550000000  0.5146580000000  0.4915890000000 1.0
C      1  0.4537260000000  0.5265080000000  0.4174580000000 1.0
C      1  0.4551350000000  0.5284680000000  0.5898770000000 1.0
C      1  0.5400400000000  0.4458050000000  0.4332130000000 1.0
C      1  0.4307990000000  0.4588070000000  0.4928040000000 1.0
C      1  0.5393140000000  0.4453110000000  0.5741030000000 1.0
C      1  0.5147880000000  0.5468840000000  0.4612040000000 1.0
C      1  0.4488980000000  0.5345570000000  0.5036200000000 1.0
C      1  0.5276360000000  0.5482890000000  0.5373300000000 1.0
C      1  0.4973330000000  0.5043030000000  0.5943070000000 1.0
C      1  0.5867830000000  0.5174470000000  0.4501800000000 1.0
C      1  0.4197410000000  0.4995020000000  0.4463730000000 1.0
C      1  0.5504740000000  0.5444770000000  0.5538250000000 1.0
C      1  0.5212210000000  0.5413220000000  0.4339950000000 1.0
C      1  0.4222870000000  0.5374910000000  0.5136670000000 1.0
C      1  0.5203720000000  0.5881720000000  0.5568930000000 1.0
C      1  0.5421890000000  0.5860680000000  0.4515290000000 1.0
C      1  0.4417410000000  0.5832240000000  0.4884160000000 1.0
C      1  0.5200800000000  0.4644050000000  0.5159000000000 1.0
C      1  0.4925560000000  0.4592690000000  0.4819480000000 1.0
C      1  0.4817340000000  0.4437350000000  0.5264640000000 1.0
C      1  0.4331380000000  0.5390270000000  0.5411520000000 1.0
C      1  0.5721300000000  0.5463580000000  0.5355380000000 1.0
C      1  0.4952950000000  0.5436360000000  0.4240540000000 1.0
C      1  0.5204420000000  0.4975000000000  0.4742640000000 1.0
C      1  0.4601810000000  0.5044660000000  0.4988680000000 1.0
C      1  0.5138410000000  0.5052880000000  0.5316120000000 1.0
C      1  0.4594060000000  0.5005170000000  0.4080320000000 1.0
C      1  0.4456470000000  0.5044340000000  0.5784210000000 1.0
C      1  0.5897660000000  0.5018360000000  0.5177180000000 1.0
C      1  0.4933140000000  0.4281380000000  0.5481260000000 1.0
C      1  0.5491040000000  0.4216460000000  0.4709620000000 1.0
C      1  0.4603180000000  0.4271550000000  0.4591080000000 1.0
C      1  0.5488250000000  0.5823290000000  0.5112110000000 1.0
C      1  0.4889190000000  0.5844130000000  0.4541000000000 1.0
C      1  0.4622750000000  0.5784240000000  0.5379740000000 1.0
C      1  0.5669790000000  0.5153650000000  0.5311040000000 1.0
C      1  0.4915130000000  0.5145500000000  0.4265380000000 1.0
C      1  0.4415030000000  0.5111170000000  0.5487150000000 1.0
C      1  0.4883180000000  0.4765210000000  0.5632200000000 1.0
C      1  0.5604110000000  0.4725090000000  0.4927260000000 1.0
C      1  0.4702800000000  0.4814640000000  0.4581680000000 1.0
C      1  0.5134230000000  0.4793040000000  0.5942440000000 1.0
C      1  0.5674880000000  0.4817810000000  0.4511350000000 1.0
C      1  0.4077190000000  0.4802980000000  0.4642180000000 1.0
C      1  0.5086140000000  0.4782000000000  0.4928110000000 1.0
END
