TITL C-2441161-5029-1455 0.0183276377539298 125000 -13765.8964116757 0 0 97 (C1) n - 1
REM
REM in /home/bkarasulu/work/CARBON/AIRSS/Generating-Clusters/ReaxFF-fromJPCA2015/Units_Real/with-SteepDescent/Higher-Symm
REM
REM
REM
REM
REM
REM ./C.cell (1df0a924f5614ab8850e4351716899ee)
REM
REM compiler GCC version 9.2.1 20190827 (Red Hat 9.2.1-1)
REM options -cpp -mtune=generic -march=x86-64 -g -O0 -fpre-include=/usr/include/finclude/math-vector-fortran.h
REM seed -2144173607 -697520434 -2059842398 135856316 1000412843 -1758654562 -944424230 -1584142725 1186903818 -1605357863 -639164875 1823151600 -1329781087 1134503562 -1409931824 899330348 707282951 -449365910 1634938807 -787894757 902338890 328198667 -236716185 696028574 1372479303 -437661666 1869965597 2051439340 -1763881011 1650806858 323329938 1676184620 211319830
REM
CELL 1.54180   50.00000   50.00000   50.00000   90.00000   90.00000   90.00000
LATT -1
SFAC C  
C      1  0.4853760000000  0.4480280000000  0.5546390000000 1.0
C      1  0.5521810000000  0.4855250000000  0.4446580000000 1.0
C      1  0.4456010000000  0.5533120000000  0.4873360000000 1.0
C      1  0.5164400000000  0.5544740000000  0.5536590000000 1.0
C      1  0.5144540000000  0.4474420000000  0.4440110000000 1.0
C      1  0.4861670000000  0.5533920000000  0.4434340000000 1.0
C      1  0.4475140000000  0.5154410000000  0.4438780000000 1.0
C      1  0.4452140000000  0.4838070000000  0.5548450000000 1.0
C      1  0.5528630000000  0.5146780000000  0.5552070000000 1.0
C      1  0.5550060000000  0.4457780000000  0.4870430000000 1.0
C      1  0.5536150000000  0.5567760000000  0.5150600000000 1.0
C      1  0.4443740000000  0.4465740000000  0.5151640000000 1.0
C      1  0.4855860000000  0.4468150000000  0.4444110000000 1.0
C      1  0.5533520000000  0.4846450000000  0.5535460000000 1.0
C      1  0.4464860000000  0.5534930000000  0.5165340000000 1.0
C      1  0.5149710000000  0.5530650000000  0.4438810000000 1.0
C      1  0.5154750000000  0.4476360000000  0.5529110000000 1.0
C      1  0.4866230000000  0.5565730000000  0.5535200000000 1.0
C      1  0.4453770000000  0.5133540000000  0.5530270000000 1.0
C      1  0.4477540000000  0.4863590000000  0.4429930000000 1.0
C      1  0.5521420000000  0.5143030000000  0.4446970000000 1.0
C      1  0.5555470000000  0.4447780000000  0.5169910000000 1.0
C      1  0.5540670000000  0.5554900000000  0.4861880000000 1.0
C      1  0.4457910000000  0.4456710000000  0.4864000000000 1.0
C      1  0.4691010000000  0.5318370000000  0.4315930000000 1.0
C      1  0.4315800000000  0.4676840000000  0.5326360000000 1.0
C      1  0.5312740000000  0.4331800000000  0.4698410000000 1.0
C      1  0.5317720000000  0.4683200000000  0.4316750000000 1.0
C      1  0.5312080000000  0.5306530000000  0.5664580000000 1.0
C      1  0.4687080000000  0.4683990000000  0.5672810000000 1.0
C      1  0.5670760000000  0.5304480000000  0.5320020000000 1.0
C      1  0.5646700000000  0.4698370000000  0.4714830000000 1.0
C      1  0.4335110000000  0.5312030000000  0.4701690000000 1.0
C      1  0.4697310000000  0.5666270000000  0.4698880000000 1.0
C      1  0.4709130000000  0.4352670000000  0.5303400000000 1.0
C      1  0.5321280000000  0.5683660000000  0.5321700000000 1.0
C      1  0.4694390000000  0.5305230000000  0.5669490000000 1.0
C      1  0.4350250000000  0.4700080000000  0.4704960000000 1.0
C      1  0.5311620000000  0.4333250000000  0.5321750000000 1.0
C      1  0.5311070000000  0.4691830000000  0.5660550000000 1.0
C      1  0.5318170000000  0.5317220000000  0.4317230000000 1.0
C      1  0.4694550000000  0.4687560000000  0.4321280000000 1.0
C      1  0.5649280000000  0.5295100000000  0.4708550000000 1.0
C      1  0.5671090000000  0.4691020000000  0.5323940000000 1.0
C      1  0.4333660000000  0.5303960000000  0.5325040000000 1.0
C      1  0.4695730000000  0.5673070000000  0.5320350000000 1.0
C      1  0.4686030000000  0.4320660000000  0.4692130000000 1.0
C      1  0.5302910000000  0.5659680000000  0.4705390000000 1.0
C      1  0.5859170000000  0.4846960000000  0.5162910000000 1.0
C      1  0.5149530000000  0.5873980000000  0.4861810000000 1.0
C      1  0.4856380000000  0.5141810000000  0.5865090000000 1.0
C      1  0.4145910000000  0.5149630000000  0.5161370000000 1.0
C      1  0.4138080000000  0.4856020000000  0.4863350000000 1.0
C      1  0.5878480000000  0.5141650000000  0.4864100000000 1.0
C      1  0.4856570000000  0.4125760000000  0.4861340000000 1.0
C      1  0.4853510000000  0.5859510000000  0.5158300000000 1.0
C      1  0.5155840000000  0.4140480000000  0.5161160000000 1.0
C      1  0.5152730000000  0.4846670000000  0.5849260000000 1.0
C      1  0.5153980000000  0.5150430000000  0.4142540000000 1.0
C      1  0.4856740000000  0.4852120000000  0.4144260000000 1.0
C      1  0.5869880000000  0.4850790000000  0.4862460000000 1.0
C      1  0.5155580000000  0.5861420000000  0.5157690000000 1.0
C      1  0.4856520000000  0.5150010000000  0.4143560000000 1.0
C      1  0.4137430000000  0.5148790000000  0.4862820000000 1.0
C      1  0.4143510000000  0.4849290000000  0.5158350000000 1.0
C      1  0.5875410000000  0.5144920000000  0.5155840000000 1.0
C      1  0.4857970000000  0.4129270000000  0.5155410000000 1.0
C      1  0.4857780000000  0.5871010000000  0.4862040000000 1.0
C      1  0.5148850000000  0.4121540000000  0.4863240000000 1.0
C      1  0.5154300000000  0.4852470000000  0.4142740000000 1.0
C      1  0.5150830000000  0.5145690000000  0.5852890000000 1.0
C      1  0.4853260000000  0.4846860000000  0.5855320000000 1.0
C      1  0.4846840000000  0.5440200000000  0.4824780000000 1.0
C      1  0.4859660000000  0.4918390000000  0.5391570000000 1.0
C      1  0.5396530000000  0.4862050000000  0.4860910000000 1.0
C      1  0.5132890000000  0.4528370000000  0.4829960000000 1.0
C      1  0.5085840000000  0.5376430000000  0.5146120000000 1.0
C      1  0.4842380000000  0.4587210000000  0.5128360000000 1.0
C      1  0.5232370000000  0.5195270000000  0.5297630000000 1.0
C      1  0.5126030000000  0.4867190000000  0.4649570000000 1.0
C      1  0.4827420000000  0.5217290000000  0.4681600000000 1.0
C      1  0.4592010000000  0.5123020000000  0.4807130000000 1.0
C      1  0.4657100000000  0.4855520000000  0.5181420000000 1.0
C      1  0.5452090000000  0.5185810000000  0.5158960000000 1.0
C      1  0.4814010000000  0.5315610000000  0.5188650000000 1.0
C      1  0.4849140000000  0.4789570000000  0.4693430000000 1.0
C      1  0.5318090000000  0.4768070000000  0.5141910000000 1.0
C      1  0.5125380000000  0.4582320000000  0.5084470000000 1.0
C      1  0.5134440000000  0.5422680000000  0.4857950000000 1.0
C      1  0.4855940000000  0.4547440000000  0.4819300000000 1.0
C      1  0.5102090000000  0.5154210000000  0.4648990000000 1.0
C      1  0.5147860000000  0.4930830000000  0.5332150000000 1.0
C      1  0.4834400000000  0.5190020000000  0.5437840000000 1.0
C      1  0.4636950000000  0.5134390000000  0.5082030000000 1.0
C      1  0.4605820000000  0.4846890000000  0.4796750000000 1.0
C      1  0.5467990000000  0.5133920000000  0.4884780000000 1.0
C      1  0.5023650000000  0.5005120000000  0.5036800000000 1.0
END
