TITL C-2441167-4473-35 0.000325429009290401 125000 -1238.63934860042 0 0 10 (C1) n - 1
REM
REM in /home/bkarasulu/work/CARBON/AIRSS/Generating-Clusters/ReaxFF-fromJPCA2015/Units_Real/with-SteepDescent/Higher-Symm
REM
REM
REM
REM
REM
REM ./C.cell (1df0a924f5614ab8850e4351716899ee)
REM
REM compiler GCC version 9.2.1 20190827 (Red Hat 9.2.1-1)
REM options -cpp -mtune=generic -march=x86-64 -g -O0 -fpre-include=/usr/include/finclude/math-vector-fortran.h
REM seed -1549410591 55121045 -1857725079 411496917 1872347026 1426521833 611511376 300894732 919969844 1959965928 -1498918970 -1656845445 -425213083 -1895875640 -325050986 1309625061 -857960713 236633229 -147372385 -1184842430 -1256267579 -1121942844 1614156496 -109820709 -375096895 -1635304648 -1483855679 2106920922 1224628340 1490563647 145088827 -1957850813 -1393623194
REM
CELL 1.54180   50.00000   50.00000   50.00000   90.00000   90.00000   90.00000
LATT -1
SFAC C  
C      1  0.4881170000000  0.4690730000000  0.5010270000000 1.0
C      1  0.4880680000000  0.5033330000000  0.4570880000000 1.0
C      1  0.4873710000000  0.5229140000000  0.5107720000000 1.0
C      1  0.4869810000000  0.5133190000000  0.5412790000000 1.0
C      1  0.5195200000000  0.5241790000000  0.5094940000000 1.0
C      1  0.5171280000000  0.5028650000000  0.4564970000000 1.0
C      1  0.5171110000000  0.4691720000000  0.5009880000000 1.0
C      1  0.5161450000000  0.5141610000000  0.5401660000000 1.0
C      1  0.5185320000000  0.4985870000000  0.4881580000000 1.0
C      1  0.4860970000000  0.4987500000000  0.4888710000000 1.0
END
