TITL C-2441161-5029-791 0.0868733936900516 125000 -24620.599335587 0 0 175 (C1) n - 1
REM
REM in /home/bkarasulu/work/CARBON/AIRSS/Generating-Clusters/ReaxFF-fromJPCA2015/Units_Real/with-SteepDescent/Higher-Symm
REM
REM
REM
REM
REM
REM ./C.cell (1df0a924f5614ab8850e4351716899ee)
REM
REM compiler GCC version 9.2.1 20190827 (Red Hat 9.2.1-1)
REM options -cpp -mtune=generic -march=x86-64 -g -O0 -fpre-include=/usr/include/finclude/math-vector-fortran.h
REM seed 1147337480 -2051104491 -64952107 -1803386917 1741230983 1356023107 164710310 -877405851 -203667589 1471049356 -1386165140 446875999 613871523 -2089506716 -1427704026 690593209 668844206 955547765 1929576373 -905114662 -1459861049 -363837712 -2118636788 648026778 1176216754 -1570915623 106879753 -563693818 -1440105477 -5477526 -375209658 -1719925517 -964469585
REM
CELL 1.54180   50.00000   50.00000   50.00000   90.00000   90.00000   90.00000
LATT -1
SFAC C  
C      1  0.5132490000000  0.4609880000000  0.5769080000000 1.0
C      1  0.5084060000000  0.4203620000000  0.5440090000000 1.0
C      1  0.5047760000000  0.4071410000000  0.4950320000000 1.0
C      1  0.5124640000000  0.4127700000000  0.4456350000000 1.0
C      1  0.5131180000000  0.4627850000000  0.4131250000000 1.0
C      1  0.5038080000000  0.5207570000000  0.4008440000000 1.0
C      1  0.5058030000000  0.5659330000000  0.4380160000000 1.0
C      1  0.5106010000000  0.5871970000000  0.4696390000000 1.0
C      1  0.5121490000000  0.5911760000000  0.5286390000000 1.0
C      1  0.5095390000000  0.5591030000000  0.5710130000000 1.0
C      1  0.5103580000000  0.5141900000000  0.5989190000000 1.0
C      1  0.4264580000000  0.4270440000000  0.5407380000000 1.0
C      1  0.4252580000000  0.4183170000000  0.4937600000000 1.0
C      1  0.4274260000000  0.4322460000000  0.4484400000000 1.0
C      1  0.4372210000000  0.4712690000000  0.4188460000000 1.0
C      1  0.4340820000000  0.5171650000000  0.4140260000000 1.0
C      1  0.4261510000000  0.5619610000000  0.4401330000000 1.0
C      1  0.4273060000000  0.5857780000000  0.4822430000000 1.0
C      1  0.4290120000000  0.5808460000000  0.5287070000000 1.0
C      1  0.4270630000000  0.5501180000000  0.5647660000000 1.0
C      1  0.4280590000000  0.5063420000000  0.5834670000000 1.0
C      1  0.4271230000000  0.4612770000000  0.5719970000000 1.0
C      1  0.5247570000000  0.5606230000000  0.5933500000000 1.0
C      1  0.5243240000000  0.4957030000000  0.6136490000000 1.0
C      1  0.5306860000000  0.4383600000000  0.5799210000000 1.0
C      1  0.5214970000000  0.3967950000000  0.5403200000000 1.0
C      1  0.5222960000000  0.3917360000000  0.4904700000000 1.0
C      1  0.5241930000000  0.4144850000000  0.4196970000000 1.0
C      1  0.5059310000000  0.4804580000000  0.3911620000000 1.0
C      1  0.5161890000000  0.5436920000000  0.4038800000000 1.0
C      1  0.5223560000000  0.5833320000000  0.4255120000000 1.0
C      1  0.5206860000000  0.6064560000000  0.4872110000000 1.0
C      1  0.5200430000000  0.5921970000000  0.5508070000000 1.0
C      1  0.5236080000000  0.4660240000000  0.5298560000000 1.0
C      1  0.5373910000000  0.4572380000000  0.5067630000000 1.0
C      1  0.5266760000000  0.4582860000000  0.4795820000000 1.0
C      1  0.5390270000000  0.4749430000000  0.4594770000000 1.0
C      1  0.5253350000000  0.4991170000000  0.4499310000000 1.0
C      1  0.5248480000000  0.5279510000000  0.4576720000000 1.0
C      1  0.5354850000000  0.5419010000000  0.4811370000000 1.0
C      1  0.5226790000000  0.5451660000000  0.5067510000000 1.0
C      1  0.5346100000000  0.5339470000000  0.5301280000000 1.0
C      1  0.5235610000000  0.5124860000000  0.5465640000000 1.0
C      1  0.5338460000000  0.4849390000000  0.5500810000000 1.0
C      1  0.5302720000000  0.4401700000000  0.4121040000000 1.0
C      1  0.5241350000000  0.5019550000000  0.3905820000000 1.0
C      1  0.5323260000000  0.5646400000000  0.4064000000000 1.0
C      1  0.5313070000000  0.5944290000000  0.4496500000000 1.0
C      1  0.5291530000000  0.6080510000000  0.5137020000000 1.0
C      1  0.5333590000000  0.5769120000000  0.5705580000000 1.0
C      1  0.5313720000000  0.5342510000000  0.6027940000000 1.0
C      1  0.5228100000000  0.4720160000000  0.6016180000000 1.0
C      1  0.5285380000000  0.4145410000000  0.5635310000000 1.0
C      1  0.5348790000000  0.3898490000000  0.5157070000000 1.0
C      1  0.5307680000000  0.3992770000000  0.4645690000000 1.0
C      1  0.4161600000000  0.5055900000000  0.5544560000000 1.0
C      1  0.4132720000000  0.4727270000000  0.5498170000000 1.0
C      1  0.4167300000000  0.4534100000000  0.5270120000000 1.0
C      1  0.4128300000000  0.4437930000000  0.4945110000000 1.0
C      1  0.4178770000000  0.4546780000000  0.4669470000000 1.0
C      1  0.4182690000000  0.4753600000000  0.4381240000000 1.0
C      1  0.4200250000000  0.5044410000000  0.4368130000000 1.0
C      1  0.4161650000000  0.5481790000000  0.4638630000000 1.0
C      1  0.4117010000000  0.5627000000000  0.4883660000000 1.0
C      1  0.4172450000000  0.5545340000000  0.5178690000000 1.0
C      1  0.4130530000000  0.5348260000000  0.5454890000000 1.0
C      1  0.5627390000000  0.5028730000000  0.5886980000000 1.0
C      1  0.5572430000000  0.4489680000000  0.5824870000000 1.0
C      1  0.5610580000000  0.4205690000000  0.5389800000000 1.0
C      1  0.5680950000000  0.4167540000000  0.4889950000000 1.0
C      1  0.5636230000000  0.4279020000000  0.4430250000000 1.0
C      1  0.5594070000000  0.4685490000000  0.4113270000000 1.0
C      1  0.5563030000000  0.5217470000000  0.4077100000000 1.0
C      1  0.5671840000000  0.5575190000000  0.4411020000000 1.0
C      1  0.5611660000000  0.5879820000000  0.4832720000000 1.0
C      1  0.5681760000000  0.5806440000000  0.5325520000000 1.0
C      1  0.5588740000000  0.5552970000000  0.5720270000000 1.0
C      1  0.4847080000000  0.4856750000000  0.5415320000000 1.0
C      1  0.4968740000000  0.4656010000000  0.5272330000000 1.0
C      1  0.4857370000000  0.4555210000000  0.5035760000000 1.0
C      1  0.4983950000000  0.4592260000000  0.4782300000000 1.0
C      1  0.4853420000000  0.4776890000000  0.4606610000000 1.0
C      1  0.4974390000000  0.4992220000000  0.4498240000000 1.0
C      1  0.4961260000000  0.5274810000000  0.4582000000000 1.0
C      1  0.4840800000000  0.5402450000000  0.4821300000000 1.0
C      1  0.4961060000000  0.5443090000000  0.5070550000000 1.0
C      1  0.4847150000000  0.5335230000000  0.5306520000000 1.0
C      1  0.4959950000000  0.5114020000000  0.5447120000000 1.0
C      1  0.6166440000000  0.4664570000000  0.5057600000000 1.0
C      1  0.6037470000000  0.4538770000000  0.4828830000000 1.0
C      1  0.5952330000000  0.4713210000000  0.4609040000000 1.0
C      1  0.6034080000000  0.4981210000000  0.4504830000000 1.0
C      1  0.6079680000000  0.5262640000000  0.4594590000000 1.0
C      1  0.6107240000000  0.5387330000000  0.4835690000000 1.0
C      1  0.6034850000000  0.5506790000000  0.5074760000000 1.0
C      1  0.6044350000000  0.5483500000000  0.5396560000000 1.0
C      1  0.6029590000000  0.5184560000000  0.5508210000000 1.0
C      1  0.6107200000000  0.4928290000000  0.5441600000000 1.0
C      1  0.6077140000000  0.4670260000000  0.5336160000000 1.0
C      1  0.4788220000000  0.4084140000000  0.4953640000000 1.0
C      1  0.4836020000000  0.4190160000000  0.4473040000000 1.0
C      1  0.4851520000000  0.4600250000000  0.4198310000000 1.0
C      1  0.4749550000000  0.5207320000000  0.4076170000000 1.0
C      1  0.4788550000000  0.5648100000000  0.4355320000000 1.0
C      1  0.4828600000000  0.5926620000000  0.4772510000000 1.0
C      1  0.4837990000000  0.5889550000000  0.5301570000000 1.0
C      1  0.4818570000000  0.5583750000000  0.5720990000000 1.0
C      1  0.4824060000000  0.5098590000000  0.5909720000000 1.0
C      1  0.4834050000000  0.4585690000000  0.5791090000000 1.0
C      1  0.4806320000000  0.4212920000000  0.5440510000000 1.0
C      1  0.5579630000000  0.5962890000000  0.5105080000000 1.0
C      1  0.5783930000000  0.5640140000000  0.5523510000000 1.0
C      1  0.5575150000000  0.5313540000000  0.5893380000000 1.0
C      1  0.5619150000000  0.4764200000000  0.5877360000000 1.0
C      1  0.5683930000000  0.4395180000000  0.5567390000000 1.0
C      1  0.5583480000000  0.4069520000000  0.5144050000000 1.0
C      1  0.5582340000000  0.4094680000000  0.4634620000000 1.0
C      1  0.5673600000000  0.4457090000000  0.4239910000000 1.0
C      1  0.5519290000000  0.4958820000000  0.3991290000000 1.0
C      1  0.5578060000000  0.5489600000000  0.4153600000000 1.0
C      1  0.5584370000000  0.5816370000000  0.4560650000000 1.0
C      1  0.5746280000000  0.5133190000000  0.5455150000000 1.0
C      1  0.5622830000000  0.4873560000000  0.5470550000000 1.0
C      1  0.5762500000000  0.4640450000000  0.5364670000000 1.0
C      1  0.5645550000000  0.4570020000000  0.5106030000000 1.0
C      1  0.5784090000000  0.4422710000000  0.4910700000000 1.0
C      1  0.5667720000000  0.4790810000000  0.4568210000000 1.0
C      1  0.5756650000000  0.5043680000000  0.4449340000000 1.0
C      1  0.5756410000000  0.5345400000000  0.4559330000000 1.0
C      1  0.5629460000000  0.5412280000000  0.4811010000000 1.0
C      1  0.5750590000000  0.5459780000000  0.5059750000000 1.0
C      1  0.5620520000000  0.5337070000000  0.5286170000000 1.0
C      1  0.4402190000000  0.5322790000000  0.5850740000000 1.0
C      1  0.4411680000000  0.4815640000000  0.5891370000000 1.0
C      1  0.4399500000000  0.4355590000000  0.5646880000000 1.0
C      1  0.4378720000000  0.4109860000000  0.5201500000000 1.0
C      1  0.4382200000000  0.4134340000000  0.4672770000000 1.0
C      1  0.4423220000000  0.4430900000000  0.4254050000000 1.0
C      1  0.4551410000000  0.4985520000000  0.4025370000000 1.0
C      1  0.4384820000000  0.5453020000000  0.4193500000000 1.0
C      1  0.4393030000000  0.5828380000000  0.4554970000000 1.0
C      1  0.4424210000000  0.5936500000000  0.5064470000000 1.0
C      1  0.4410270000000  0.5748000000000  0.5537890000000 1.0
C      1  0.4392210000000  0.5303250000000  0.4667200000000 1.0
C      1  0.4567660000000  0.5415420000000  0.4863230000000 1.0
C      1  0.4443020000000  0.5448660000000  0.5116380000000 1.0
C      1  0.4569640000000  0.5317810000000  0.5332140000000 1.0
C      1  0.4443690000000  0.5083160000000  0.5447670000000 1.0
C      1  0.4575100000000  0.4833190000000  0.5411380000000 1.0
C      1  0.4446790000000  0.4629330000000  0.5254090000000 1.0
C      1  0.4581360000000  0.4550340000000  0.5016330000000 1.0
C      1  0.4452210000000  0.4621660000000  0.4767820000000 1.0
C      1  0.4584160000000  0.4821470000000  0.4614340000000 1.0
C      1  0.4444490000000  0.5065580000000  0.4533500000000 1.0
C      1  0.4691860000000  0.4369690000000  0.5655260000000 1.0
C      1  0.4666320000000  0.4102600000000  0.5211560000000 1.0
C      1  0.4669800000000  0.4101980000000  0.4691120000000 1.0
C      1  0.4711170000000  0.4362230000000  0.4277260000000 1.0
C      1  0.4779560000000  0.4793570000000  0.3991800000000 1.0
C      1  0.4662950000000  0.5460610000000  0.4174270000000 1.0
C      1  0.4677500000000  0.5828700000000  0.4549100000000 1.0
C      1  0.4712290000000  0.5935420000000  0.5041560000000 1.0
C      1  0.4697700000000  0.5763690000000  0.5532890000000 1.0
C      1  0.4691910000000  0.5347220000000  0.5848840000000 1.0
C      1  0.4705290000000  0.4825900000000  0.5893480000000 1.0
C      1  0.5286050000000  0.5006990000000  0.4981830000000 1.0
C      1  0.4498390000000  0.5008050000000  0.4993760000000 1.0
C      1  0.3733450000000  0.5003740000000  0.4990170000000 1.0
C      1  0.4237520000000  0.5006250000000  0.4992970000000 1.0
C      1  0.5025510000000  0.5007460000000  0.4985900000000 1.0
C      1  0.4761770000000  0.5006760000000  0.4990100000000 1.0
C      1  0.5545230000000  0.5005590000000  0.4979930000000 1.0
C      1  0.5800380000000  0.4995760000000  0.4987220000000 1.0
C      1  0.6099090000000  0.4958520000000  0.5007240000000 1.0
C      1  0.3977900000000  0.5004810000000  0.4990630000000 1.0
END
