TITL C-2441168-9922-493 0.151000218058558 125000 -12699.8922453729 0 0 112 (C1) n - 1
REM
REM in /home/bkarasulu/work/CARBON/AIRSS/Generating-Clusters/ReaxFF-fromJPCA2015/Units_Real/with-SteepDescent/Higher-Symm
REM
REM
REM
REM
REM
REM ./C.cell (1df0a924f5614ab8850e4351716899ee)
REM
REM compiler GCC version 9.2.1 20190827 (Red Hat 9.2.1-1)
REM options -cpp -mtune=generic -march=x86-64 -g -O0 -fpre-include=/usr/include/finclude/math-vector-fortran.h
REM seed 286198036 -1927003393 -1242953550 -139021939 1653960101 -2144722722 984642420 1880884716 1078334530 -1936813260 -1995745804 306635449 -1092896617 1475840225 42067582 -964037021 1398847877 1288216511 -2038801593 1499694560 -891686377 -1516683902 1368754941 38991432 1894525657 -1664727395 1226616849 -1078664466 827899572 1992261979 -1293763294 277003472 -680123365
REM
CELL 1.54180   50.00000   50.00000   50.00000   90.00000   90.00000   90.00000
LATT -1
SFAC C  
C      1  0.5128720000000  0.4192130000000  0.4866300000000 1.0
C      1  0.4239500000000  0.5282780000000  0.4868970000000 1.0
C      1  0.5638530000000  0.5506990000000  0.4871700000000 1.0
C      1  0.4808120000000  0.4816000000000  0.4820910000000 1.0
C      1  0.4938900000000  0.5272290000000  0.4803760000000 1.0
C      1  0.5263790000000  0.4917410000000  0.4812360000000 1.0
C      1  0.5653760000000  0.4442940000000  0.5176640000000 1.0
C      1  0.4152690000000  0.4858020000000  0.5163760000000 1.0
C      1  0.5167700000000  0.5828040000000  0.5192160000000 1.0
C      1  0.4400130000000  0.4816730000000  0.5238770000000 1.0
C      1  0.5177240000000  0.5584850000000  0.5296150000000 1.0
C      1  0.5436260000000  0.4566760000000  0.5287200000000 1.0
C      1  0.4505180000000  0.4577100000000  0.5141160000000 1.0
C      1  0.4924110000000  0.5677060000000  0.5187510000000 1.0
C      1  0.5639530000000  0.4734390000000  0.5173460000000 1.0
C      1  0.4601020000000  0.4802360000000  0.5781970000000 1.0
C      1  0.4983610000000  0.5467250000000  0.5809960000000 1.0
C      1  0.5390760000000  0.4792870000000  0.5803240000000 1.0
C      1  0.4951460000000  0.4417580000000  0.5175780000000 1.0
C      1  0.4537600000000  0.5326980000000  0.5175920000000 1.0
C      1  0.5503950000000  0.5225190000000  0.5184180000000 1.0
C      1  0.4794870000000  0.4906780000000  0.5102010000000 1.0
C      1  0.5038410000000  0.5253960000000  0.5074160000000 1.0
C      1  0.5204460000000  0.4850280000000  0.5093770000000 1.0
C      1  0.4595680000000  0.4181390000000  0.4972200000000 1.0
C      1  0.4474870000000  0.5740540000000  0.4993040000000 1.0
C      1  0.5893270000000  0.5062460000000  0.4980270000000 1.0
C      1  0.5451180000000  0.5110730000000  0.4927670000000 1.0
C      1  0.4893710000000  0.4545120000000  0.4929290000000 1.0
C      1  0.4671320000000  0.5361010000000  0.4925730000000 1.0
C      1  0.5723340000000  0.5301190000000  0.5364780000000 1.0
C      1  0.4851180000000  0.4205830000000  0.5371020000000 1.0
C      1  0.4373620000000  0.5461620000000  0.5369170000000 1.0
C      1  0.4704750000000  0.5183440000000  0.4402750000000 1.0
C      1  0.5269560000000  0.5151310000000  0.4440650000000 1.0
C      1  0.4999720000000  0.4654500000000  0.4416630000000 1.0
C      1  0.5089820000000  0.5197810000000  0.5770200000000 1.0
C      1  0.5100840000000  0.4800920000000  0.5772400000000 1.0
C      1  0.4821570000000  0.4995580000000  0.5737430000000 1.0
C      1  0.4347620000000  0.5300550000000  0.5637960000000 1.0
C      1  0.5583920000000  0.5394730000000  0.5620140000000 1.0
C      1  0.5147430000000  0.4336460000000  0.5664580000000 1.0
C      1  0.5261410000000  0.5378340000000  0.5169190000000 1.0
C      1  0.5188640000000  0.4588930000000  0.5199460000000 1.0
C      1  0.4577270000000  0.5033470000000  0.5240270000000 1.0
C      1  0.4880300000000  0.4790460000000  0.5354970000000 1.0
C      1  0.4953160000000  0.5210260000000  0.5334470000000 1.0
C      1  0.5161210000000  0.4978730000000  0.5358120000000 1.0
C      1  0.5594340000000  0.4519350000000  0.4396600000000 1.0
C      1  0.4298200000000  0.4732520000000  0.4398070000000 1.0
C      1  0.5131100000000  0.5747500000000  0.4394620000000 1.0
C      1  0.5463270000000  0.5378090000000  0.4447750000000 1.0
C      1  0.5112450000000  0.4392710000000  0.4442440000000 1.0
C      1  0.4424050000000  0.5229290000000  0.4428520000000 1.0
C      1  0.4847890000000  0.5377370000000  0.4284560000000 1.0
C      1  0.5407120000000  0.4939840000000  0.4293650000000 1.0
C      1  0.4745820000000  0.4684250000000  0.4290020000000 1.0
C      1  0.5234220000000  0.5575500000000  0.5715280000000 1.0
C      1  0.5383630000000  0.4506940000000  0.5716780000000 1.0
C      1  0.4409300000000  0.4995700000000  0.5672850000000 1.0
C      1  0.5320630000000  0.4635990000000  0.4694280000000 1.0
C      1  0.4536370000000  0.4884290000000  0.4739600000000 1.0
C      1  0.5155160000000  0.5462100000000  0.4698310000000 1.0
C      1  0.4495640000000  0.5156900000000  0.4803390000000 1.0
C      1  0.5383560000000  0.5353830000000  0.4829610000000 1.0
C      1  0.5127380000000  0.4483560000000  0.4826980000000 1.0
C      1  0.4736800000000  0.5702840000000  0.4879460000000 1.0
C      1  0.5775940000000  0.4832580000000  0.4864350000000 1.0
C      1  0.4472310000000  0.4423280000000  0.4879730000000 1.0
C      1  0.4393660000000  0.4974090000000  0.4264690000000 1.0
C      1  0.5285500000000  0.5527830000000  0.4267010000000 1.0
C      1  0.5333260000000  0.4483050000000  0.4261890000000 1.0
C      1  0.5549870000000  0.5746340000000  0.4919390000000 1.0
C      1  0.5366570000000  0.4122820000000  0.4958420000000 1.0
C      1  0.4082800000000  0.5095040000000  0.5018880000000 1.0
C      1  0.4578920000000  0.4185840000000  0.5267380000000 1.0
C      1  0.4478260000000  0.5728600000000  0.5287640000000 1.0
C      1  0.5892910000000  0.5076220000000  0.5282700000000 1.0
C      1  0.4702420000000  0.4588190000000  0.5582720000000 1.0
C      1  0.4811440000000  0.5463720000000  0.5545350000000 1.0
C      1  0.5482110000000  0.4927890000000  0.5548390000000 1.0
C      1  0.4683070000000  0.5638040000000  0.4597850000000 1.0
C      1  0.5714500000000  0.4955020000000  0.4608310000000 1.0
C      1  0.4605080000000  0.4399210000000  0.4603930000000 1.0
C      1  0.4837620000000  0.4112940000000  0.4806950000000 1.0
C      1  0.4307520000000  0.5562410000000  0.4818280000000 1.0
C      1  0.5837980000000  0.5296120000000  0.4806930000000 1.0
C      1  0.5589900000000  0.4523300000000  0.4690590000000 1.0
C      1  0.4293880000000  0.4737570000000  0.4694690000000 1.0
C      1  0.5150710000000  0.5750820000000  0.4685010000000 1.0
C      1  0.5298600000000  0.5867680000000  0.4931200000000 1.0
C      1  0.5569350000000  0.4316180000000  0.4929080000000 1.0
C      1  0.4107720000000  0.4831350000000  0.4898400000000 1.0
C      1  0.4427530000000  0.5499020000000  0.4559890000000 1.0
C      1  0.5711940000000  0.5247320000000  0.4556470000000 1.0
C      1  0.4860090000000  0.4259870000000  0.4560250000000 1.0
C      1  0.4509620000000  0.4538620000000  0.4366140000000 1.0
C      1  0.4857700000000  0.5651400000000  0.4370190000000 1.0
C      1  0.5643980000000  0.4803030000000  0.4372630000000 1.0
C      1  0.4639410000000  0.5076910000000  0.5513300000000 1.0
C      1  0.5273840000000  0.5337910000000  0.5566990000000 1.0
C      1  0.5146730000000  0.4597160000000  0.5576730000000 1.0
C      1  0.5739540000000  0.4869270000000  0.5397200000000 1.0
C      1  0.4505870000000  0.4438640000000  0.5393010000000 1.0
C      1  0.4740090000000  0.5713180000000  0.5396600000000 1.0
C      1  0.4865190000000  0.4338330000000  0.5631190000000 1.0
C      1  0.4587650000000  0.5405290000000  0.5720000000000 1.0
C      1  0.5579650000000  0.5133690000000  0.5724530000000 1.0
C      1  0.5209960000000  0.4747700000000  0.4240910000000 1.0
C      1  0.4684680000000  0.4954390000000  0.4248510000000 1.0
C      1  0.5114150000000  0.5295070000000  0.4240180000000 1.0
C      1  0.5013800000000  0.5013580000000  0.4689340000000 1.0
END
