TITL C-2441158-471-382 0.011204202063273 125000 -4350.36344387077 0 0 34 (C1) n - 1
REM
REM in /home/bkarasulu/work/CARBON/AIRSS/Generating-Clusters/ReaxFF-fromJPCA2015/Units_Real/with-SteepDescent/Higher-Symm
REM
REM
REM
REM
REM
REM ./C.cell (1df0a924f5614ab8850e4351716899ee)
REM
REM compiler GCC version 9.2.1 20190827 (Red Hat 9.2.1-1)
REM options -cpp -mtune=generic -march=x86-64 -g -O0 -fpre-include=/usr/include/finclude/math-vector-fortran.h
REM seed -11493330 427639396 -426491259 -617542356 1971939118 593463790 927217014 -955275080 -88345648 564981260 1047478588 -1385236454 828518768 2107572892 -334753355 141679800 -1138504770 2066111659 -715568636 -1810147275 -18529805 1790429433 18394827 -1956334278 -492602290 -2144787663 -1802807152 -597476431 87680012 -1660682990 259118202 -421118309 -259191971
REM
CELL 1.54180   50.00000   50.00000   50.00000   90.00000   90.00000   90.00000
LATT -1
SFAC C  
C      1  0.5680940000000  0.4922840000000  0.4852690000000 1.0
C      1  0.5302810000000  0.5128070000000  0.4397960000000 1.0
C      1  0.5012210000000  0.4842660000000  0.4638910000000 1.0
C      1  0.4995810000000  0.5441040000000  0.5195860000000 1.0
C      1  0.5676560000000  0.5095190000000  0.5105870000000 1.0
C      1  0.4936970000000  0.5606760000000  0.4717760000000 1.0
C      1  0.4969130000000  0.5189220000000  0.5054300000000 1.0
C      1  0.4707440000000  0.5453680000000  0.5205040000000 1.0
C      1  0.5411570000000  0.5468090000000  0.4821150000000 1.0
C      1  0.5202140000000  0.4748520000000  0.5017240000000 1.0
C      1  0.4328180000000  0.4978880000000  0.4728990000000 1.0
C      1  0.5059180000000  0.4457710000000  0.5409860000000 1.0
C      1  0.5080520000000  0.4932320000000  0.4355560000000 1.0
C      1  0.5052120000000  0.5256440000000  0.5473240000000 1.0
C      1  0.4800370000000  0.4440800000000  0.4997130000000 1.0
C      1  0.4789970000000  0.5368100000000  0.4637290000000 1.0
C      1  0.4512040000000  0.4860130000000  0.4854740000000 1.0
C      1  0.4786350000000  0.4471070000000  0.5315210000000 1.0
C      1  0.5259710000000  0.5247840000000  0.4672300000000 1.0
C      1  0.4744400000000  0.4730090000000  0.5485160000000 1.0
C      1  0.4553370000000  0.4812210000000  0.5307170000000 1.0
C      1  0.4430600000000  0.4984080000000  0.5128500000000 1.0
C      1  0.5111010000000  0.4730720000000  0.5238100000000 1.0
C      1  0.4885120000000  0.5016520000000  0.5506340000000 1.0
C      1  0.4986630000000  0.5153220000000  0.4768230000000 1.0
C      1  0.4613190000000  0.4556860000000  0.4818090000000 1.0
C      1  0.4883800000000  0.4571310000000  0.4746770000000 1.0
C      1  0.4489050000000  0.5292060000000  0.5198210000000 1.0
C      1  0.4932330000000  0.4969890000000  0.5224730000000 1.0
C      1  0.5586870000000  0.4709790000000  0.4687150000000 1.0
C      1  0.5284540000000  0.4777080000000  0.4782540000000 1.0
C      1  0.5489350000000  0.5063760000000  0.5323780000000 1.0
C      1  0.5293820000000  0.5158980000000  0.5401120000000 1.0
C      1  0.5151880000000  0.5564090000000  0.4933010000000 1.0
END
