TITL C-2441157-2117-320 0.0384454124939235 125000 -20444.5514214574 0 0 147 (C1) n - 1
REM
REM in /home/bkarasulu/work/CARBON/AIRSS/Generating-Clusters/ReaxFF-fromJPCA2015/Units_Real/with-SteepDescent/Higher-Symm
REM
REM
REM
REM
REM
REM ./C.cell (1df0a924f5614ab8850e4351716899ee)
REM
REM compiler GCC version 9.2.1 20190827 (Red Hat 9.2.1-1)
REM options -cpp -mtune=generic -march=x86-64 -g -O0 -fpre-include=/usr/include/finclude/math-vector-fortran.h
REM seed -163963948 767384331 912761901 1489902507 782536540 862856133 364909388 -1490577823 1724300272 -1974114615 1882500060 -793018454 -2063453647 72108100 -369888232 1588476190 -1270140865 1301938856 -1213703535 -280282264 922557261 -1550210713 -1482213427 -843938014 467406111 -1029536063 -1662716316 -585995280 95326691 619762921 -648574645 -815463845 1200678074
REM
CELL 1.54180   50.00000   50.00000   50.00000   90.00000   90.00000   90.00000
LATT -1
SFAC C  
C      1  0.4388830000000  0.5831070000000  0.5049150000000 1.0
C      1  0.4403250000000  0.5543120000000  0.4412390000000 1.0
C      1  0.4397110000000  0.4872370000000  0.4181340000000 1.0
C      1  0.4400930000000  0.4286600000000  0.4592610000000 1.0
C      1  0.4391700000000  0.4249760000000  0.5298290000000 1.0
C      1  0.4396230000000  0.4780710000000  0.5812410000000 1.0
C      1  0.4405510000000  0.5486820000000  0.5670960000000 1.0
C      1  0.5185790000000  0.4908280000000  0.5345380000000 1.0
C      1  0.5095550000000  0.5160530000000  0.5271850000000 1.0
C      1  0.5196480000000  0.5304740000000  0.5046840000000 1.0
C      1  0.5075130000000  0.5199230000000  0.4814240000000 1.0
C      1  0.5136520000000  0.4957800000000  0.4679970000000 1.0
C      1  0.5215070000000  0.4777240000000  0.4895120000000 1.0
C      1  0.5098350000000  0.4758750000000  0.5127090000000 1.0
C      1  0.5203870000000  0.3941550000000  0.4818960000000 1.0
C      1  0.5217970000000  0.4197000000000  0.5715480000000 1.0
C      1  0.5096340000000  0.5027030000000  0.6043550000000 1.0
C      1  0.5242120000000  0.5859990000000  0.5626550000000 1.0
C      1  0.5136700000000  0.6037440000000  0.4720670000000 1.0
C      1  0.5192710000000  0.5402530000000  0.3995160000000 1.0
C      1  0.5202140000000  0.4451280000000  0.4033560000000 1.0
C      1  0.4240950000000  0.5285220000000  0.4443290000000 1.0
C      1  0.4290220000000  0.4765240000000  0.4456260000000 1.0
C      1  0.4325140000000  0.4454320000000  0.4853660000000 1.0
C      1  0.4254930000000  0.4513310000000  0.5369920000000 1.0
C      1  0.4284840000000  0.4999770000000  0.5665020000000 1.0
C      1  0.4249440000000  0.5504080000000  0.5407470000000 1.0
C      1  0.4224560000000  0.5666520000000  0.4881240000000 1.0
C      1  0.4094860000000  0.5166850000000  0.4670220000000 1.0
C      1  0.4078490000000  0.4876740000000  0.4705170000000 1.0
C      1  0.4112440000000  0.4693100000000  0.4931800000000 1.0
C      1  0.4136670000000  0.4728380000000  0.5214550000000 1.0
C      1  0.4169340000000  0.5024500000000  0.5358540000000 1.0
C      1  0.4109070000000  0.5308470000000  0.5246530000000 1.0
C      1  0.4113290000000  0.5380340000000  0.4935420000000 1.0
C      1  0.5744960000000  0.5278280000000  0.4442070000000 1.0
C      1  0.5756250000000  0.4734150000000  0.4424430000000 1.0
C      1  0.5765940000000  0.4417510000000  0.4850090000000 1.0
C      1  0.5774130000000  0.4497230000000  0.5388610000000 1.0
C      1  0.5821650000000  0.4980170000000  0.5577380000000 1.0
C      1  0.5679430000000  0.5534340000000  0.5427450000000 1.0
C      1  0.5751210000000  0.5560010000000  0.4882760000000 1.0
C      1  0.4665820000000  0.5220310000000  0.4303430000000 1.0
C      1  0.4674250000000  0.4525790000000  0.4326910000000 1.0
C      1  0.4731830000000  0.4195690000000  0.4983430000000 1.0
C      1  0.4691110000000  0.4509310000000  0.5537510000000 1.0
C      1  0.4752330000000  0.5122620000000  0.5779770000000 1.0
C      1  0.4728090000000  0.5738220000000  0.5343460000000 1.0
C      1  0.4665640000000  0.5710780000000  0.4688530000000 1.0
C      1  0.5450910000000  0.4675330000000  0.5781810000000 1.0
C      1  0.5490600000000  0.5343250000000  0.5743960000000 1.0
C      1  0.5440600000000  0.5857380000000  0.5142860000000 1.0
C      1  0.5422950000000  0.5644550000000  0.4438480000000 1.0
C      1  0.5435020000000  0.4948960000000  0.4136130000000 1.0
C      1  0.5457180000000  0.4287660000000  0.4473940000000 1.0
C      1  0.5456740000000  0.4171160000000  0.5224370000000 1.0
C      1  0.5173460000000  0.5564110000000  0.5347510000000 1.0
C      1  0.5161370000000  0.5637680000000  0.4761410000000 1.0
C      1  0.5168830000000  0.5199430000000  0.4357300000000 1.0
C      1  0.5194700000000  0.4603490000000  0.4411460000000 1.0
C      1  0.5228970000000  0.4345710000000  0.4910790000000 1.0
C      1  0.5195710000000  0.4534350000000  0.5483230000000 1.0
C      1  0.5286450000000  0.5137340000000  0.5692020000000 1.0
C      1  0.4651080000000  0.4159380000000  0.4531130000000 1.0
C      1  0.4640600000000  0.4118370000000  0.5377780000000 1.0
C      1  0.4619470000000  0.4753980000000  0.6013870000000 1.0
C      1  0.4644590000000  0.5618600000000  0.5746650000000 1.0
C      1  0.4632410000000  0.6015940000000  0.4988990000000 1.0
C      1  0.4640520000000  0.5643000000000  0.4276570000000 1.0
C      1  0.4648360000000  0.4827880000000  0.4047910000000 1.0
C      1  0.4536730000000  0.5319060000000  0.5118770000000 1.0
C      1  0.4399770000000  0.5303530000000  0.4880910000000 1.0
C      1  0.4541380000000  0.5121820000000  0.4719410000000 1.0
C      1  0.4482570000000  0.4852550000000  0.4673490000000 1.0
C      1  0.4523990000000  0.4667990000000  0.4887510000000 1.0
C      1  0.4581950000000  0.4810290000000  0.5230080000000 1.0
C      1  0.4436570000000  0.5067140000000  0.5221160000000 1.0
C      1  0.4921410000000  0.4497500000000  0.5378650000000 1.0
C      1  0.4834540000000  0.4866150000000  0.5677210000000 1.0
C      1  0.4895760000000  0.5508880000000  0.5412550000000 1.0
C      1  0.4875290000000  0.5639680000000  0.4867480000000 1.0
C      1  0.4898180000000  0.5282010000000  0.4431450000000 1.0
C      1  0.4905970000000  0.4687470000000  0.4379060000000 1.0
C      1  0.4934200000000  0.4342950000000  0.4857270000000 1.0
C      1  0.4884140000000  0.5560050000000  0.5876390000000 1.0
C      1  0.4848910000000  0.5960760000000  0.5180300000000 1.0
C      1  0.4908930000000  0.5739310000000  0.4280710000000 1.0
C      1  0.4917280000000  0.4890590000000  0.3979750000000 1.0
C      1  0.4920640000000  0.4139030000000  0.4440510000000 1.0
C      1  0.4910730000000  0.4048410000000  0.5306320000000 1.0
C      1  0.4871180000000  0.4651080000000  0.5891510000000 1.0
C      1  0.5896510000000  0.4708790000000  0.5198470000000 1.0
C      1  0.5976780000000  0.4972330000000  0.5338250000000 1.0
C      1  0.5897620000000  0.5212360000000  0.5190650000000 1.0
C      1  0.5938470000000  0.5351230000000  0.4930770000000 1.0
C      1  0.5879830000000  0.5180290000000  0.4688490000000 1.0
C      1  0.5896160000000  0.4827420000000  0.4674650000000 1.0
C      1  0.5941450000000  0.4627380000000  0.4898260000000 1.0
C      1  0.4989000000000  0.3976180000000  0.4643010000000 1.0
C      1  0.5003170000000  0.4093270000000  0.5565700000000 1.0
C      1  0.4878940000000  0.4844710000000  0.6118470000000 1.0
C      1  0.5015910000000  0.5767860000000  0.5760680000000 1.0
C      1  0.4904660000000  0.6073950000000  0.4894600000000 1.0
C      1  0.4984840000000  0.5575960000000  0.4070200000000 1.0
C      1  0.4992320000000  0.4627590000000  0.3965760000000 1.0
C      1  0.5467980000000  0.4980560000000  0.5366330000000 1.0
C      1  0.5609360000000  0.5195430000000  0.5222940000000 1.0
C      1  0.5474500000000  0.5279310000000  0.5004210000000 1.0
C      1  0.5585150000000  0.5134950000000  0.4787680000000 1.0
C      1  0.5599420000000  0.4864840000000  0.4769570000000 1.0
C      1  0.5459340000000  0.4668310000000  0.4927510000000 1.0
C      1  0.5580170000000  0.4780010000000  0.5178030000000 1.0
C      1  0.5203640000000  0.5858760000000  0.5327880000000 1.0
C      1  0.5148800000000  0.5786930000000  0.4504650000000 1.0
C      1  0.5168430000000  0.5093500000000  0.4074580000000 1.0
C      1  0.5183410000000  0.4321390000000  0.4327640000000 1.0
C      1  0.5191070000000  0.4103350000000  0.5088710000000 1.0
C      1  0.5199820000000  0.4509530000000  0.5783400000000 1.0
C      1  0.5006470000000  0.5248050000000  0.5854310000000 1.0
C      1  0.5387100000000  0.4160650000000  0.4727510000000 1.0
C      1  0.5360900000000  0.4283770000000  0.5471740000000 1.0
C      1  0.5330760000000  0.4928560000000  0.5884920000000 1.0
C      1  0.5430830000000  0.5594630000000  0.5574980000000 1.0
C      1  0.5323070000000  0.5873590000000  0.4878860000000 1.0
C      1  0.5339290000000  0.5432720000000  0.4253680000000 1.0
C      1  0.5359090000000  0.4669020000000  0.4168200000000 1.0
C      1  0.5671840000000  0.4348500000000  0.5145280000000 1.0
C      1  0.5684980000000  0.4697480000000  0.5601930000000 1.0
C      1  0.5730140000000  0.5269470000000  0.5597890000000 1.0
C      1  0.5651290000000  0.5653310000000  0.5151850000000 1.0
C      1  0.5638580000000  0.5513910000000  0.4593110000000 1.0
C      1  0.5647530000000  0.5001910000000  0.4325290000000 1.0
C      1  0.5659610000000  0.4480900000000  0.4566400000000 1.0
C      1  0.4430450000000  0.5719070000000  0.5313320000000 1.0
C      1  0.4385420000000  0.5723780000000  0.4642480000000 1.0
C      1  0.4401040000000  0.5164210000000  0.4227330000000 1.0
C      1  0.4396610000000  0.4484790000000  0.4371960000000 1.0
C      1  0.4446250000000  0.4219750000000  0.5008090000000 1.0
C      1  0.4420230000000  0.4545880000000  0.5614020000000 1.0
C      1  0.4463680000000  0.5202990000000  0.5761630000000 1.0
C      1  0.4776840000000  0.5402530000000  0.5014640000000 1.0
C      1  0.4803260000000  0.5252950000000  0.4754450000000 1.0
C      1  0.4896140000000  0.4809650000000  0.4633030000000 1.0
C      1  0.4795500000000  0.4614730000000  0.4828740000000 1.0
C      1  0.4853150000000  0.4659240000000  0.5129330000000 1.0
C      1  0.4760990000000  0.4944640000000  0.5422320000000 1.0
C      1  0.4846370000000  0.5214240000000  0.5356480000000 1.0
END
