TITL C-2441167-4473-314 0.174125502120676 125000 -23678.012541571 0 0 187 (C1) n - 1
REM
REM in /home/bkarasulu/work/CARBON/AIRSS/Generating-Clusters/ReaxFF-fromJPCA2015/Units_Real/with-SteepDescent/Higher-Symm
REM
REM
REM
REM
REM
REM ./C.cell (1df0a924f5614ab8850e4351716899ee)
REM
REM compiler GCC version 9.2.1 20190827 (Red Hat 9.2.1-1)
REM options -cpp -mtune=generic -march=x86-64 -g -O0 -fpre-include=/usr/include/finclude/math-vector-fortran.h
REM seed 1957087292 -544502449 -1211096631 -1058029380 -604018452 -1483435535 -1172656716 737727392 595908993 -780574816 1702720683 -1599883410 -2038878108 768732763 955778571 415068530 956848084 -836379252 -1850557895 1997909824 1543512687 537660831 -1332953588 -683154952 -1850921564 1820674540 -1999512347 -1625514337 -1399973405 -2120955311 1646539597 1507402770 937465117
REM
CELL 1.54180   50.00000   50.00000   50.00000   90.00000   90.00000   90.00000
LATT -1
SFAC C  
C      1  0.5290330000000  0.4858910000000  0.5768680000000 1.0
C      1  0.5282850000000  0.5149970000000  0.5755250000000 1.0
C      1  0.4927800000000  0.5147340000000  0.4722840000000 1.0
C      1  0.5059440000000  0.4935610000000  0.4619390000000 1.0
C      1  0.5783940000000  0.5678260000000  0.5285850000000 1.0
C      1  0.5776830000000  0.4282380000000  0.5303280000000 1.0
C      1  0.4815510000000  0.5812800000000  0.4258010000000 1.0
C      1  0.4788750000000  0.4182390000000  0.4244390000000 1.0
C      1  0.5338290000000  0.4433500000000  0.5490220000000 1.0
C      1  0.5356700000000  0.5551010000000  0.5433910000000 1.0
C      1  0.5504430000000  0.5320900000000  0.5010020000000 1.0
C      1  0.5453820000000  0.4676390000000  0.5003730000000 1.0
C      1  0.5417170000000  0.5255640000000  0.5498460000000 1.0
C      1  0.5401040000000  0.4721950000000  0.5526260000000 1.0
C      1  0.4568590000000  0.4628810000000  0.5000000000000 1.0
C      1  0.4664910000000  0.5256620000000  0.5080730000000 1.0
C      1  0.5495680000000  0.4862200000000  0.5976170000000 1.0
C      1  0.5486060000000  0.5146560000000  0.5977300000000 1.0
C      1  0.5738810000000  0.4863440000000  0.4761690000000 1.0
C      1  0.5783770000000  0.5121880000000  0.4651990000000 1.0
C      1  0.4688830000000  0.4009250000000  0.4474460000000 1.0
C      1  0.4752080000000  0.6038690000000  0.4451500000000 1.0
C      1  0.4250390000000  0.4168210000000  0.4983710000000 1.0
C      1  0.4261520000000  0.5845980000000  0.4969940000000 1.0
C      1  0.4750180000000  0.4414900000000  0.5000620000000 1.0
C      1  0.4742580000000  0.5533420000000  0.5026130000000 1.0
C      1  0.3970680000000  0.4618770000000  0.4794420000000 1.0
C      1  0.3970670000000  0.5341190000000  0.4801340000000 1.0
C      1  0.5728770000000  0.4845620000000  0.5496610000000 1.0
C      1  0.5695700000000  0.5137220000000  0.5557900000000 1.0
C      1  0.5533010000000  0.4228560000000  0.4374610000000 1.0
C      1  0.5497490000000  0.5782100000000  0.4375480000000 1.0
C      1  0.5155910000000  0.4415690000000  0.5248720000000 1.0
C      1  0.5248690000000  0.5639810000000  0.5179570000000 1.0
C      1  0.5659270000000  0.5861170000000  0.5102780000000 1.0
C      1  0.5645070000000  0.4139550000000  0.5085530000000 1.0
C      1  0.4919900000000  0.5412700000000  0.3972280000000 1.0
C      1  0.4811590000000  0.4678850000000  0.4023210000000 1.0
C      1  0.5153700000000  0.4532280000000  0.4710450000000 1.0
C      1  0.5123240000000  0.5384950000000  0.4717220000000 1.0
C      1  0.5736090000000  0.4203730000000  0.4815470000000 1.0
C      1  0.5714530000000  0.5820930000000  0.4812750000000 1.0
C      1  0.4621470000000  0.4735500000000  0.5867630000000 1.0
C      1  0.4613920000000  0.5231680000000  0.5878140000000 1.0
C      1  0.4083280000000  0.5227350000000  0.4564720000000 1.0
C      1  0.4066810000000  0.4806300000000  0.4598040000000 1.0
C      1  0.5677770000000  0.5608330000000  0.5769040000000 1.0
C      1  0.5689760000000  0.4389200000000  0.5782070000000 1.0
C      1  0.4864110000000  0.3988240000000  0.5000370000000 1.0
C      1  0.4817950000000  0.6014870000000  0.4945390000000 1.0
C      1  0.5715960000000  0.4442390000000  0.4391700000000 1.0
C      1  0.5640590000000  0.5543720000000  0.4378820000000 1.0
C      1  0.4462080000000  0.4147200000000  0.5563780000000 1.0
C      1  0.4493510000000  0.5848550000000  0.5530950000000 1.0
C      1  0.5008120000000  0.4794370000000  0.5787750000000 1.0
C      1  0.5002270000000  0.5216050000000  0.5741290000000 1.0
C      1  0.4355770000000  0.5603710000000  0.5632500000000 1.0
C      1  0.4354870000000  0.4424990000000  0.5605270000000 1.0
C      1  0.4512900000000  0.4727380000000  0.4740050000000 1.0
C      1  0.4376870000000  0.5455300000000  0.4742630000000 1.0
C      1  0.5593080000000  0.4316990000000  0.5525880000000 1.0
C      1  0.5603720000000  0.5662010000000  0.5506540000000 1.0
C      1  0.4550440000000  0.4223130000000  0.4613560000000 1.0
C      1  0.4611370000000  0.6035960000000  0.4698540000000 1.0
C      1  0.4695510000000  0.4449980000000  0.4190900000000 1.0
C      1  0.4725000000000  0.5566760000000  0.4140710000000 1.0
C      1  0.4169580000000  0.4880500000000  0.5108280000000 1.0
C      1  0.4119480000000  0.5148280000000  0.5159750000000 1.0
C      1  0.5282940000000  0.5752710000000  0.4191020000000 1.0
C      1  0.5296330000000  0.4229370000000  0.4207310000000 1.0
C      1  0.4751140000000  0.4851130000000  0.5274800000000 1.0
C      1  0.4660180000000  0.5127470000000  0.5342100000000 1.0
C      1  0.4189560000000  0.5545300000000  0.4952030000000 1.0
C      1  0.4160870000000  0.4390230000000  0.4790340000000 1.0
C      1  0.5954730000000  0.5452820000000  0.5208680000000 1.0
C      1  0.5918810000000  0.4504920000000  0.5218590000000 1.0
C      1  0.4130850000000  0.5149490000000  0.4286920000000 1.0
C      1  0.4132320000000  0.4862700000000  0.4322980000000 1.0
C      1  0.5057030000000  0.3826630000000  0.5136370000000 1.0
C      1  0.5047420000000  0.6147340000000  0.5114020000000 1.0
C      1  0.4543090000000  0.5556330000000  0.5396120000000 1.0
C      1  0.4574760000000  0.4520210000000  0.5435000000000 1.0
C      1  0.4442350000000  0.4497820000000  0.4311870000000 1.0
C      1  0.4461100000000  0.5526400000000  0.4260030000000 1.0
C      1  0.6048560000000  0.5100900000000  0.4813190000000 1.0
C      1  0.6010090000000  0.4811010000000  0.4837210000000 1.0
C      1  0.5579000000000  0.5298450000000  0.4219930000000 1.0
C      1  0.5643830000000  0.4658630000000  0.4212300000000 1.0
C      1  0.4682560000000  0.5123570000000  0.4546380000000 1.0
C      1  0.4653400000000  0.4823850000000  0.4508730000000 1.0
C      1  0.5078570000000  0.5827950000000  0.4344140000000 1.0
C      1  0.5059610000000  0.4138580000000  0.4332210000000 1.0
C      1  0.5789130000000  0.5129600000000  0.4334730000000 1.0
C      1  0.5725530000000  0.4883360000000  0.4275970000000 1.0
C      1  0.5440660000000  0.5623240000000  0.5929970000000 1.0
C      1  0.5453360000000  0.4376520000000  0.5942900000000 1.0
C      1  0.4376380000000  0.5267120000000  0.4172050000000 1.0
C      1  0.4393610000000  0.4758790000000  0.4240620000000 1.0
C      1  0.5625490000000  0.4606020000000  0.5983480000000 1.0
C      1  0.5621180000000  0.5397270000000  0.5973750000000 1.0
C      1  0.4416190000000  0.4125390000000  0.5258300000000 1.0
C      1  0.4419000000000  0.5912920000000  0.5202090000000 1.0
C      1  0.5920600000000  0.5194660000000  0.5369060000000 1.0
C      1  0.5998870000000  0.4892110000000  0.5377630000000 1.0
C      1  0.5599470000000  0.4629910000000  0.4754850000000 1.0
C      1  0.5710030000000  0.5364920000000  0.4791050000000 1.0
C      1  0.4278580000000  0.4846950000000  0.5520870000000 1.0
C      1  0.4362690000000  0.5122120000000  0.5525800000000 1.0
C      1  0.5366840000000  0.5120460000000  0.4085590000000 1.0
C      1  0.5344330000000  0.4829240000000  0.4124880000000 1.0
C      1  0.5204480000000  0.5111600000000  0.5323130000000 1.0
C      1  0.5198360000000  0.4834140000000  0.5383960000000 1.0
C      1  0.5291060000000  0.5107340000000  0.5041390000000 1.0
C      1  0.5358750000000  0.4915400000000  0.4879490000000 1.0
C      1  0.4323780000000  0.4380970000000  0.4545780000000 1.0
C      1  0.4367720000000  0.5633390000000  0.4526610000000 1.0
C      1  0.4985900000000  0.4115560000000  0.5454760000000 1.0
C      1  0.4991910000000  0.5812600000000  0.5427290000000 1.0
C      1  0.4930660000000  0.5265690000000  0.5452920000000 1.0
C      1  0.4942510000000  0.4742730000000  0.5477530000000 1.0
C      1  0.5675020000000  0.5122240000000  0.5149660000000 1.0
C      1  0.5622790000000  0.4858150000000  0.5196870000000 1.0
C      1  0.4410780000000  0.4056110000000  0.4780510000000 1.0
C      1  0.4369010000000  0.5881180000000  0.4697170000000 1.0
C      1  0.5164220000000  0.4675520000000  0.4311100000000 1.0
C      1  0.5097930000000  0.5312230000000  0.4314340000000 1.0
C      1  0.6054070000000  0.4717120000000  0.5138010000000 1.0
C      1  0.5979460000000  0.5347520000000  0.4945540000000 1.0
C      1  0.4289290000000  0.4899830000000  0.4783350000000 1.0
C      1  0.4372350000000  0.5176870000000  0.4664270000000 1.0
C      1  0.4092780000000  0.4735190000000  0.5344890000000 1.0
C      1  0.4095420000000  0.5225570000000  0.5436720000000 1.0
C      1  0.5012820000000  0.4124550000000  0.4785730000000 1.0
C      1  0.5022320000000  0.5862600000000  0.4770890000000 1.0
C      1  0.5103320000000  0.5117750000000  0.3963240000000 1.0
C      1  0.5058580000000  0.4830640000000  0.3947320000000 1.0
C      1  0.5527290000000  0.4116880000000  0.4637340000000 1.0
C      1  0.5486060000000  0.5888060000000  0.4654450000000 1.0
C      1  0.4853100000000  0.5083880000000  0.4966780000000 1.0
C      1  0.4924690000000  0.4826910000000  0.5051710000000 1.0
C      1  0.4699650000000  0.5526160000000  0.5859860000000 1.0
C      1  0.4726950000000  0.4458840000000  0.5873640000000 1.0
C      1  0.4658870000000  0.4153250000000  0.5100540000000 1.0
C      1  0.4660110000000  0.5811610000000  0.5090890000000 1.0
C      1  0.4976640000000  0.5454120000000  0.5883610000000 1.0
C      1  0.4998760000000  0.4535310000000  0.5895460000000 1.0
C      1  0.4589380000000  0.4858820000000  0.4043620000000 1.0
C      1  0.4635060000000  0.5143060000000  0.4088030000000 1.0
C      1  0.4420710000000  0.4525270000000  0.5208490000000 1.0
C      1  0.4315600000000  0.5491010000000  0.5224170000000 1.0
C      1  0.4937020000000  0.4772140000000  0.4457910000000 1.0
C      1  0.4829190000000  0.5202250000000  0.4311280000000 1.0
C      1  0.5190340000000  0.4339860000000  0.5790270000000 1.0
C      1  0.5176410000000  0.5646950000000  0.5800090000000 1.0
C      1  0.5253140000000  0.5458430000000  0.4960240000000 1.0
C      1  0.5147570000000  0.4606710000000  0.5030420000000 1.0
C      1  0.3919680000000  0.4830330000000  0.4995500000000 1.0
C      1  0.3886780000000  0.5130010000000  0.4977430000000 1.0
C      1  0.4176950000000  0.4452140000000  0.5360600000000 1.0
C      1  0.4140780000000  0.5507180000000  0.5455650000000 1.0
C      1  0.5820950000000  0.4458030000000  0.4680800000000 1.0
C      1  0.5761970000000  0.5589560000000  0.4637640000000 1.0
C      1  0.4371570000000  0.5091750000000  0.5825250000000 1.0
C      1  0.4349350000000  0.4790920000000  0.5796930000000 1.0
C      1  0.5283360000000  0.5847610000000  0.4871560000000 1.0
C      1  0.5299990000000  0.4091750000000  0.4802450000000 1.0
C      1  0.5299280000000  0.3869620000000  0.4973450000000 1.0
C      1  0.5300320000000  0.6128060000000  0.4975850000000 1.0
C      1  0.5442770000000  0.3965040000000  0.5202560000000 1.0
C      1  0.5441690000000  0.6034930000000  0.5209360000000 1.0
C      1  0.4863750000000  0.5576700000000  0.4723540000000 1.0
C      1  0.4901860000000  0.4416400000000  0.4756750000000 1.0
C      1  0.5163180000000  0.6023600000000  0.5349710000000 1.0
C      1  0.5181100000000  0.3951750000000  0.5378790000000 1.0
C      1  0.5301740000000  0.5260720000000  0.4510630000000 1.0
C      1  0.5341610000000  0.4981930000000  0.4601730000000 1.0
C      1  0.4713190000000  0.5792680000000  0.5732180000000 1.0
C      1  0.4705460000000  0.4197280000000  0.5732950000000 1.0
C      1  0.5033890000000  0.6018020000000  0.4532030000000 1.0
C      1  0.4971980000000  0.3977000000000  0.4544650000000 1.0
C      1  0.4874600000000  0.5544060000000  0.5350000000000 1.0
C      1  0.4891630000000  0.4398510000000  0.5374840000000 1.0
C      1  0.4999840000000  0.5862760000000  0.5688920000000 1.0
C      1  0.4984860000000  0.4107990000000  0.5700890000000 1.0
C      1  0.5163950000000  0.4464680000000  0.4119520000000 1.0
C      1  0.5168140000000  0.5499800000000  0.4099030000000 1.0
C      1  0.4781900000000  0.4984800000000  0.5913360000000 1.0
END
