TITL C-2441154-10-570 0.00575027302384459 125000 -4334.58979274252 0 0 33 (C1) n - 1
REM
REM in /home/bkarasulu/work/CARBON/AIRSS/Generating-Clusters/ReaxFF-fromJPCA2015/Units_Real/with-SteepDescent/Higher-Symm
REM
REM
REM
REM
REM
REM ./C.cell (1df0a924f5614ab8850e4351716899ee)
REM
REM compiler GCC version 9.2.1 20190827 (Red Hat 9.2.1-1)
REM options -cpp -mtune=generic -march=x86-64 -g -O0 -fpre-include=/usr/include/finclude/math-vector-fortran.h
REM seed 1411634480 593071787 -1420315556 -303707693 -1455628430 -731561589 -425686913 1592938661 -991283773 128936201 -526625573 634652055 1341501512 -825682813 281296139 -639316432 1305506052 1812300517 1935782879 1442850461 -1320618887 1977857868 672117115 1767941723 1059567974 -631012675 -1235312350 -2069547028 989134961 -1949650354 1391132676 282125613 -1023466049
REM
CELL 1.54180   50.00000   50.00000   50.00000   90.00000   90.00000   90.00000
LATT -1
SFAC C  
C      1  0.4814050000000  0.4961110000000  0.4690630000000 1.0
C      1  0.4955680000000  0.5085740000000  0.5150630000000 1.0
C      1  0.5272290000000  0.5275650000000  0.5495500000000 1.0
C      1  0.5257060000000  0.4728210000000  0.4548090000000 1.0
C      1  0.4681750000000  0.5342020000000  0.4698240000000 1.0
C      1  0.4619160000000  0.4636400000000  0.5217930000000 1.0
C      1  0.4802690000000  0.4315570000000  0.5005890000000 1.0
C      1  0.4834140000000  0.5706790000000  0.5055850000000 1.0
C      1  0.4665380000000  0.4830290000000  0.5409200000000 1.0
C      1  0.4560150000000  0.5081110000000  0.4690870000000 1.0
C      1  0.4952720000000  0.4710850000000  0.5440240000000 1.0
C      1  0.4974240000000  0.5356980000000  0.4601430000000 1.0
C      1  0.4722260000000  0.5105360000000  0.5324200000000 1.0
C      1  0.4603220000000  0.4816780000000  0.4589210000000 1.0
C      1  0.5111050000000  0.4493660000000  0.4639240000000 1.0
C      1  0.5115470000000  0.5500070000000  0.5402920000000 1.0
C      1  0.5172520000000  0.5271350000000  0.5217530000000 1.0
C      1  0.5176220000000  0.4719910000000  0.4831020000000 1.0
C      1  0.5389590000000  0.5116440000000  0.4894610000000 1.0
C      1  0.5398800000000  0.4889890000000  0.5136300000000 1.0
C      1  0.4662970000000  0.5472530000000  0.4967540000000 1.0
C      1  0.4675190000000  0.4587940000000  0.4996620000000 1.0
C      1  0.5534430000000  0.5013870000000  0.4672870000000 1.0
C      1  0.5544330000000  0.4989800000000  0.5357790000000 1.0
C      1  0.5586270000000  0.5224530000000  0.5517280000000 1.0
C      1  0.5567160000000  0.4785290000000  0.4502300000000 1.0
C      1  0.4610650000000  0.4553290000000  0.4717180000000 1.0
C      1  0.4644010000000  0.5379330000000  0.5253400000000 1.0
C      1  0.4849750000000  0.4384120000000  0.4701600000000 1.0
C      1  0.4839770000000  0.5585870000000  0.5338370000000 1.0
C      1  0.5202600000000  0.5239560000000  0.4729510000000 1.0
C      1  0.5206730000000  0.4774750000000  0.5308510000000 1.0
C      1  0.4971400000000  0.4904370000000  0.4924040000000 1.0
END
