TITL C-2441154-10-22 0.00124059993470501 125000 -12161.2689037244 0 0 82 (C1) n - 1
REM
REM in /home/bkarasulu/work/CARBON/AIRSS/Generating-Clusters/ReaxFF-fromJPCA2015/Units_Real/with-SteepDescent/Higher-Symm
REM
REM
REM
REM
REM
REM ./C.cell (1df0a924f5614ab8850e4351716899ee)
REM
REM compiler GCC version 9.2.1 20190827 (Red Hat 9.2.1-1)
REM options -cpp -mtune=generic -march=x86-64 -g -O0 -fpre-include=/usr/include/finclude/math-vector-fortran.h
REM seed 602993458 382230296 1283937319 106196605 -904775672 1556944305 -2137497022 -304091069 -1769730623 81083244 -1229510052 -1377912030 886810462 141864608 -1756245890 -464915037 892289296 -105593945 -1011214323 1176413220 -1662360294 -1539725706 961553821 -1522289976 -1722366481 -513608274 2047455147 -1154118769 -1573835888 -1950737722 -236097370 -1571464154 995068816
REM
CELL 1.54180   50.00000   50.00000   50.00000   90.00000   90.00000   90.00000
LATT -1
SFAC C  
C      1  0.5540730000000  0.5012540000000  0.5707900000000 1.0
C      1  0.5014390000000  0.4956330000000  0.5867770000000 1.0
C      1  0.4555350000000  0.5044570000000  0.5613420000000 1.0
C      1  0.4127200000000  0.4949210000000  0.5291160000000 1.0
C      1  0.4111730000000  0.4985670000000  0.4741990000000 1.0
C      1  0.4511680000000  0.5005190000000  0.4401490000000 1.0
C      1  0.4974760000000  0.5038780000000  0.4139020000000 1.0
C      1  0.5435620000000  0.4943040000000  0.4408110000000 1.0
C      1  0.5874680000000  0.5030870000000  0.4715950000000 1.0
C      1  0.5873190000000  0.5032910000000  0.5264880000000 1.0
C      1  0.5364990000000  0.4582340000000  0.5328020000000 1.0
C      1  0.5128680000000  0.5385550000000  0.5459340000000 1.0
C      1  0.4800740000000  0.4593900000000  0.5463300000000 1.0
C      1  0.4574820000000  0.5404370000000  0.5268110000000 1.0
C      1  0.4489670000000  0.4627220000000  0.4983770000000 1.0
C      1  0.4622680000000  0.5436440000000  0.4688230000000 1.0
C      1  0.4863250000000  0.4610330000000  0.4546530000000 1.0
C      1  0.5186890000000  0.5393570000000  0.4536700000000 1.0
C      1  0.5414990000000  0.4558210000000  0.4754920000000 1.0
C      1  0.5489120000000  0.5340500000000  0.5020120000000 1.0
C      1  0.5266130000000  0.5755610000000  0.5111490000000 1.0
C      1  0.5061990000000  0.4219110000000  0.5225850000000 1.0
C      1  0.5016880000000  0.5799310000000  0.5251130000000 1.0
C      1  0.4777570000000  0.4239910000000  0.5182290000000 1.0
C      1  0.4586460000000  0.5772630000000  0.5080430000000 1.0
C      1  0.4725370000000  0.4233730000000  0.4895070000000 1.0
C      1  0.4943400000000  0.5812800000000  0.4761340000000 1.0
C      1  0.4977430000000  0.4207100000000  0.4755760000000 1.0
C      1  0.5224430000000  0.5770210000000  0.4817530000000 1.0
C      1  0.5409270000000  0.4286570000000  0.4865750000000 1.0
C      1  0.4368050000000  0.5455220000000  0.4825670000000 1.0
C      1  0.4580780000000  0.4539560000000  0.4529100000000 1.0
C      1  0.4961920000000  0.5492720000000  0.4376400000000 1.0
C      1  0.5305980000000  0.4492640000000  0.4484650000000 1.0
C      1  0.5598410000000  0.5441930000000  0.4770030000000 1.0
C      1  0.5625060000000  0.4556460000000  0.5197890000000 1.0
C      1  0.5412490000000  0.5454980000000  0.5483170000000 1.0
C      1  0.5015030000000  0.4506580000000  0.5627230000000 1.0
C      1  0.4679400000000  0.5501550000000  0.5524270000000 1.0
C      1  0.4397100000000  0.4536820000000  0.5246100000000 1.0
C      1  0.5738380000000  0.4815300000000  0.5148440000000 1.0
C      1  0.5598170000000  0.5276420000000  0.5619030000000 1.0
C      1  0.5123200000000  0.4702550000000  0.5805830000000 1.0
C      1  0.4634820000000  0.5291130000000  0.5722080000000 1.0
C      1  0.4233900000000  0.4716540000000  0.5393810000000 1.0
C      1  0.4243920000000  0.5202140000000  0.4866790000000 1.0
C      1  0.4413570000000  0.4738620000000  0.4412890000000 1.0
C      1  0.4864560000000  0.5296660000000  0.4182560000000 1.0
C      1  0.5351590000000  0.4700360000000  0.4302210000000 1.0
C      1  0.5768850000000  0.5263870000000  0.4613190000000 1.0
C      1  0.4939270000000  0.4768290000000  0.4784410000000 1.0
C      1  0.5085260000000  0.5231200000000  0.4758400000000 1.0
C      1  0.5210240000000  0.4794020000000  0.4893750000000 1.0
C      1  0.5248650000000  0.5156430000000  0.4999380000000 1.0
C      1  0.5178480000000  0.4753610000000  0.5180370000000 1.0
C      1  0.5058030000000  0.5223800000000  0.5226270000000 1.0
C      1  0.4894500000000  0.4756660000000  0.5249880000000 1.0
C      1  0.4788430000000  0.5254730000000  0.5127640000000 1.0
C      1  0.4744070000000  0.4770240000000  0.5002260000000 1.0
C      1  0.4806210000000  0.5256760000000  0.4832960000000 1.0
C      1  0.5753850000000  0.5070770000000  0.5521370000000 1.0
C      1  0.5267800000000  0.4925320000000  0.5729880000000 1.0
C      1  0.4745450000000  0.5048520000000  0.5817350000000 1.0
C      1  0.4295980000000  0.4957760000000  0.5529280000000 1.0
C      1  0.4090470000000  0.5044080000000  0.5027030000000 1.0
C      1  0.4243980000000  0.4936950000000  0.4493470000000 1.0
C      1  0.4698590000000  0.5070700000000  0.4195080000000 1.0
C      1  0.5235520000000  0.4935610000000  0.4202510000000 1.0
C      1  0.5702140000000  0.5019710000000  0.4483410000000 1.0
C      1  0.5906370000000  0.4950250000000  0.4984460000000 1.0
C      1  0.5605850000000  0.4432200000000  0.4944110000000 1.0
C      1  0.5460860000000  0.5557540000000  0.5213770000000 1.0
C      1  0.5192990000000  0.4372330000000  0.5436150000000 1.0
C      1  0.4944080000000  0.5616600000000  0.5469650000000 1.0
C      1  0.4627650000000  0.4409330000000  0.5359760000000 1.0
C      1  0.4392740000000  0.5577270000000  0.5094200000000 1.0
C      1  0.4523350000000  0.4415050000000  0.4785970000000 1.0
C      1  0.4798640000000  0.5643150000000  0.4569610000000 1.0
C      1  0.5043720000000  0.4381210000000  0.4527380000000 1.0
C      1  0.5378480000000  0.5589470000000  0.4644760000000 1.0
C      1  0.4830980000000  0.5893390000000  0.5030510000000 1.0
C      1  0.5178350000000  0.4176500000000  0.4961880000000 1.0
END
