TITL C-2441163-1170-627 0.0268643302870991 125000 -7701.19143005652 0 0 65 (C1) n - 1
REM
REM in /home/bkarasulu/work/CARBON/AIRSS/Generating-Clusters/ReaxFF-fromJPCA2015/Units_Real/with-SteepDescent/Higher-Symm
REM
REM
REM
REM
REM
REM ./C.cell (1df0a924f5614ab8850e4351716899ee)
REM
REM compiler GCC version 9.2.1 20190827 (Red Hat 9.2.1-1)
REM options -cpp -mtune=generic -march=x86-64 -g -O0 -fpre-include=/usr/include/finclude/math-vector-fortran.h
REM seed -226590042 -109028885 -447092357 -723544391 931462755 -2110360885 -32021633 -490314593 -887991944 2040549839 678103916 -446796601 -1781816247 -1248028065 2050248831 -1363003717 173352037 -405306354 -266120072 1447199643 1584967390 -961470508 -77891629 1413568122 -1757356172 1685624258 1390912772 1059237916 -865392281 2101801209 -221145046 145131642 -1940495028
REM
CELL 1.54180   50.00000   50.00000   50.00000   90.00000   90.00000   90.00000
LATT -1
SFAC C  
C      1  0.5425340000000  0.4423360000000  0.4720280000000 1.0
C      1  0.4871110000000  0.4411000000000  0.4506880000000 1.0
C      1  0.4481100000000  0.4413300000000  0.4969710000000 1.0
C      1  0.4817500000000  0.4429550000000  0.5482480000000 1.0
C      1  0.5405090000000  0.4416450000000  0.5321210000000 1.0
C      1  0.5422550000000  0.5573920000000  0.4714670000000 1.0
C      1  0.4850870000000  0.5606230000000  0.4495190000000 1.0
C      1  0.4471980000000  0.5583890000000  0.4983640000000 1.0
C      1  0.4819090000000  0.5589570000000  0.5482330000000 1.0
C      1  0.5394440000000  0.5590070000000  0.5320870000000 1.0
C      1  0.5426530000000  0.5152520000000  0.5086700000000 1.0
C      1  0.5129620000000  0.5118690000000  0.4662880000000 1.0
C      1  0.4802790000000  0.5072540000000  0.4823540000000 1.0
C      1  0.4699700000000  0.5088770000000  0.5126540000000 1.0
C      1  0.5069900000000  0.5156620000000  0.5446130000000 1.0
C      1  0.5410240000000  0.4869820000000  0.5069190000000 1.0
C      1  0.5203120000000  0.4842950000000  0.4598380000000 1.0
C      1  0.4720170000000  0.4815500000000  0.4704400000000 1.0
C      1  0.4601040000000  0.4829780000000  0.5187330000000 1.0
C      1  0.5065000000000  0.4874330000000  0.5423510000000 1.0
C      1  0.4892570000000  0.4239180000000  0.5269580000000 1.0
C      1  0.5221240000000  0.4226710000000  0.5192550000000 1.0
C      1  0.5240910000000  0.4227430000000  0.4853360000000 1.0
C      1  0.4937710000000  0.4229480000000  0.4734200000000 1.0
C      1  0.4711360000000  0.4223480000000  0.4983310000000 1.0
C      1  0.4883290000000  0.5779550000000  0.5262770000000 1.0
C      1  0.5211930000000  0.5780180000000  0.5177730000000 1.0
C      1  0.5236280000000  0.5765340000000  0.4849680000000 1.0
C      1  0.4922390000000  0.5781320000000  0.4722500000000 1.0
C      1  0.4704960000000  0.5764610000000  0.4981120000000 1.0
C      1  0.5018830000000  0.4850160000000  0.4366520000000 1.0
C      1  0.4440700000000  0.4866540000000  0.4779230000000 1.0
C      1  0.4604980000000  0.4877460000000  0.5471500000000 1.0
C      1  0.5335900000000  0.4849680000000  0.5518570000000 1.0
C      1  0.5575690000000  0.4874010000000  0.4829710000000 1.0
C      1  0.5012330000000  0.5145080000000  0.4390160000000 1.0
C      1  0.4509930000000  0.5153950000000  0.4732010000000 1.0
C      1  0.4637000000000  0.5159460000000  0.5413100000000 1.0
C      1  0.5355280000000  0.5146280000000  0.5522360000000 1.0
C      1  0.5589560000000  0.5167760000000  0.4850240000000 1.0
C      1  0.5430350000000  0.5284570000000  0.4622910000000 1.0
C      1  0.4778560000000  0.5341570000000  0.4367280000000 1.0
C      1  0.4399770000000  0.5292380000000  0.4995800000000 1.0
C      1  0.4841420000000  0.5308490000000  0.5568140000000 1.0
C      1  0.5493610000000  0.5313980000000  0.5321100000000 1.0
C      1  0.5456710000000  0.4698090000000  0.4623800000000 1.0
C      1  0.4792560000000  0.4684590000000  0.4459430000000 1.0
C      1  0.4405090000000  0.4696680000000  0.5016120000000 1.0
C      1  0.4853000000000  0.4720530000000  0.5565520000000 1.0
C      1  0.5501380000000  0.4710180000000  0.5308660000000 1.0
C      1  0.4753870000000  0.4526060000000  0.4973520000000 1.0
C      1  0.4892520000000  0.4523470000000  0.5236140000000 1.0
C      1  0.5180220000000  0.4530360000000  0.5171710000000 1.0
C      1  0.5208870000000  0.4516850000000  0.4873720000000 1.0
C      1  0.4946710000000  0.4515740000000  0.4763360000000 1.0
C      1  0.4747530000000  0.5476880000000  0.4972920000000 1.0
C      1  0.4901210000000  0.5476290000000  0.5219720000000 1.0
C      1  0.5187070000000  0.5489920000000  0.5159680000000 1.0
C      1  0.5219300000000  0.5486140000000  0.4874310000000 1.0
C      1  0.4943070000000  0.5477480000000  0.4745590000000 1.0
C      1  0.5570300000000  0.5055560000000  0.4465480000000 1.0
C      1  0.4241340000000  0.5060850000000  0.5072880000000 1.0
C      1  0.5700030000000  0.4973190000000  0.5394060000000 1.0
C      1  0.4584900000000  0.5134520000000  0.4411700000000 1.0
C      1  0.4840620000000  0.4966990000000  0.5790410000000 1.0
END
