TITL C-2441164-471-962 0.0007782350285696 125000 -5397.11817614877 0 0 38 (C1) n - 1
REM
REM in /home/bkarasulu/work/CARBON/AIRSS/Generating-Clusters/ReaxFF-fromJPCA2015/Units_Real/with-SteepDescent/Higher-Symm
REM
REM
REM
REM
REM
REM ./C.cell (1df0a924f5614ab8850e4351716899ee)
REM
REM compiler GCC version 9.2.1 20190827 (Red Hat 9.2.1-1)
REM options -cpp -mtune=generic -march=x86-64 -g -O0 -fpre-include=/usr/include/finclude/math-vector-fortran.h
REM seed -182885966 -6682092 -1632726265 -18678647 -1187204139 1644674766 -844383477 -780685431 675551714 -257758200 1060416809 -584131777 573219430 -1242724755 -1901223077 -1599279532 830099770 1736366001 2034737216 68502771 1848317519 636476404 1526022009 -1688450525 778611207 1681658391 -863716839 1236013900 -1462388072 1382943394 -2118654543 206097691 -1574586410
REM
CELL 1.54180   50.00000   50.00000   50.00000   90.00000   90.00000   90.00000
LATT -1
SFAC C  
C      1  0.4869120000000  0.4592400000000  0.4500170000000 1.0
C      1  0.4495420000000  0.4606280000000  0.4934750000000 1.0
C      1  0.4793790000000  0.4580320000000  0.5388490000000 1.0
C      1  0.5465460000000  0.4559700000000  0.5486590000000 1.0
C      1  0.5375260000000  0.4559710000000  0.4737780000000 1.0
C      1  0.4968580000000  0.5413710000000  0.5519830000000 1.0
C      1  0.4452300000000  0.5422560000000  0.4990420000000 1.0
C      1  0.4823840000000  0.5406090000000  0.4544570000000 1.0
C      1  0.5338910000000  0.5374980000000  0.4711790000000 1.0
C      1  0.5428950000000  0.5401680000000  0.5223750000000 1.0
C      1  0.5514450000000  0.5176290000000  0.5286630000000 1.0
C      1  0.5460730000000  0.5170300000000  0.4626350000000 1.0
C      1  0.4793970000000  0.5204520000000  0.4397160000000 1.0
C      1  0.4323790000000  0.5208110000000  0.4991380000000 1.0
C      1  0.4891220000000  0.5174440000000  0.5562770000000 1.0
C      1  0.5491730000000  0.4768860000000  0.4654780000000 1.0
C      1  0.5490920000000  0.4799070000000  0.5418110000000 1.0
C      1  0.4783370000000  0.4804610000000  0.5505210000000 1.0
C      1  0.4347190000000  0.4807690000000  0.4946520000000 1.0
C      1  0.4829940000000  0.4804780000000  0.4369660000000 1.0
C      1  0.5259140000000  0.5603490000000  0.5138880000000 1.0
C      1  0.5170920000000  0.5555180000000  0.4853750000000 1.0
C      1  0.4887850000000  0.5575130000000  0.4761360000000 1.0
C      1  0.4661550000000  0.5622790000000  0.4972100000000 1.0
C      1  0.5052070000000  0.5644580000000  0.5365120000000 1.0
C      1  0.5178210000000  0.4386520000000  0.4845690000000 1.0
C      1  0.5310910000000  0.4436270000000  0.5334010000000 1.0
C      1  0.4844160000000  0.4381890000000  0.5197260000000 1.0
C      1  0.4705490000000  0.4417240000000  0.4935360000000 1.0
C      1  0.4910590000000  0.4414060000000  0.4716200000000 1.0
C      1  0.4469460000000  0.5015990000000  0.4963340000000 1.0
C      1  0.5365470000000  0.4966410000000  0.4714090000000 1.0
C      1  0.4843380000000  0.4998830000000  0.4514320000000 1.0
C      1  0.4866650000000  0.5010280000000  0.5337300000000 1.0
C      1  0.5366230000000  0.4956740000000  0.5218600000000 1.0
C      1  0.4841190000000  0.5663440000000  0.5184310000000 1.0
C      1  0.5131080000000  0.4342490000000  0.5137570000000 1.0
C      1  0.5077370000000  0.4973780000000  0.5127910000000 1.0
END
