TITL C-2441156-4686-923 0.0178470026794924 125000 -8540.27146356808 0 0 64 (C1) n - 1
REM
REM in /home/bkarasulu/work/CARBON/AIRSS/Generating-Clusters/ReaxFF-fromJPCA2015/Units_Real/with-SteepDescent/Higher-Symm
REM
REM
REM
REM
REM
REM ./C.cell (1df0a924f5614ab8850e4351716899ee)
REM
REM compiler GCC version 9.2.1 20190827 (Red Hat 9.2.1-1)
REM options -cpp -mtune=generic -march=x86-64 -g -O0 -fpre-include=/usr/include/finclude/math-vector-fortran.h
REM seed 1021380781 744106556 -1743699512 704241764 -2103702230 2131538156 1046842403 110719677 -205648106 2081050669 -955496379 1401651387 1729174134 -755336334 546086913 1510863191 -1905008221 -1906541068 1252565060 1184981520 109154331 718164255 -382870640 -34547453 549612182 818792884 -920422095 -1950025950 289431211 1447119946 -423917439 -1799170658 415336977
REM
CELL 1.54180   50.00000   50.00000   50.00000   90.00000   90.00000   90.00000
LATT -1
SFAC C  
C      1  0.4787440000000  0.5608540000000  0.4663950000000 1.0
C      1  0.4849510000000  0.4500130000000  0.5485280000000 1.0
C      1  0.4829190000000  0.5463070000000  0.5440720000000 1.0
C      1  0.4768570000000  0.4474650000000  0.4540820000000 1.0
C      1  0.4439640000000  0.5313750000000  0.5246350000000 1.0
C      1  0.4527910000000  0.4614020000000  0.4662670000000 1.0
C      1  0.4419500000000  0.5314450000000  0.4667390000000 1.0
C      1  0.4430750000000  0.4642040000000  0.5299680000000 1.0
C      1  0.4389000000000  0.4830050000000  0.5517980000000 1.0
C      1  0.4450730000000  0.5139530000000  0.4432040000000 1.0
C      1  0.4469320000000  0.4856630000000  0.4432970000000 1.0
C      1  0.4380350000000  0.5132800000000  0.5489460000000 1.0
C      1  0.5268000000000  0.4721160000000  0.5133010000000 1.0
C      1  0.5388240000000  0.5314990000000  0.4893800000000 1.0
C      1  0.5236440000000  0.4680740000000  0.4850920000000 1.0
C      1  0.5301130000000  0.5283340000000  0.5169240000000 1.0
C      1  0.5246980000000  0.4583670000000  0.5399710000000 1.0
C      1  0.5231280000000  0.5427930000000  0.4662120000000 1.0
C      1  0.5238420000000  0.4527820000000  0.4596730000000 1.0
C      1  0.5239460000000  0.5423290000000  0.5413010000000 1.0
C      1  0.5062340000000  0.5900100000000  0.5189310000000 1.0
C      1  0.5024920000000  0.4131220000000  0.4868700000000 1.0
C      1  0.5043060000000  0.5902440000000  0.4919620000000 1.0
C      1  0.5007130000000  0.4162130000000  0.5170640000000 1.0
C      1  0.5021940000000  0.5291280000000  0.5564570000000 1.0
C      1  0.4996190000000  0.4619290000000  0.4433440000000 1.0
C      1  0.4948980000000  0.5374720000000  0.4584430000000 1.0
C      1  0.5013320000000  0.4703440000000  0.5560210000000 1.0
C      1  0.4664200000000  0.4791660000000  0.5173250000000 1.0
C      1  0.4619240000000  0.5179360000000  0.4833610000000 1.0
C      1  0.4644040000000  0.4769760000000  0.4877800000000 1.0
C      1  0.4725060000000  0.5274730000000  0.5255550000000 1.0
C      1  0.5191790000000  0.4274350000000  0.4701430000000 1.0
C      1  0.5174500000000  0.5710310000000  0.5378190000000 1.0
C      1  0.5182820000000  0.4315440000000  0.5323220000000 1.0
C      1  0.5193160000000  0.5705100000000  0.4618390000000 1.0
C      1  0.4767210000000  0.4296220000000  0.5303140000000 1.0
C      1  0.4974320000000  0.5820850000000  0.4687260000000 1.0
C      1  0.4780090000000  0.4279140000000  0.4760590000000 1.0
C      1  0.4900650000000  0.5732250000000  0.5359830000000 1.0
C      1  0.4514820000000  0.4392650000000  0.5168330000000 1.0
C      1  0.4510010000000  0.5571870000000  0.4782820000000 1.0
C      1  0.4533200000000  0.4372140000000  0.4877490000000 1.0
C      1  0.4419310000000  0.5550210000000  0.5063910000000 1.0
C      1  0.5603390000000  0.5114190000000  0.4825750000000 1.0
C      1  0.5676920000000  0.5024470000000  0.5079550000000 1.0
C      1  0.4895530000000  0.5006860000000  0.5600140000000 1.0
C      1  0.4960960000000  0.4872020000000  0.4297830000000 1.0
C      1  0.4678760000000  0.4974940000000  0.4288540000000 1.0
C      1  0.4582710000000  0.5007390000000  0.5645680000000 1.0
C      1  0.4840040000000  0.5017310000000  0.5317370000000 1.0
C      1  0.4837700000000  0.5112750000000  0.4652870000000 1.0
C      1  0.5545100000000  0.4997860000000  0.5732280000000 1.0
C      1  0.5499240000000  0.4973820000000  0.4295830000000 1.0
C      1  0.5215310000000  0.5006350000000  0.4244270000000 1.0
C      1  0.5327140000000  0.5001300000000  0.5865200000000 1.0
C      1  0.5349210000000  0.5061800000000  0.4489650000000 1.0
C      1  0.5474970000000  0.4984760000000  0.5500020000000 1.0
C      1  0.5653080000000  0.4988290000000  0.5335080000000 1.0
C      1  0.5619610000000  0.4997030000000  0.4556170000000 1.0
C      1  0.5066190000000  0.4937330000000  0.4749650000000 1.0
C      1  0.5149390000000  0.5005800000000  0.5226710000000 1.0
C      1  0.5049900000000  0.5023380000000  0.4977260000000 1.0
C      1  0.4511380000000  0.4979910000000  0.4990690000000 1.0
END
