TITL C-2441166-8118-471 0.0528517877767252 125000 -21886.5485593759 0 0 154 (C1) n - 1
REM
REM in /home/bkarasulu/work/CARBON/AIRSS/Generating-Clusters/ReaxFF-fromJPCA2015/Units_Real/with-SteepDescent/Higher-Symm
REM
REM
REM
REM
REM
REM ./C.cell (1df0a924f5614ab8850e4351716899ee)
REM
REM compiler GCC version 9.2.1 20190827 (Red Hat 9.2.1-1)
REM options -cpp -mtune=generic -march=x86-64 -g -O0 -fpre-include=/usr/include/finclude/math-vector-fortran.h
REM seed -9572852 887467059 424957656 78198932 1690511595 -209605494 1809184624 -1372179642 -458299528 2103524076 -985809038 2064299682 -1531565406 1854983947 1700942954 859340947 1921622126 434064112 237271600 -306494421 -1879482520 -1678624377 606999126 61626249 -1380528880 2097671213 -549705959 -437006850 303780068 210274912 1275450983 -1884662623 1512401872
REM
CELL 1.54180   50.00000   50.00000   50.00000   90.00000   90.00000   90.00000
LATT -1
SFAC C  
C      1  0.5067990000000  0.5723300000000  0.5336340000000 1.0
C      1  0.4726160000000  0.5876560000000  0.4541840000000 1.0
C      1  0.5408370000000  0.4889410000000  0.5055190000000 1.0
C      1  0.4975570000000  0.5129490000000  0.4490520000000 1.0
C      1  0.5867250000000  0.5200850000000  0.5596380000000 1.0
C      1  0.4374160000000  0.5542120000000  0.4684960000000 1.0
C      1  0.4786310000000  0.4084490000000  0.5109680000000 1.0
C      1  0.4983190000000  0.4067490000000  0.4515510000000 1.0
C      1  0.4434110000000  0.5100060000000  0.4816190000000 1.0
C      1  0.5018960000000  0.5492880000000  0.5171280000000 1.0
C      1  0.5425240000000  0.4431740000000  0.4338290000000 1.0
C      1  0.5186350000000  0.4688130000000  0.4091350000000 1.0
C      1  0.4974020000000  0.5523360000000  0.4727340000000 1.0
C      1  0.5455830000000  0.4079960000000  0.4705430000000 1.0
C      1  0.5613590000000  0.5730940000000  0.4617290000000 1.0
C      1  0.5482270000000  0.5197750000000  0.5326900000000 1.0
C      1  0.5797010000000  0.4711680000000  0.5560930000000 1.0
C      1  0.5001250000000  0.4002030000000  0.5615930000000 1.0
C      1  0.4362720000000  0.5623110000000  0.5564000000000 1.0
C      1  0.5334600000000  0.4247590000000  0.5466350000000 1.0
C      1  0.5244850000000  0.5300080000000  0.5179400000000 1.0
C      1  0.4570150000000  0.4524810000000  0.4864840000000 1.0
C      1  0.4616460000000  0.4204710000000  0.4589540000000 1.0
C      1  0.5053920000000  0.4548610000000  0.5163250000000 1.0
C      1  0.4616030000000  0.4566870000000  0.4149350000000 1.0
C      1  0.4776700000000  0.5292860000000  0.4046360000000 1.0
C      1  0.5282860000000  0.5304750000000  0.4115770000000 1.0
C      1  0.4058730000000  0.4629720000000  0.4957830000000 1.0
C      1  0.5821000000000  0.5205950000000  0.5308480000000 1.0
C      1  0.5018970000000  0.4271380000000  0.4740510000000 1.0
C      1  0.4589810000000  0.5078000000000  0.4075260000000 1.0
C      1  0.5926610000000  0.4472330000000  0.5121270000000 1.0
C      1  0.4259190000000  0.4542330000000  0.4491720000000 1.0
C      1  0.4712550000000  0.4823180000000  0.4043210000000 1.0
C      1  0.4899480000000  0.6072030000000  0.5241060000000 1.0
C      1  0.5310780000000  0.5473370000000  0.5817390000000 1.0
C      1  0.5084110000000  0.5105340000000  0.5738910000000 1.0
C      1  0.5377300000000  0.4905560000000  0.4532010000000 1.0
C      1  0.4295930000000  0.5684360000000  0.5311540000000 1.0
C      1  0.4310280000000  0.5127890000000  0.5806840000000 1.0
C      1  0.4887130000000  0.5428270000000  0.5553700000000 1.0
C      1  0.4934200000000  0.5212120000000  0.5963310000000 1.0
C      1  0.5161000000000  0.4229860000000  0.5701060000000 1.0
C      1  0.5395940000000  0.4715970000000  0.5794900000000 1.0
C      1  0.5337770000000  0.5835710000000  0.5258560000000 1.0
C      1  0.5728440000000  0.5173250000000  0.4684550000000 1.0
C      1  0.5545380000000  0.4961660000000  0.5859850000000 1.0
C      1  0.4955000000000  0.4770310000000  0.4800820000000 1.0
C      1  0.5004940000000  0.4683110000000  0.5627850000000 1.0
C      1  0.5706500000000  0.5321680000000  0.4265850000000 1.0
C      1  0.5672440000000  0.4905710000000  0.4228400000000 1.0
C      1  0.5543610000000  0.5085320000000  0.4886670000000 1.0
C      1  0.5547220000000  0.5604960000000  0.5661190000000 1.0
C      1  0.4946930000000  0.5887760000000  0.4726500000000 1.0
C      1  0.4781620000000  0.4720610000000  0.5468680000000 1.0
C      1  0.4372250000000  0.4519010000000  0.5240470000000 1.0
C      1  0.5617080000000  0.5630950000000  0.4908950000000 1.0
C      1  0.5920480000000  0.4766900000000  0.4737520000000 1.0
C      1  0.5509880000000  0.5250780000000  0.5895380000000 1.0
C      1  0.5122460000000  0.5780000000000  0.4326990000000 1.0
C      1  0.4508520000000  0.5796630000000  0.4711150000000 1.0
C      1  0.5496930000000  0.4252030000000  0.4979010000000 1.0
C      1  0.5041340000000  0.5180870000000  0.4016440000000 1.0
C      1  0.6028120000000  0.4511690000000  0.4834670000000 1.0
C      1  0.5434930000000  0.5352180000000  0.4926120000000 1.0
C      1  0.4366340000000  0.4323000000000  0.4948360000000 1.0
C      1  0.4755560000000  0.4477610000000  0.5871100000000 1.0
C      1  0.5927010000000  0.4707280000000  0.5300310000000 1.0
C      1  0.5264600000000  0.4210880000000  0.5170020000000 1.0
C      1  0.5253440000000  0.4830450000000  0.4310830000000 1.0
C      1  0.4595440000000  0.5872330000000  0.4976040000000 1.0
C      1  0.4767120000000  0.5218210000000  0.5402230000000 1.0
C      1  0.5705070000000  0.4305950000000  0.5182520000000 1.0
C      1  0.4195630000000  0.4752030000000  0.5441790000000 1.0
C      1  0.4106040000000  0.5228350000000  0.5298120000000 1.0
C      1  0.5171950000000  0.5942700000000  0.4560730000000 1.0
C      1  0.4812920000000  0.5394720000000  0.4975660000000 1.0
C      1  0.4836290000000  0.6021510000000  0.4975030000000 1.0
C      1  0.4517150000000  0.4662430000000  0.5871940000000 1.0
C      1  0.3980630000000  0.5058690000000  0.5113190000000 1.0
C      1  0.5213530000000  0.4863430000000  0.5618130000000 1.0
C      1  0.5572300000000  0.5719450000000  0.5392480000000 1.0
C      1  0.5941090000000  0.5271860000000  0.4861650000000 1.0
C      1  0.4504360000000  0.4413720000000  0.4417870000000 1.0
C      1  0.5633520000000  0.4635540000000  0.4343430000000 1.0
C      1  0.5383160000000  0.4933860000000  0.5332410000000 1.0
C      1  0.4964330000000  0.5086080000000  0.5220840000000 1.0
C      1  0.6027960000000  0.4993650000000  0.4908290000000 1.0
C      1  0.4819740000000  0.3950730000000  0.5387250000000 1.0
C      1  0.4622280000000  0.4329460000000  0.5667550000000 1.0
C      1  0.3954980000000  0.5481500000000  0.4915620000000 1.0
C      1  0.4865400000000  0.5388740000000  0.4492530000000 1.0
C      1  0.4502930000000  0.5588230000000  0.5796230000000 1.0
C      1  0.5309840000000  0.5562510000000  0.4257600000000 1.0
C      1  0.4646740000000  0.5167420000000  0.6035070000000 1.0
C      1  0.5901650000000  0.5419380000000  0.5110800000000 1.0
C      1  0.4279270000000  0.5082340000000  0.5506940000000 1.0
C      1  0.5001330000000  0.4211420000000  0.4243320000000 1.0
C      1  0.5765490000000  0.5657690000000  0.5174630000000 1.0
C      1  0.5218460000000  0.5132610000000  0.4604280000000 1.0
C      1  0.5415120000000  0.5836380000000  0.4982710000000 1.0
C      1  0.4809840000000  0.5615380000000  0.5763450000000 1.0
C      1  0.4252060000000  0.5398580000000  0.4462520000000 1.0
C      1  0.5571460000000  0.5565290000000  0.4383400000000 1.0
C      1  0.5535120000000  0.5146660000000  0.4106840000000 1.0
C      1  0.3938530000000  0.5206150000000  0.4840360000000 1.0
C      1  0.4429140000000  0.5019710000000  0.4304200000000 1.0
C      1  0.5242760000000  0.3956230000000  0.4585740000000 1.0
C      1  0.4828780000000  0.4373140000000  0.5201310000000 1.0
C      1  0.4152650000000  0.4467400000000  0.4764380000000 1.0
C      1  0.4991170000000  0.4888780000000  0.3992390000000 1.0
C      1  0.4937660000000  0.4806880000000  0.5244700000000 1.0
C      1  0.4831510000000  0.5095650000000  0.4986790000000 1.0
C      1  0.4831670000000  0.4912570000000  0.4580800000000 1.0
C      1  0.5230470000000  0.5372890000000  0.4727610000000 1.0
C      1  0.5784940000000  0.4953270000000  0.5703230000000 1.0
C      1  0.4458850000000  0.5373220000000  0.4911310000000 1.0
C      1  0.4518820000000  0.5113270000000  0.5345200000000 1.0
C      1  0.4066860000000  0.4915940000000  0.4464570000000 1.0
C      1  0.5416830000000  0.5922630000000  0.4707240000000 1.0
C      1  0.4834190000000  0.4512620000000  0.4759030000000 1.0
C      1  0.4550290000000  0.4993510000000  0.5065850000000 1.0
C      1  0.4238170000000  0.4777200000000  0.4307800000000 1.0
C      1  0.5052920000000  0.4479400000000  0.5827030000000 1.0
C      1  0.4006110000000  0.4776700000000  0.5179550000000 1.0
C      1  0.4782570000000  0.4144990000000  0.5561870000000 1.0
C      1  0.4478910000000  0.4936300000000  0.5957700000000 1.0
C      1  0.4484540000000  0.4702030000000  0.5056670000000 1.0
C      1  0.4835470000000  0.5764200000000  0.4305420000000 1.0
C      1  0.5630510000000  0.4704560000000  0.4634380000000 1.0
C      1  0.5575990000000  0.4539810000000  0.5632540000000 1.0
C      1  0.5223780000000  0.4683030000000  0.4932680000000 1.0
C      1  0.4563900000000  0.4122840000000  0.4856520000000 1.0
C      1  0.4443220000000  0.5343500000000  0.5928480000000 1.0
C      1  0.5589420000000  0.4333720000000  0.5442080000000 1.0
C      1  0.4070340000000  0.5172280000000  0.4566900000000 1.0
C      1  0.4557340000000  0.5807040000000  0.5248750000000 1.0
C      1  0.5003800000000  0.5495150000000  0.5943320000000 1.0
C      1  0.4443490000000  0.5410140000000  0.4257000000000 1.0
C      1  0.5220170000000  0.4385360000000  0.4144510000000 1.0
C      1  0.5154890000000  0.5340050000000  0.5598560000000 1.0
C      1  0.4805680000000  0.5874660000000  0.5412840000000 1.0
C      1  0.4717980000000  0.5494670000000  0.4254810000000 1.0
C      1  0.5958440000000  0.4962350000000  0.5184740000000 1.0
C      1  0.5445130000000  0.4519010000000  0.4813540000000 1.0
C      1  0.5339700000000  0.4345360000000  0.4619940000000 1.0
C      1  0.5815270000000  0.5088480000000  0.4409180000000 1.0
C      1  0.4552630000000  0.4995080000000  0.4577340000000 1.0
C      1  0.5720660000000  0.5393470000000  0.5755350000000 1.0
C      1  0.4200210000000  0.5446270000000  0.5122480000000 1.0
C      1  0.4621550000000  0.4478850000000  0.5415650000000 1.0
C      1  0.4804870000000  0.4371430000000  0.4133550000000 1.0
C      1  0.5061300000000  0.4105510000000  0.4991980000000 1.0
C      1  0.4288010000000  0.4610260000000  0.5673570000000 1.0
END
