TITL C-2441165-58-987 0.0785396338225511 125000 -21382.5846413716 0 0 157 (C1) n - 1
REM
REM in /home/bkarasulu/work/CARBON/AIRSS/Generating-Clusters/ReaxFF-fromJPCA2015/Units_Real/with-SteepDescent/Higher-Symm
REM
REM
REM
REM
REM
REM ./C.cell (1df0a924f5614ab8850e4351716899ee)
REM
REM compiler GCC version 9.2.1 20190827 (Red Hat 9.2.1-1)
REM options -cpp -mtune=generic -march=x86-64 -g -O0 -fpre-include=/usr/include/finclude/math-vector-fortran.h
REM seed -1887078751 1326138446 968084245 1780066506 -1935342462 -1445011692 736285317 -350444004 918658674 -1281316773 558517589 -715689877 540295195 -1876046606 2041018206 283527837 889524297 -1919435700 1585666207 1191528185 -1861544083 1716479194 1411593910 918750697 1869823119 -1582845632 326350821 125793748 690559800 -30665715 -758256010 -186204868 -469000575
REM
CELL 1.54180   50.00000   50.00000   50.00000   90.00000   90.00000   90.00000
LATT -1
SFAC C  
C      1  0.4888350000000  0.4557430000000  0.4135260000000 1.0
C      1  0.5066840000000  0.4568220000000  0.5839720000000 1.0
C      1  0.4877960000000  0.5452130000000  0.5867550000000 1.0
C      1  0.5051090000000  0.5434180000000  0.4140700000000 1.0
C      1  0.4169080000000  0.4579310000000  0.4938950000000 1.0
C      1  0.5863680000000  0.4562610000000  0.5114380000000 1.0
C      1  0.5873490000000  0.5457080000000  0.4887900000000 1.0
C      1  0.4130020000000  0.5432940000000  0.5062660000000 1.0
C      1  0.4595720000000  0.5571430000000  0.5854420000000 1.0
C      1  0.5518440000000  0.5437650000000  0.4272350000000 1.0
C      1  0.4619560000000  0.4434240000000  0.4163960000000 1.0
C      1  0.5504600000000  0.4535590000000  0.5707750000000 1.0
C      1  0.5850270000000  0.5575570000000  0.4601290000000 1.0
C      1  0.4262150000000  0.5446160000000  0.5521830000000 1.0
C      1  0.4282240000000  0.4543580000000  0.4495400000000 1.0
C      1  0.5858510000000  0.4433360000000  0.5386330000000 1.0
C      1  0.5670250000000  0.4934940000000  0.5878190000000 1.0
C      1  0.4339350000000  0.4910290000000  0.4146730000000 1.0
C      1  0.5666930000000  0.5061120000000  0.4118620000000 1.0
C      1  0.4329410000000  0.5083260000000  0.5860930000000 1.0
C      1  0.5839440000000  0.4915220000000  0.5647790000000 1.0
C      1  0.4119110000000  0.4927470000000  0.4327110000000 1.0
C      1  0.4119460000000  0.5066750000000  0.5669570000000 1.0
C      1  0.5845780000000  0.5086340000000  0.4341010000000 1.0
C      1  0.5508400000000  0.5119550000000  0.4679740000000 1.0
C      1  0.4414080000000  0.5225830000000  0.5411720000000 1.0
C      1  0.5490880000000  0.4889380000000  0.5314040000000 1.0
C      1  0.4461020000000  0.4761670000000  0.4607720000000 1.0
C      1  0.4658720000000  0.5116210000000  0.5505260000000 1.0
C      1  0.5404320000000  0.5214110000000  0.4431680000000 1.0
C      1  0.5386000000000  0.4755130000000  0.5548200000000 1.0
C      1  0.4675900000000  0.4923730000000  0.4481270000000 1.0
C      1  0.4566840000000  0.5723160000000  0.5611140000000 1.0
C      1  0.5408640000000  0.5689230000000  0.4363140000000 1.0
C      1  0.4586350000000  0.4255080000000  0.4384550000000 1.0
C      1  0.5425810000000  0.4273860000000  0.5617440000000 1.0
C      1  0.5607800000000  0.5726270000000  0.4566440000000 1.0
C      1  0.4339750000000  0.5709840000000  0.5430440000000 1.0
C      1  0.4375550000000  0.4280570000000  0.4581060000000 1.0
C      1  0.5650630000000  0.4246760000000  0.5435080000000 1.0
C      1  0.4202420000000  0.5201590000000  0.4405530000000 1.0
C      1  0.5771330000000  0.5188300000000  0.5564000000000 1.0
C      1  0.4214700000000  0.4810220000000  0.5575430000000 1.0
C      1  0.5786950000000  0.4806450000000  0.4423090000000 1.0
C      1  0.4406310000000  0.5195020000000  0.4201510000000 1.0
C      1  0.5588740000000  0.5214590000000  0.5798530000000 1.0
C      1  0.5587530000000  0.4787860000000  0.4203050000000 1.0
C      1  0.4400480000000  0.4801660000000  0.5805170000000 1.0
C      1  0.4508680000000  0.4684770000000  0.4063970000000 1.0
C      1  0.5517390000000  0.4694770000000  0.5950750000000 1.0
C      1  0.4495470000000  0.5310210000000  0.5945470000000 1.0
C      1  0.5511370000000  0.5290150000000  0.4022230000000 1.0
C      1  0.4036660000000  0.4696430000000  0.4493830000000 1.0
C      1  0.5945200000000  0.4688590000000  0.5493060000000 1.0
C      1  0.5935480000000  0.5313590000000  0.4501220000000 1.0
C      1  0.4018580000000  0.5292010000000  0.5508580000000 1.0
C      1  0.5865640000000  0.5506660000000  0.5193830000000 1.0
C      1  0.4145530000000  0.5500230000000  0.4784420000000 1.0
C      1  0.5861640000000  0.4501620000000  0.4806010000000 1.0
C      1  0.4126860000000  0.4502510000000  0.5216760000000 1.0
C      1  0.5192020000000  0.5494570000000  0.5847760000000 1.0
C      1  0.4770550000000  0.5517720000000  0.4151440000000 1.0
C      1  0.4784240000000  0.4505620000000  0.5869770000000 1.0
C      1  0.5197130000000  0.4511620000000  0.4140160000000 1.0
C      1  0.5160360000000  0.4188140000000  0.4483280000000 1.0
C      1  0.4847460000000  0.4195430000000  0.5480080000000 1.0
C      1  0.5196070000000  0.5839480000000  0.5418670000000 1.0
C      1  0.4850650000000  0.5869930000000  0.4532030000000 1.0
C      1  0.4506800000000  0.4178030000000  0.5184070000000 1.0
C      1  0.5450550000000  0.4188780000000  0.4925640000000 1.0
C      1  0.5401730000000  0.5863830000000  0.5166130000000 1.0
C      1  0.4566550000000  0.5770200000000  0.4920010000000 1.0
C      1  0.5634190000000  0.4782910000000  0.5107460000000 1.0
C      1  0.4408530000000  0.4735910000000  0.4880220000000 1.0
C      1  0.5562880000000  0.5331240000000  0.4869330000000 1.0
C      1  0.4398820000000  0.5347120000000  0.5140320000000 1.0
C      1  0.5112180000000  0.4744250000000  0.5611740000000 1.0
C      1  0.4879760000000  0.4757810000000  0.4381080000000 1.0
C      1  0.4858100000000  0.5293200000000  0.5592190000000 1.0
C      1  0.5119630000000  0.5286460000000  0.4401410000000 1.0
C      1  0.4939460000000  0.5109800000000  0.4568400000000 1.0
C      1  0.5065870000000  0.5149080000000  0.5459410000000 1.0
C      1  0.4934830000000  0.4889190000000  0.5427310000000 1.0
C      1  0.5065440000000  0.4850880000000  0.4570900000000 1.0
C      1  0.4550860000000  0.5171870000000  0.4978830000000 1.0
C      1  0.5420050000000  0.5141350000000  0.5078130000000 1.0
C      1  0.5447640000000  0.4894060000000  0.4900790000000 1.0
C      1  0.4603640000000  0.4892760000000  0.5051090000000 1.0
C      1  0.5276410000000  0.5868800000000  0.4898770000000 1.0
C      1  0.4827920000000  0.5918200000000  0.5018340000000 1.0
C      1  0.5127240000000  0.4097800000000  0.4975240000000 1.0
C      1  0.4718660000000  0.4096260000000  0.5006380000000 1.0
C      1  0.4922260000000  0.5869110000000  0.5289820000000 1.0
C      1  0.5004380000000  0.5945240000000  0.4796600000000 1.0
C      1  0.5022850000000  0.4083260000000  0.5254060000000 1.0
C      1  0.5010280000000  0.4066720000000  0.4713030000000 1.0
C      1  0.5203740000000  0.4673400000000  0.4993040000000 1.0
C      1  0.4758700000000  0.4624920000000  0.5014560000000 1.0
C      1  0.5174630000000  0.5271970000000  0.5025370000000 1.0
C      1  0.4745600000000  0.5325740000000  0.4887140000000 1.0
C      1  0.4974680000000  0.4671180000000  0.5208670000000 1.0
C      1  0.5007840000000  0.4646640000000  0.4766880000000 1.0
C      1  0.5059610000000  0.5353350000000  0.5248840000000 1.0
C      1  0.4981130000000  0.5214660000000  0.4834180000000 1.0
C      1  0.4739780000000  0.5562150000000  0.4800000000000 1.0
C      1  0.5375730000000  0.5571700000000  0.5169080000000 1.0
C      1  0.4630390000000  0.4450700000000  0.5175740000000 1.0
C      1  0.5340970000000  0.4449960000000  0.4851830000000 1.0
C      1  0.4926630000000  0.5605240000000  0.4604380000000 1.0
C      1  0.5185700000000  0.5561560000000  0.5327420000000 1.0
C      1  0.5156980000000  0.4434740000000  0.4641740000000 1.0
C      1  0.4837870000000  0.4457800000000  0.5356210000000 1.0
C      1  0.4512540000000  0.5647130000000  0.5197910000000 1.0
C      1  0.5404320000000  0.5629260000000  0.4769770000000 1.0
C      1  0.4592230000000  0.4252940000000  0.4793880000000 1.0
C      1  0.5469360000000  0.4241170000000  0.5212040000000 1.0
C      1  0.5205760000000  0.5571820000000  0.4553470000000 1.0
C      1  0.4743960000000  0.5665260000000  0.5386360000000 1.0
C      1  0.4777400000000  0.4242440000000  0.4599830000000 1.0
C      1  0.5244330000000  0.4244160000000  0.5384640000000 1.0
C      1  0.5141830000000  0.5005190000000  0.5975840000000 1.0
C      1  0.4851050000000  0.5028660000000  0.4020360000000 1.0
C      1  0.5137460000000  0.4996800000000  0.4019170000000 1.0
C      1  0.4852510000000  0.4987890000000  0.5978390000000 1.0
C      1  0.5989580000000  0.5025370000000  0.5136130000000 1.0
C      1  0.4036130000000  0.5019160000000  0.4838320000000 1.0
C      1  0.4009510000000  0.4981910000000  0.5125620000000 1.0
C      1  0.5979810000000  0.4990550000000  0.4853140000000 1.0
C      1  0.5305810000000  0.4765910000000  0.4115110000000 1.0
C      1  0.4678960000000  0.4770570000000  0.5894850000000 1.0
C      1  0.5304830000000  0.5235720000000  0.5881560000000 1.0
C      1  0.4679720000000  0.5244490000000  0.4118480000000 1.0
C      1  0.4109310000000  0.4768110000000  0.5307950000000 1.0
C      1  0.5888420000000  0.4761080000000  0.4694250000000 1.0
C      1  0.5889750000000  0.5247580000000  0.5303580000000 1.0
C      1  0.4119420000000  0.5242080000000  0.4672930000000 1.0
C      1  0.4307780000000  0.4330410000000  0.5369560000000 1.0
C      1  0.5678110000000  0.4328100000000  0.4671700000000 1.0
C      1  0.4360650000000  0.5653230000000  0.4664100000000 1.0
C      1  0.5676000000000  0.5659840000000  0.5345380000000 1.0
C      1  0.5359050000000  0.4339440000000  0.4307040000000 1.0
C      1  0.4645390000000  0.4321120000000  0.5681310000000 1.0
C      1  0.4637900000000  0.5708950000000  0.4349530000000 1.0
C      1  0.5335910000000  0.5665280000000  0.5670930000000 1.0
C      1  0.5236260000000  0.4734620000000  0.6015430000000 1.0
C      1  0.4761620000000  0.4762420000000  0.3964150000000 1.0
C      1  0.5223670000000  0.5267260000000  0.3968510000000 1.0
C      1  0.4758020000000  0.5242170000000  0.6025500000000 1.0
C      1  0.6035480000000  0.4766040000000  0.5235670000000 1.0
C      1  0.3975230000000  0.4742410000000  0.4778630000000 1.0
C      1  0.3968810000000  0.5255070000000  0.5222110000000 1.0
C      1  0.6015970000000  0.5243840000000  0.4758140000000 1.0
C      1  0.4412010000000  0.4461290000000  0.5598320000000 1.0
C      1  0.4426280000000  0.5537270000000  0.4420500000000 1.0
C      1  0.5591740000000  0.4454720000000  0.4428920000000 1.0
C      1  0.5575980000000  0.5545070000000  0.5589220000000 1.0
C      1  0.4907020000000  0.4981450000000  0.4971500000000 1.0
END
