TITL C-2441160-1326-409 0.184652255475864 125000 -23826.9113124407 0 0 189 (C1) n - 1
REM
REM in /home/bkarasulu/work/CARBON/AIRSS/Generating-Clusters/ReaxFF-fromJPCA2015/Units_Real/with-SteepDescent/Higher-Symm
REM
REM
REM
REM
REM
REM ./C.cell (1df0a924f5614ab8850e4351716899ee)
REM
REM compiler GCC version 9.2.1 20190827 (Red Hat 9.2.1-1)
REM options -cpp -mtune=generic -march=x86-64 -g -O0 -fpre-include=/usr/include/finclude/math-vector-fortran.h
REM seed -108426938 750590999 -2095842543 -1899115317 -1531935717 -542809482 -845101367 1462239170 -862476427 -44164358 1309937346 977010262 194176256 -1362401440 -197734604 -106358849 -1304115189 -737723393 -215372822 -984789572 1441472585 804880362 -1180903155 152890873 -194731448 -1032925643 -614697106 -1664221881 -1887163997 1384272913 -620073829 1500133126 841587866
REM
CELL 1.54180   50.00000   50.00000   50.00000   90.00000   90.00000   90.00000
LATT -1
SFAC C  
C      1  0.4348860000000  0.4754920000000  0.4135030000000 1.0
C      1  0.3991550000000  0.4760490000000  0.5363840000000 1.0
C      1  0.5042720000000  0.4757150000000  0.6091730000000 1.0
C      1  0.6061710000000  0.4767240000000  0.5288340000000 1.0
C      1  0.5599830000000  0.4778240000000  0.4116140000000 1.0
C      1  0.4398310000000  0.5212760000000  0.4948880000000 1.0
C      1  0.4859590000000  0.5236890000000  0.5575410000000 1.0
C      1  0.5581380000000  0.5183500000000  0.5366110000000 1.0
C      1  0.5444070000000  0.5243370000000  0.4494520000000 1.0
C      1  0.4884460000000  0.5242930000000  0.4443380000000 1.0
C      1  0.5387230000000  0.5741870000000  0.4187480000000 1.0
C      1  0.4394850000000  0.5699240000000  0.4446320000000 1.0
C      1  0.4302100000000  0.5707380000000  0.5408760000000 1.0
C      1  0.5173340000000  0.5702670000000  0.5789600000000 1.0
C      1  0.5856980000000  0.5705430000000  0.5084260000000 1.0
C      1  0.5492120000000  0.5746950000000  0.5349200000000 1.0
C      1  0.5492850000000  0.5776110000000  0.4646820000000 1.0
C      1  0.4843200000000  0.5765520000000  0.4422670000000 1.0
C      1  0.4333500000000  0.5831260000000  0.4964930000000 1.0
C      1  0.4760910000000  0.5824760000000  0.5618460000000 1.0
C      1  0.5036490000000  0.4780740000000  0.4329410000000 1.0
C      1  0.4389320000000  0.4775840000000  0.4687480000000 1.0
C      1  0.4561660000000  0.4801250000000  0.5515430000000 1.0
C      1  0.5334790000000  0.4777120000000  0.5553940000000 1.0
C      1  0.5689400000000  0.4769030000000  0.4923130000000 1.0
C      1  0.5350020000000  0.6087550000000  0.4966130000000 1.0
C      1  0.5078000000000  0.6100260000000  0.4653630000000 1.0
C      1  0.4702030000000  0.6093290000000  0.4822960000000 1.0
C      1  0.4743950000000  0.6085440000000  0.5236830000000 1.0
C      1  0.5152230000000  0.6083090000000  0.5335960000000 1.0
C      1  0.5398730000000  0.5124100000000  0.4958290000000 1.0
C      1  0.5151820000000  0.5087710000000  0.4793320000000 1.0
C      1  0.4755630000000  0.5081260000000  0.4808000000000 1.0
C      1  0.4747690000000  0.5075810000000  0.5199630000000 1.0
C      1  0.5131950000000  0.5036820000000  0.5254260000000 1.0
C      1  0.5257790000000  0.4314730000000  0.5688960000000 1.0
C      1  0.5806040000000  0.4293760000000  0.4941600000000 1.0
C      1  0.5206690000000  0.4322070000000  0.4308180000000 1.0
C      1  0.4384430000000  0.4311400000000  0.4596750000000 1.0
C      1  0.4447060000000  0.4339050000000  0.5453110000000 1.0
C      1  0.5224620000000  0.4073070000000  0.4454440000000 1.0
C      1  0.4510780000000  0.4056730000000  0.4640510000000 1.0
C      1  0.4479770000000  0.4070650000000  0.5356360000000 1.0
C      1  0.5161680000000  0.4061460000000  0.5586950000000 1.0
C      1  0.5659390000000  0.4074060000000  0.5025960000000 1.0
C      1  0.4261160000000  0.5124970000000  0.4324360000000 1.0
C      1  0.4123080000000  0.5130370000000  0.5532270000000 1.0
C      1  0.5227460000000  0.5141440000000  0.5980530000000 1.0
C      1  0.6042160000000  0.5134940000000  0.5081060000000 1.0
C      1  0.5303830000000  0.5117520000000  0.4108820000000 1.0
C      1  0.5237030000000  0.5708990000000  0.5510640000000 1.0
C      1  0.5620700000000  0.5745250000000  0.4905410000000 1.0
C      1  0.5127320000000  0.5673360000000  0.4457610000000 1.0
C      1  0.4471850000000  0.5755850000000  0.4720800000000 1.0
C      1  0.4592100000000  0.5726550000000  0.5403650000000 1.0
C      1  0.4530310000000  0.4720060000000  0.5193390000000 1.0
C      1  0.4842150000000  0.4754060000000  0.5602690000000 1.0
C      1  0.5593060000000  0.4722800000000  0.5191590000000 1.0
C      1  0.5372170000000  0.4732410000000  0.4557540000000 1.0
C      1  0.4651620000000  0.4731000000000  0.4579250000000 1.0
C      1  0.5229490000000  0.4582190000000  0.5044800000000 1.0
C      1  0.5097160000000  0.4671000000000  0.4587730000000 1.0
C      1  0.4770960000000  0.4564390000000  0.4776330000000 1.0
C      1  0.4769900000000  0.4565700000000  0.5186570000000 1.0
C      1  0.5224540000000  0.4641880000000  0.5328240000000 1.0
C      1  0.4053270000000  0.4958000000000  0.4422440000000 1.0
C      1  0.4167980000000  0.4960150000000  0.5744470000000 1.0
C      1  0.5447260000000  0.4967030000000  0.6018190000000 1.0
C      1  0.6130790000000  0.4973840000000  0.4875480000000 1.0
C      1  0.5230720000000  0.4959320000000  0.3876180000000 1.0
C      1  0.4645190000000  0.5333930000000  0.4865070000000 1.0
C      1  0.4776640000000  0.5323830000000  0.5304060000000 1.0
C      1  0.5166200000000  0.5330560000000  0.5216140000000 1.0
C      1  0.5337780000000  0.5377420000000  0.5032940000000 1.0
C      1  0.5034520000000  0.5329530000000  0.4687110000000 1.0
C      1  0.5912630000000  0.4532960000000  0.4828740000000 1.0
C      1  0.5121680000000  0.4555270000000  0.4128830000000 1.0
C      1  0.4193620000000  0.4538110000000  0.4617540000000 1.0
C      1  0.4393290000000  0.4540350000000  0.5662510000000 1.0
C      1  0.5411060000000  0.4560080000000  0.5765280000000 1.0
C      1  0.4606710000000  0.4484720000000  0.5881280000000 1.0
C      1  0.5737150000000  0.4538120000000  0.5685260000000 1.0
C      1  0.5862560000000  0.4491570000000  0.4499720000000 1.0
C      1  0.4813460000000  0.4516160000000  0.4013710000000 1.0
C      1  0.4020270000000  0.4484660000000  0.4896530000000 1.0
C      1  0.5552670000000  0.4387490000000  0.5306680000000 1.0
C      1  0.5485090000000  0.4488760000000  0.4651390000000 1.0
C      1  0.4744340000000  0.4377530000000  0.4424490000000 1.0
C      1  0.4389880000000  0.4506030000000  0.5051990000000 1.0
C      1  0.4881440000000  0.4472490000000  0.5586360000000 1.0
C      1  0.4982320000000  0.5402950000000  0.3976500000000 1.0
C      1  0.4036530000000  0.5404760000000  0.4723120000000 1.0
C      1  0.4440900000000  0.5415110000000  0.5855040000000 1.0
C      1  0.5641440000000  0.5420900000000  0.5793060000000 1.0
C      1  0.5964670000000  0.5405970000000  0.4638370000000 1.0
C      1  0.5825110000000  0.4942600000000  0.5681870000000 1.0
C      1  0.5880880000000  0.4985800000000  0.4444450000000 1.0
C      1  0.4739770000000  0.4996040000000  0.3969170000000 1.0
C      1  0.3918550000000  0.4974220000000  0.4942420000000 1.0
C      1  0.4616010000000  0.4977210000000  0.6013590000000 1.0
C      1  0.5618260000000  0.5094490000000  0.5816860000000 1.0
C      1  0.6034960000000  0.5112340000000  0.4637170000000 1.0
C      1  0.4980760000000  0.5124070000000  0.3879610000000 1.0
C      1  0.3998980000000  0.5096220000000  0.4685730000000 1.0
C      1  0.4413550000000  0.5101020000000  0.5856570000000 1.0
C      1  0.5869710000000  0.5164500000000  0.5493120000000 1.0
C      1  0.5712360000000  0.5209800000000  0.4340050000000 1.0
C      1  0.4575080000000  0.5209480000000  0.4024230000000 1.0
C      1  0.3926630000000  0.5195560000000  0.5111840000000 1.0
C      1  0.4777510000000  0.5194860000000  0.6061870000000 1.0
C      1  0.4474860000000  0.5027880000000  0.5157560000000 1.0
C      1  0.4998040000000  0.4987780000000  0.5504110000000 1.0
C      1  0.5417480000000  0.4985110000000  0.5212250000000 1.0
C      1  0.5336400000000  0.5006280000000  0.4600050000000 1.0
C      1  0.4680900000000  0.5038950000000  0.4540260000000 1.0
C      1  0.4134790000000  0.4710240000000  0.5610360000000 1.0
C      1  0.5316690000000  0.4712290000000  0.6020040000000 1.0
C      1  0.6100250000000  0.4716520000000  0.5007610000000 1.0
C      1  0.5345300000000  0.4714130000000  0.3988160000000 1.0
C      1  0.4152690000000  0.4704860000000  0.4347540000000 1.0
C      1  0.5797040000000  0.5248500000000  0.5035510000000 1.0
C      1  0.5254600000000  0.5416750000000  0.4367200000000 1.0
C      1  0.4466520000000  0.5287110000000  0.4462230000000 1.0
C      1  0.4354060000000  0.5252800000000  0.5442940000000 1.0
C      1  0.5202390000000  0.5277920000000  0.5725450000000 1.0
C      1  0.3947410000000  0.5049130000000  0.5358570000000 1.0
C      1  0.5012440000000  0.5043680000000  0.6124280000000 1.0
C      1  0.6075030000000  0.5050320000000  0.5325740000000 1.0
C      1  0.5575420000000  0.5060990000000  0.4128690000000 1.0
C      1  0.4357980000000  0.5043010000000  0.4093280000000 1.0
C      1  0.4531410000000  0.6063100000000  0.5046240000000 1.0
C      1  0.4898330000000  0.6062840000000  0.5471680000000 1.0
C      1  0.5409900000000  0.6049580000000  0.5236760000000 1.0
C      1  0.5357190000000  0.6052960000000  0.4683750000000 1.0
C      1  0.4816150000000  0.6046050000000  0.4563760000000 1.0
C      1  0.4553090000000  0.4399680000000  0.4834140000000 1.0
C      1  0.4735590000000  0.4372100000000  0.5372970000000 1.0
C      1  0.5257920000000  0.4384020000000  0.5404070000000 1.0
C      1  0.5368450000000  0.4378880000000  0.4886350000000 1.0
C      1  0.5024020000000  0.4401350000000  0.4525580000000 1.0
C      1  0.4373250000000  0.4077530000000  0.5087060000000 1.0
C      1  0.4875900000000  0.4052070000000  0.5624560000000 1.0
C      1  0.5511030000000  0.4110520000000  0.5278620000000 1.0
C      1  0.5494190000000  0.4066770000000  0.4569060000000 1.0
C      1  0.4757080000000  0.4087010000000  0.4488720000000 1.0
C      1  0.4756690000000  0.4717890000000  0.5981510000000 1.0
C      1  0.5815260000000  0.4735900000000  0.5469880000000 1.0
C      1  0.5793250000000  0.4729630000000  0.4351840000000 1.0
C      1  0.4631840000000  0.4738190000000  0.4045070000000 1.0
C      1  0.3978510000000  0.4719240000000  0.5064950000000 1.0
C      1  0.5366520000000  0.5495900000000  0.5843090000000 1.0
C      1  0.5935750000000  0.5478150000000  0.4923650000000 1.0
C      1  0.5241870000000  0.5514810000000  0.4090420000000 1.0
C      1  0.4241670000000  0.5470070000000  0.4527960000000 1.0
C      1  0.4305480000000  0.5496360000000  0.5612100000000 1.0
C      1  0.5666970000000  0.5050530000000  0.4866350000000 1.0
C      1  0.5069880000000  0.5060500000000  0.4290370000000 1.0
C      1  0.4301820000000  0.5042630000000  0.4736460000000 1.0
C      1  0.4565940000000  0.5095690000000  0.5580430000000 1.0
C      1  0.5407100000000  0.5088950000000  0.5590390000000 1.0
C      1  0.5004310000000  0.4083020000000  0.4656850000000 1.0
C      1  0.4614410000000  0.4062570000000  0.4919700000000 1.0
C      1  0.4775860000000  0.4058910000000  0.5351080000000 1.0
C      1  0.5214750000000  0.4101430000000  0.5296520000000 1.0
C      1  0.5427410000000  0.4097480000000  0.4848980000000 1.0
C      1  0.5726550000000  0.4314400000000  0.5519790000000 1.0
C      1  0.5646140000000  0.4303200000000  0.4475930000000 1.0
C      1  0.4716790000000  0.4299270000000  0.4157370000000 1.0
C      1  0.4177750000000  0.4306550000000  0.5068470000000 1.0
C      1  0.4803710000000  0.4290730000000  0.5795530000000 1.0
C      1  0.5448070000000  0.5612580000000  0.5084530000000 1.0
C      1  0.5130910000000  0.5604330000000  0.4751460000000 1.0
C      1  0.4716820000000  0.5605150000000  0.4772440000000 1.0
C      1  0.4745520000000  0.5592400000000  0.5187010000000 1.0
C      1  0.5077190000000  0.5591740000000  0.5308830000000 1.0
C      1  0.4712080000000  0.5464380000000  0.4066040000000 1.0
C      1  0.4019570000000  0.5455700000000  0.5002750000000 1.0
C      1  0.4709250000000  0.5459270000000  0.5941630000000 1.0
C      1  0.5819860000000  0.5480100000000  0.5579020000000 1.0
C      1  0.5807290000000  0.5498280000000  0.4418180000000 1.0
C      1  0.5608140000000  0.5711640000000  0.4381150000000 1.0
C      1  0.4624070000000  0.5669430000000  0.4261790000000 1.0
C      1  0.4173240000000  0.5673730000000  0.5140540000000 1.0
C      1  0.4883580000000  0.5677770000000  0.5833250000000 1.0
C      1  0.5789450000000  0.5679590000000  0.5370960000000 1.0
C      1  0.4947330000000  0.4113070000000  0.5006200000000 1.0
C      1  0.4927950000000  0.5697620000000  0.4958270000000 1.0
C      1  0.4937240000000  0.4945270000000  0.5000470000000 1.0
C      1  0.4949260000000  0.4464400000000  0.4991910000000 1.0
END
