TITL C-2441167-4473-1274 0.0912739634118131 125000 -23687.5006233833 0 0 171 (C1) n - 1
REM
REM in /home/bkarasulu/work/CARBON/AIRSS/Generating-Clusters/ReaxFF-fromJPCA2015/Units_Real/with-SteepDescent/Higher-Symm
REM
REM
REM
REM
REM
REM ./C.cell (1df0a924f5614ab8850e4351716899ee)
REM
REM compiler GCC version 9.2.1 20190827 (Red Hat 9.2.1-1)
REM options -cpp -mtune=generic -march=x86-64 -g -O0 -fpre-include=/usr/include/finclude/math-vector-fortran.h
REM seed 1668712127 -861937168 130384685 -1233823888 117512229 -1630249712 -365223502 718364696 -723438916 -1224712655 1452562498 -1647280412 569305926 1830295984 -261741724 880931375 -1007846099 53163161 -499868818 -850044503 -670515831 -914020459 -611886720 -1531804754 -948407902 -1510691114 -2142083471 -104264878 -1207594664 1508999158 -11253500 -1076035027 -1654032251
REM
CELL 1.54180   50.00000   50.00000   50.00000   90.00000   90.00000   90.00000
LATT -1
SFAC C  
C      1  0.4392170000000  0.4679790000000  0.4717930000000 1.0
C      1  0.4015680000000  0.4765370000000  0.4443730000000 1.0
C      1  0.4178130000000  0.5372090000000  0.4626610000000 1.0
C      1  0.4428050000000  0.5697730000000  0.5602800000000 1.0
C      1  0.5347150000000  0.5948570000000  0.4531850000000 1.0
C      1  0.4220420000000  0.4843420000000  0.4247560000000 1.0
C      1  0.4653850000000  0.5799370000000  0.4542260000000 1.0
C      1  0.5540090000000  0.4343300000000  0.5502770000000 1.0
C      1  0.5598020000000  0.4481330000000  0.5040990000000 1.0
C      1  0.5480580000000  0.5218270000000  0.5950440000000 1.0
C      1  0.4150710000000  0.5406540000000  0.5321430000000 1.0
C      1  0.4475400000000  0.5972390000000  0.5214550000000 1.0
C      1  0.4563070000000  0.5924950000000  0.5476700000000 1.0
C      1  0.4543700000000  0.4550470000000  0.5140710000000 1.0
C      1  0.5290370000000  0.4933200000000  0.4041400000000 1.0
C      1  0.5128360000000  0.4645980000000  0.4494010000000 1.0
C      1  0.4849700000000  0.4287320000000  0.5821900000000 1.0
C      1  0.4996050000000  0.5727530000000  0.5693470000000 1.0
C      1  0.4419040000000  0.4096530000000  0.5162210000000 1.0
C      1  0.4176680000000  0.4364700000000  0.5398110000000 1.0
C      1  0.4715240000000  0.4143740000000  0.5618520000000 1.0
C      1  0.5428760000000  0.4654000000000  0.5893100000000 1.0
C      1  0.5275380000000  0.5320640000000  0.4562730000000 1.0
C      1  0.6003480000000  0.5136250000000  0.4895870000000 1.0
C      1  0.4212490000000  0.5132460000000  0.5653850000000 1.0
C      1  0.4051800000000  0.4632690000000  0.5357100000000 1.0
C      1  0.4519940000000  0.5007380000000  0.5903830000000 1.0
C      1  0.5154240000000  0.4886370000000  0.4309550000000 1.0
C      1  0.5640670000000  0.5728240000000  0.4981610000000 1.0
C      1  0.5809640000000  0.5324100000000  0.4736050000000 1.0
C      1  0.4794500000000  0.4862770000000  0.4067050000000 1.0
C      1  0.5744100000000  0.5185270000000  0.5841970000000 1.0
C      1  0.5820480000000  0.5545450000000  0.4501910000000 1.0
C      1  0.5698410000000  0.4380700000000  0.4478560000000 1.0
C      1  0.5058960000000  0.5148460000000  0.4657900000000 1.0
C      1  0.4418610000000  0.5064570000000  0.4307160000000 1.0
C      1  0.4333530000000  0.5647810000000  0.5011750000000 1.0
C      1  0.4164790000000  0.4238220000000  0.5144270000000 1.0
C      1  0.5029440000000  0.4978240000000  0.4898760000000 1.0
C      1  0.5866820000000  0.5811060000000  0.4581060000000 1.0
C      1  0.5355790000000  0.4738790000000  0.4633900000000 1.0
C      1  0.4303360000000  0.4920550000000  0.4850920000000 1.0
C      1  0.5084370000000  0.4492930000000  0.5218270000000 1.0
C      1  0.5481120000000  0.4183580000000  0.4534460000000 1.0
C      1  0.5268170000000  0.5952320000000  0.5010000000000 1.0
C      1  0.4627010000000  0.5986340000000  0.4766910000000 1.0
C      1  0.5282220000000  0.5655780000000  0.5694490000000 1.0
C      1  0.5404410000000  0.5767730000000  0.4305440000000 1.0
C      1  0.4706420000000  0.5121720000000  0.5683860000000 1.0
C      1  0.4605730000000  0.4812670000000  0.5098830000000 1.0
C      1  0.5499720000000  0.5016570000000  0.4969690000000 1.0
C      1  0.4833520000000  0.5701710000000  0.5077120000000 1.0
C      1  0.4302570000000  0.4560670000000  0.4212980000000 1.0
C      1  0.5119770000000  0.3954450000000  0.5181000000000 1.0
C      1  0.4281860000000  0.4876600000000  0.5760380000000 1.0
C      1  0.5845370000000  0.4919030000000  0.5776250000000 1.0
C      1  0.5548430000000  0.5156050000000  0.4688180000000 1.0
C      1  0.5480070000000  0.5751390000000  0.5481360000000 1.0
C      1  0.4734970000000  0.3946560000000  0.4773940000000 1.0
C      1  0.5597840000000  0.5550950000000  0.4306240000000 1.0
C      1  0.5041310000000  0.5545550000000  0.5204420000000 1.0
C      1  0.4722510000000  0.4554930000000  0.5887270000000 1.0
C      1  0.5667690000000  0.5569190000000  0.5538830000000 1.0
C      1  0.5178120000000  0.4738420000000  0.5353630000000 1.0
C      1  0.4927320000000  0.5175090000000  0.5871140000000 1.0
C      1  0.5634400000000  0.4547820000000  0.4259950000000 1.0
C      1  0.5079760000000  0.4810620000000  0.5603610000000 1.0
C      1  0.4193690000000  0.5122010000000  0.5346090000000 1.0
C      1  0.3911420000000  0.4997450000000  0.4944150000000 1.0
C      1  0.4233860000000  0.5556010000000  0.4398620000000 1.0
C      1  0.4111530000000  0.4485400000000  0.4429620000000 1.0
C      1  0.5347950000000  0.4439520000000  0.5713720000000 1.0
C      1  0.4520810000000  0.5533240000000  0.5822980000000 1.0
C      1  0.4837700000000  0.5962190000000  0.4968460000000 1.0
C      1  0.4778450000000  0.5144280000000  0.4006900000000 1.0
C      1  0.5440360000000  0.4093880000000  0.4798740000000 1.0
C      1  0.5588220000000  0.4766480000000  0.5109760000000 1.0
C      1  0.4670880000000  0.5184490000000  0.5235020000000 1.0
C      1  0.4869270000000  0.5952260000000  0.5545320000000 1.0
C      1  0.5217930000000  0.5447750000000  0.4991270000000 1.0
C      1  0.4863090000000  0.5780160000000  0.4329370000000 1.0
C      1  0.4465460000000  0.5495820000000  0.4206550000000 1.0
C      1  0.4829090000000  0.5119210000000  0.4510760000000 1.0
C      1  0.5922440000000  0.4929360000000  0.4387700000000 1.0
C      1  0.5757380000000  0.5104400000000  0.4227570000000 1.0
C      1  0.5998300000000  0.4633730000000  0.5089930000000 1.0
C      1  0.5232460000000  0.4635190000000  0.3986610000000 1.0
C      1  0.4810210000000  0.5584560000000  0.5868710000000 1.0
C      1  0.4628620000000  0.5533580000000  0.4916420000000 1.0
C      1  0.5501870000000  0.4269590000000  0.5219060000000 1.0
C      1  0.5538410000000  0.4908480000000  0.4539880000000 1.0
C      1  0.4783370000000  0.4938690000000  0.5283470000000 1.0
C      1  0.4795140000000  0.4858690000000  0.5559730000000 1.0
C      1  0.4698970000000  0.4381380000000  0.4959790000000 1.0
C      1  0.5534490000000  0.5295150000000  0.4190390000000 1.0
C      1  0.5213130000000  0.5827670000000  0.4748400000000 1.0
C      1  0.4655050000000  0.4662600000000  0.4584760000000 1.0
C      1  0.4619470000000  0.5526830000000  0.4621850000000 1.0
C      1  0.5017950000000  0.4479630000000  0.4726730000000 1.0
C      1  0.5462680000000  0.4806840000000  0.5353710000000 1.0
C      1  0.3983260000000  0.4725820000000  0.5079210000000 1.0
C      1  0.4655780000000  0.4617720000000  0.5616980000000 1.0
C      1  0.5102760000000  0.4275760000000  0.5662780000000 1.0
C      1  0.5391930000000  0.4461690000000  0.4150430000000 1.0
C      1  0.4842730000000  0.4393730000000  0.4106380000000 1.0
C      1  0.4970750000000  0.5334660000000  0.4120000000000 1.0
C      1  0.5004040000000  0.4957240000000  0.6042990000000 1.0
C      1  0.5884890000000  0.4489590000000  0.4656980000000 1.0
C      1  0.4065700000000  0.4468070000000  0.4963110000000 1.0
C      1  0.5318030000000  0.4938540000000  0.5977530000000 1.0
C      1  0.4677950000000  0.5274380000000  0.4982530000000 1.0
C      1  0.4333590000000  0.4988850000000  0.5128020000000 1.0
C      1  0.5023060000000  0.5422480000000  0.5985990000000 1.0
C      1  0.4004220000000  0.5283950000000  0.4869840000000 1.0
C      1  0.5935050000000  0.5283830000000  0.5129560000000 1.0
C      1  0.5286020000000  0.4249880000000  0.4307770000000 1.0
C      1  0.4467150000000  0.4521700000000  0.5423640000000 1.0
C      1  0.4284000000000  0.4741170000000  0.5501410000000 1.0
C      1  0.5944740000000  0.4649260000000  0.5377460000000 1.0
C      1  0.4761170000000  0.4841900000000  0.4848680000000 1.0
C      1  0.5976040000000  0.4758460000000  0.4618970000000 1.0
C      1  0.4084760000000  0.5494210000000  0.5053580000000 1.0
C      1  0.4868670000000  0.4308080000000  0.5181820000000 1.0
C      1  0.4655950000000  0.5107510000000  0.4756900000000 1.0
C      1  0.5141830000000  0.5848350000000  0.4329540000000 1.0
C      1  0.5263430000000  0.4806610000000  0.4883880000000 1.0
C      1  0.4549030000000  0.4125400000000  0.4901530000000 1.0
C      1  0.4459690000000  0.5276200000000  0.4581460000000 1.0
C      1  0.4698930000000  0.4906170000000  0.4347350000000 1.0
C      1  0.4563080000000  0.4411750000000  0.4209200000000 1.0
C      1  0.5497090000000  0.5052520000000  0.5504800000000 1.0
C      1  0.4760840000000  0.4814440000000  0.6014150000000 1.0
C      1  0.4211200000000  0.4453530000000  0.4707060000000 1.0
C      1  0.5241280000000  0.5292960000000  0.4244750000000 1.0
C      1  0.5314600000000  0.5453830000000  0.5905210000000 1.0
C      1  0.5959230000000  0.4909290000000  0.5509030000000 1.0
C      1  0.5458090000000  0.5823640000000  0.5182230000000 1.0
C      1  0.4991550000000  0.3981340000000  0.4899840000000 1.0
C      1  0.5192500000000  0.5552880000000  0.4727790000000 1.0
C      1  0.5866400000000  0.4429800000000  0.4934330000000 1.0
C      1  0.4602160000000  0.5315930000000  0.5457660000000 1.0
C      1  0.6027590000000  0.4849060000000  0.4887610000000 1.0
C      1  0.5089910000000  0.5293570000000  0.5350450000000 1.0
C      1  0.4045590000000  0.4908960000000  0.4703760000000 1.0
C      1  0.5882160000000  0.5168010000000  0.5393890000000 1.0
C      1  0.5418680000000  0.5269530000000  0.5094190000000 1.0
C      1  0.5625120000000  0.5853610000000  0.4713580000000 1.0
C      1  0.5275420000000  0.4989180000000  0.5690350000000 1.0
C      1  0.5054680000000  0.6138140000000  0.5097510000000 1.0
C      1  0.5702730000000  0.4660630000000  0.5809820000000 1.0
C      1  0.5147500000000  0.4564390000000  0.4964340000000 1.0
C      1  0.5382710000000  0.5290560000000  0.5372420000000 1.0
C      1  0.5053620000000  0.5027930000000  0.5205710000000 1.0
C      1  0.5045110000000  0.4192320000000  0.4698130000000 1.0
C      1  0.4502450000000  0.5237810000000  0.4078590000000 1.0
C      1  0.4373400000000  0.5276200000000  0.5854150000000 1.0
C      1  0.4402560000000  0.5519840000000  0.5388230000000 1.0
C      1  0.5664510000000  0.4846090000000  0.4295340000000 1.0
C      1  0.4827550000000  0.4139010000000  0.4498340000000 1.0
C      1  0.4391980000000  0.5932630000000  0.4948050000000 1.0
C      1  0.5837110000000  0.5364570000000  0.5613170000000 1.0
C      1  0.5008070000000  0.4216030000000  0.4263680000000 1.0
C      1  0.5770440000000  0.4501730000000  0.5563460000000 1.0
C      1  0.4669800000000  0.4143010000000  0.5341960000000 1.0
C      1  0.4952130000000  0.4631250000000  0.4002900000000 1.0
C      1  0.5393430000000  0.4030300000000  0.5071010000000 1.0
C      1  0.4769980000000  0.5536140000000  0.4208500000000 1.0
C      1  0.4641900000000  0.4379290000000  0.4481790000000 1.0
C      1  0.5021250000000  0.6091100000000  0.5366090000000 1.0
C      1  0.5794300000000  0.5482680000000  0.4979470000000 1.0
C      1  0.5083130000000  0.4071460000000  0.5441950000000 1.0
END
