TITL C-2441154-10-1120 -0.000222331292493423 125000 -4741.82316208747 0 0 35 (C1) n - 1
REM
REM in /home/bkarasulu/work/CARBON/AIRSS/Generating-Clusters/ReaxFF-fromJPCA2015/Units_Real/with-SteepDescent/Higher-Symm
REM
REM
REM
REM
REM
REM ./C.cell (1df0a924f5614ab8850e4351716899ee)
REM
REM compiler GCC version 9.2.1 20190827 (Red Hat 9.2.1-1)
REM options -cpp -mtune=generic -march=x86-64 -g -O0 -fpre-include=/usr/include/finclude/math-vector-fortran.h
REM seed -163509382 607254801 1131322300 185761460 1607399468 -165628533 1648840176 -951421802 -1342605099 -1777730665 -1973010920 -387540913 -282297619 867771692 -658199656 -646357945 -1289662674 814912717 367328065 -2133995018 1888664933 211424851 -1007225547 -1255066065 -1154875784 362278056 1612303832 176211603 -1751383485 520309473 2011494514 -505886671 -2007884598
REM
CELL 1.54180   50.00000   50.00000   50.00000   90.00000   90.00000   90.00000
LATT -1
SFAC C  
C      1  0.5043360000000  0.5478410000000  0.4664590000000 1.0
C      1  0.4548700000000  0.5021030000000  0.4660070000000 1.0
C      1  0.4985720000000  0.4519120000000  0.4675550000000 1.0
C      1  0.5491790000000  0.4969040000000  0.4667070000000 1.0
C      1  0.5052290000000  0.5446600000000  0.5304340000000 1.0
C      1  0.4550520000000  0.5026680000000  0.5290070000000 1.0
C      1  0.4985620000000  0.4526770000000  0.5305870000000 1.0
C      1  0.5470870000000  0.4982760000000  0.5290980000000 1.0
C      1  0.5398760000000  0.5241590000000  0.5298370000000 1.0
C      1  0.4788010000000  0.5392120000000  0.5292290000000 1.0
C      1  0.4609510000000  0.4765810000000  0.5305470000000 1.0
C      1  0.5241660000000  0.4594150000000  0.5292810000000 1.0
C      1  0.5426970000000  0.5236430000000  0.4665120000000 1.0
C      1  0.4775710000000  0.5417380000000  0.4668280000000 1.0
C      1  0.4604620000000  0.4755570000000  0.4674260000000 1.0
C      1  0.5250870000000  0.4590460000000  0.4659430000000 1.0
C      1  0.4938610000000  0.5304780000000  0.4469310000000 1.0
C      1  0.4725500000000  0.4908190000000  0.4469260000000 1.0
C      1  0.5068360000000  0.4690980000000  0.4475410000000 1.0
C      1  0.5316850000000  0.5066370000000  0.4470190000000 1.0
C      1  0.4932070000000  0.5281300000000  0.5513620000000 1.0
C      1  0.4709700000000  0.4938220000000  0.5512090000000 1.0
C      1  0.5084460000000  0.4689820000000  0.5511200000000 1.0
C      1  0.5312820000000  0.5074250000000  0.5509880000000 1.0
C      1  0.4680040000000  0.5204570000000  0.5112790000000 1.0
C      1  0.4803070000000  0.4651180000000  0.5129620000000 1.0
C      1  0.5314210000000  0.4809970000000  0.5106960000000 1.0
C      1  0.5190850000000  0.5287740000000  0.5100390000000 1.0
C      1  0.4620020000000  0.5240380000000  0.4827720000000 1.0
C      1  0.4769110000000  0.4595210000000  0.4842560000000 1.0
C      1  0.5407720000000  0.4753450000000  0.4825980000000 1.0
C      1  0.5256750000000  0.5391970000000  0.4825870000000 1.0
C      1  0.5019750000000  0.5014710000000  0.4420130000000 1.0
C      1  0.5031030000000  0.4981090000000  0.5579000000000 1.0
C      1  0.5024170000000  0.4991090000000  0.5078170000000 1.0
END
