TITL C-2441156-4686-1403 0.189150613340905 125000 -24499.7819789294 0 0 195 (C1) n - 1
REM
REM in /home/bkarasulu/work/CARBON/AIRSS/Generating-Clusters/ReaxFF-fromJPCA2015/Units_Real/with-SteepDescent/Higher-Symm
REM
REM
REM
REM
REM
REM ./C.cell (1df0a924f5614ab8850e4351716899ee)
REM
REM compiler GCC version 9.2.1 20190827 (Red Hat 9.2.1-1)
REM options -cpp -mtune=generic -march=x86-64 -g -O0 -fpre-include=/usr/include/finclude/math-vector-fortran.h
REM seed -2022260981 27606644 1568578167 190523606 -35796089 1507659407 505810464 1834074238 1260755256 -1574986349 -2044920175 -711345285 594209834 -1487393930 150654110 -51141231 1354355924 1095247286 -1385695572 -1108325059 460431529 1250665700 -1289498701 -1169375153 -1277871438 1526089531 -1749553306 -1848977079 -863824646 1966005086 165287280 2040291232 2043192012
REM
CELL 1.54180   50.00000   50.00000   50.00000   90.00000   90.00000   90.00000
LATT -1
SFAC C  
C      1  0.4855970000000  0.5572540000000  0.4871850000000 1.0
C      1  0.5071680000000  0.5580250000000  0.5208540000000 1.0
C      1  0.5154830000000  0.5516750000000  0.4729280000000 1.0
C      1  0.4432410000000  0.5271550000000  0.4000350000000 1.0
C      1  0.4430440000000  0.5277290000000  0.5979390000000 1.0
C      1  0.6057970000000  0.5281350000000  0.4822110000000 1.0
C      1  0.4306850000000  0.5216270000000  0.5259890000000 1.0
C      1  0.5516940000000  0.5111760000000  0.5346540000000 1.0
C      1  0.5118120000000  0.5210920000000  0.4268320000000 1.0
C      1  0.4124490000000  0.5258080000000  0.5614630000000 1.0
C      1  0.5920840000000  0.5258060000000  0.5386390000000 1.0
C      1  0.4896280000000  0.5281480000000  0.3930530000000 1.0
C      1  0.4966430000000  0.4951000000000  0.4570700000000 1.0
C      1  0.4717520000000  0.5001110000000  0.5218130000000 1.0
C      1  0.5363890000000  0.4983020000000  0.5131860000000 1.0
C      1  0.5524840000000  0.5744020000000  0.5775910000000 1.0
C      1  0.5373200000000  0.5723600000000  0.4193260000000 1.0
C      1  0.4108780000000  0.5738530000000  0.5116120000000 1.0
C      1  0.5361090000000  0.5557420000000  0.5228320000000 1.0
C      1  0.4798310000000  0.5163780000000  0.4593130000000 1.0
C      1  0.4744080000000  0.5270410000000  0.5243750000000 1.0
C      1  0.4885710000000  0.5546460000000  0.4059710000000 1.0
C      1  0.4250340000000  0.5530190000000  0.5587780000000 1.0
C      1  0.5861100000000  0.5554770000000  0.5418360000000 1.0
C      1  0.5982880000000  0.5364790000000  0.4542350000000 1.0
C      1  0.4154790000000  0.5433240000000  0.4433650000000 1.0
C      1  0.4921100000000  0.5404660000000  0.6040820000000 1.0
C      1  0.5299780000000  0.5283790000000  0.4039930000000 1.0
C      1  0.4020090000000  0.5273100000000  0.5216280000000 1.0
C      1  0.5670460000000  0.5166420000000  0.5706010000000 1.0
C      1  0.5604960000000  0.5299770000000  0.3995480000000 1.0
C      1  0.3906920000000  0.5339470000000  0.4956630000000 1.0
C      1  0.5554170000000  0.5292280000000  0.5948480000000 1.0
C      1  0.5149790000000  0.4628820000000  0.4695750000000 1.0
C      1  0.4696440000000  0.4608760000000  0.5146310000000 1.0
C      1  0.5340410000000  0.4626330000000  0.5270560000000 1.0
C      1  0.4450150000000  0.3963210000000  0.4867290000000 1.0
C      1  0.5147510000000  0.3976600000000  0.5508600000000 1.0
C      1  0.5385740000000  0.3973310000000  0.4571630000000 1.0
C      1  0.4858910000000  0.5115610000000  0.4166250000000 1.0
C      1  0.4355080000000  0.5124170000000  0.5518040000000 1.0
C      1  0.5750470000000  0.5106390000000  0.5181340000000 1.0
C      1  0.5141430000000  0.5110740000000  0.3864220000000 1.0
C      1  0.3940340000000  0.5102930000000  0.5438020000000 1.0
C      1  0.5922810000000  0.5092870000000  0.5624940000000 1.0
C      1  0.5965000000000  0.4225860000000  0.5044960000000 1.0
C      1  0.4546310000000  0.4241370000000  0.4173240000000 1.0
C      1  0.4505570000000  0.4214540000000  0.5828870000000 1.0
C      1  0.4654050000000  0.3948170000000  0.4667780000000 1.0
C      1  0.4864200000000  0.3931930000000  0.5461090000000 1.0
C      1  0.5508270000000  0.3912560000000  0.4834220000000 1.0
C      1  0.5548900000000  0.4610720000000  0.4247960000000 1.0
C      1  0.4056560000000  0.4589640000000  0.4910760000000 1.0
C      1  0.5377240000000  0.4595100000000  0.5888890000000 1.0
C      1  0.4694620000000  0.4905150000000  0.6027710000000 1.0
C      1  0.5998470000000  0.4874140000000  0.4721090000000 1.0
C      1  0.4285880000000  0.4891340000000  0.4257900000000 1.0
C      1  0.4250650000000  0.4192370000000  0.5262970000000 1.0
C      1  0.5610300000000  0.4134680000000  0.5376670000000 1.0
C      1  0.4990810000000  0.4128200000000  0.4282820000000 1.0
C      1  0.4213110000000  0.4375300000000  0.5047840000000 1.0
C      1  0.5456630000000  0.4367110000000  0.5719590000000 1.0
C      1  0.5384290000000  0.4370550000000  0.4238400000000 1.0
C      1  0.5825720000000  0.5626520000000  0.4509410000000 1.0
C      1  0.4205130000000  0.5674340000000  0.4566230000000 1.0
C      1  0.4989050000000  0.5628870000000  0.5880050000000 1.0
C      1  0.4980510000000  0.4407070000000  0.4731900000000 1.0
C      1  0.4854150000000  0.4408490000000  0.5228910000000 1.0
C      1  0.5268710000000  0.4257250000000  0.5030440000000 1.0
C      1  0.5267980000000  0.5991440000000  0.5029860000000 1.0
C      1  0.4829760000000  0.5984690000000  0.4678240000000 1.0
C      1  0.4814400000000  0.5965010000000  0.5247010000000 1.0
C      1  0.4492910000000  0.5389140000000  0.5146430000000 1.0
C      1  0.5431790000000  0.5366600000000  0.5425120000000 1.0
C      1  0.5206090000000  0.5368370000000  0.4477760000000 1.0
C      1  0.4723200000000  0.3952930000000  0.5194560000000 1.0
C      1  0.5358530000000  0.3840880000000  0.5058190000000 1.0
C      1  0.4936650000000  0.3935190000000  0.4718580000000 1.0
C      1  0.4395560000000  0.5393650000000  0.4258690000000 1.0
C      1  0.4671780000000  0.5358840000000  0.5875030000000 1.0
C      1  0.5939270000000  0.5538730000000  0.4920490000000 1.0
C      1  0.5656810000000  0.4706670000000  0.4500030000000 1.0
C      1  0.4121400000000  0.4693160000000  0.4650010000000 1.0
C      1  0.5108470000000  0.4687780000000  0.5926550000000 1.0
C      1  0.5771900000000  0.5789110000000  0.4739130000000 1.0
C      1  0.4426470000000  0.5848080000000  0.4482890000000 1.0
C      1  0.4806250000000  0.5831840000000  0.5759800000000 1.0
C      1  0.6070590000000  0.4790320000000  0.5140410000000 1.0
C      1  0.4588610000000  0.4758930000000  0.3949470000000 1.0
C      1  0.4362430000000  0.4735540000000  0.5827840000000 1.0
C      1  0.5540100000000  0.4322060000000  0.4965300000000 1.0
C      1  0.4760440000000  0.4408160000000  0.4554460000000 1.0
C      1  0.4755980000000  0.4355210000000  0.5496850000000 1.0
C      1  0.5444280000000  0.4640340000000  0.4736350000000 1.0
C      1  0.4412960000000  0.4660330000000  0.4649650000000 1.0
C      1  0.5023260000000  0.4687780000000  0.5661380000000 1.0
C      1  0.4992470000000  0.4705270000000  0.4441440000000 1.0
C      1  0.4612580000000  0.4781490000000  0.5356960000000 1.0
C      1  0.5488490000000  0.4712230000000  0.5024540000000 1.0
C      1  0.6123290000000  0.5013690000000  0.4935990000000 1.0
C      1  0.4400480000000  0.4982150000000  0.4009670000000 1.0
C      1  0.4431350000000  0.4989430000000  0.6003780000000 1.0
C      1  0.4458790000000  0.5381280000000  0.4681960000000 1.0
C      1  0.4996520000000  0.5414840000000  0.5633940000000 1.0
C      1  0.5577370000000  0.5373520000000  0.4725260000000 1.0
C      1  0.5684700000000  0.5762150000000  0.5550600000000 1.0
C      1  0.5058020000000  0.5737640000000  0.4204320000000 1.0
C      1  0.4248570000000  0.5727470000000  0.5366560000000 1.0
C      1  0.4741130000000  0.5944720000000  0.4966710000000 1.0
C      1  0.5089020000000  0.6045670000000  0.5260810000000 1.0
C      1  0.5139310000000  0.6039520000000  0.4778420000000 1.0
C      1  0.5603270000000  0.5117490000000  0.4855390000000 1.0
C      1  0.4515480000000  0.5106360000000  0.4621190000000 1.0
C      1  0.4922750000000  0.5128300000000  0.5663590000000 1.0
C      1  0.4013770000000  0.5185830000000  0.4554010000000 1.0
C      1  0.5100040000000  0.5176600000000  0.6086410000000 1.0
C      1  0.5876310000000  0.5142790000000  0.4390100000000 1.0
C      1  0.5070000000000  0.4866280000000  0.4815710000000 1.0
C      1  0.4777330000000  0.4835160000000  0.4969500000000 1.0
C      1  0.5165500000000  0.4857560000000  0.5278910000000 1.0
C      1  0.6051170000000  0.4421640000000  0.4874700000000 1.0
C      1  0.4389120000000  0.4454040000000  0.4200440000000 1.0
C      1  0.4668910000000  0.4395840000000  0.5956070000000 1.0
C      1  0.5508790000000  0.4850810000000  0.4101770000000 1.0
C      1  0.3971650000000  0.4851930000000  0.4995340000000 1.0
C      1  0.5499030000000  0.4851580000000  0.5907180000000 1.0
C      1  0.4961230000000  0.4975840000000  0.5931350000000 1.0
C      1  0.5750190000000  0.4959320000000  0.4596530000000 1.0
C      1  0.4119970000000  0.4937730000000  0.4487580000000 1.0
C      1  0.4533120000000  0.4882520000000  0.4798390000000 1.0
C      1  0.5021490000000  0.4924400000000  0.5499730000000 1.0
C      1  0.5285860000000  0.5061240000000  0.4873100000000 1.0
C      1  0.5337490000000  0.6033030000000  0.4575480000000 1.0
C      1  0.4464290000000  0.6013480000000  0.4927370000000 1.0
C      1  0.5213780000000  0.6047400000000  0.5523400000000 1.0
C      1  0.4565720000000  0.4465780000000  0.3986330000000 1.0
C      1  0.4320270000000  0.4437070000000  0.5749740000000 1.0
C      1  0.6062600000000  0.4490100000000  0.5140490000000 1.0
C      1  0.5111740000000  0.5267150000000  0.4928330000000 1.0
C      1  0.4856980000000  0.5285050000000  0.4831120000000 1.0
C      1  0.5016940000000  0.5304630000000  0.5189750000000 1.0
C      1  0.5175610000000  0.4390140000000  0.5263350000000 1.0
C      1  0.5069970000000  0.4176730000000  0.4840200000000 1.0
C      1  0.4724260000000  0.4219230000000  0.5076750000000 1.0
C      1  0.5270840000000  0.5395680000000  0.5650760000000 1.0
C      1  0.5491180000000  0.5369420000000  0.4447980000000 1.0
C      1  0.4333060000000  0.5419800000000  0.4912510000000 1.0
C      1  0.4086630000000  0.5578350000000  0.4870700000000 1.0
C      1  0.5382930000000  0.5522800000000  0.5884040000000 1.0
C      1  0.5606250000000  0.5593940000000  0.4311240000000 1.0
C      1  0.4709590000000  0.4152030000000  0.4399660000000 1.0
C      1  0.4658290000000  0.4100530000000  0.5587130000000 1.0
C      1  0.5703820000000  0.4095750000000  0.5056840000000 1.0
C      1  0.5393500000000  0.3952730000000  0.5353680000000 1.0
C      1  0.5108250000000  0.3946800000000  0.4478950000000 1.0
C      1  0.4427810000000  0.3967420000000  0.5159950000000 1.0
C      1  0.5885520000000  0.5598430000000  0.5160930000000 1.0
C      1  0.4593580000000  0.5520330000000  0.4076440000000 1.0
C      1  0.4436640000000  0.5510890000000  0.5807430000000 1.0
C      1  0.4974180000000  0.4417880000000  0.5661490000000 1.0
C      1  0.5558460000000  0.4388180000000  0.4698430000000 1.0
C      1  0.4525710000000  0.4426770000000  0.4708240000000 1.0
C      1  0.4910160000000  0.5593160000000  0.5434600000000 1.0
C      1  0.5412880000000  0.5590200000000  0.4815620000000 1.0
C      1  0.4663870000000  0.5573740000000  0.4658980000000 1.0
C      1  0.4733940000000  0.5783620000000  0.4468190000000 1.0
C      1  0.4709950000000  0.5794640000000  0.5462600000000 1.0
C      1  0.5474410000000  0.5756850000000  0.5050950000000 1.0
C      1  0.4818940000000  0.4841410000000  0.4073840000000 1.0
C      1  0.4378410000000  0.4838970000000  0.5538800000000 1.0
C      1  0.5833190000000  0.4830430000000  0.5296190000000 1.0
C      1  0.5412530000000  0.5840420000000  0.5551130000000 1.0
C      1  0.5241690000000  0.5813470000000  0.4390970000000 1.0
C      1  0.4381540000000  0.5805240000000  0.5107090000000 1.0
C      1  0.5248150000000  0.4865750000000  0.3993110000000 1.0
C      1  0.3992760000000  0.4855200000000  0.5286740000000 1.0
C      1  0.5745230000000  0.4902140000000  0.5764010000000 1.0
C      1  0.5891550000000  0.4638990000000  0.4797790000000 1.0
C      1  0.4412310000000  0.4667060000000  0.4369250000000 1.0
C      1  0.4642320000000  0.4663200000000  0.5891690000000 1.0
C      1  0.4966850000000  0.6036690000000  0.5657490000000 1.0
C      1  0.5569090000000  0.5990440000000  0.4741230000000 1.0
C      1  0.4512620000000  0.6067610000000  0.4649230000000 1.0
C      1  0.5722060000000  0.5081850000000  0.4151500000000 1.0
C      1  0.3912980000000  0.5097980000000  0.4814770000000 1.0
C      1  0.5374210000000  0.5090240000000  0.6034140000000 1.0
C      1  0.5679270000000  0.4375210000000  0.5533230000000 1.0
C      1  0.5114200000000  0.4350180000000  0.4151730000000 1.0
C      1  0.4236030000000  0.4406740000000  0.5471400000000 1.0
C      1  0.4216760000000  0.4680210000000  0.5358320000000 1.0
C      1  0.5644900000000  0.4636600000000  0.5399590000000 1.0
C      1  0.5045900000000  0.4659030000000  0.4147070000000 1.0
C      1  0.4480420000000  0.4283020000000  0.4928890000000 1.0
C      1  0.5209770000000  0.4267360000000  0.5567280000000 1.0
C      1  0.5449770000000  0.4240550000000  0.4488660000000 1.0
END
