TITL C-2441160-1326-266 0.419884490636896 125000 -13983.1380921346 0 0 168 (C1) n - 1
REM
REM in /home/bkarasulu/work/CARBON/AIRSS/Generating-Clusters/ReaxFF-fromJPCA2015/Units_Real/with-SteepDescent/Higher-Symm
REM
REM
REM
REM
REM
REM ./C.cell (1df0a924f5614ab8850e4351716899ee)
REM
REM compiler GCC version 9.2.1 20190827 (Red Hat 9.2.1-1)
REM options -cpp -mtune=generic -march=x86-64 -g -O0 -fpre-include=/usr/include/finclude/math-vector-fortran.h
REM seed -1758639939 -45160978 1273058699 267478224 397569160 537146995 -359735439 -34013883 1823446828 -498526010 -12164424 -1812774319 -175144927 -1399443854 -560223608 966617677 96188827 2109536372 469801663 1684092595 -646321683 -1844241681 1094774337 -1330404501 -884615386 1298879306 154592332 -481840742 1097049956 -1008338422 -1347900327 -1619403144 362035535
REM
CELL 1.54180   50.00000   50.00000   50.00000   90.00000   90.00000   90.00000
LATT -1
SFAC C  
C      1  0.4795190000000  0.5324120000000  0.5406610000000 1.0
C      1  0.4780140000000  0.4760020000000  0.5432430000000 1.0
C      1  0.4777450000000  0.4556950000000  0.4850850000000 1.0
C      1  0.4778440000000  0.4934150000000  0.4525770000000 1.0
C      1  0.4762290000000  0.5451550000000  0.4825830000000 1.0
C      1  0.5203710000000  0.4719310000000  0.5348390000000 1.0
C      1  0.5210680000000  0.5238070000000  0.5382450000000 1.0
C      1  0.5230550000000  0.5446030000000  0.4888270000000 1.0
C      1  0.5243610000000  0.5041820000000  0.4588170000000 1.0
C      1  0.5244140000000  0.4570890000000  0.4819590000000 1.0
C      1  0.4577890000000  0.4713420000000  0.5890740000000 1.0
C      1  0.4583360000000  0.4074070000000  0.4996050000000 1.0
C      1  0.4571240000000  0.4738990000000  0.4125430000000 1.0
C      1  0.4547150000000  0.5728830000000  0.4502350000000 1.0
C      1  0.4557710000000  0.5725420000000  0.5555700000000 1.0
C      1  0.5441450000000  0.5295120000000  0.5859720000000 1.0
C      1  0.5442320000000  0.5894510000000  0.4966470000000 1.0
C      1  0.5439670000000  0.5253230000000  0.4133260000000 1.0
C      1  0.5419120000000  0.4258780000000  0.4431900000000 1.0
C      1  0.5440910000000  0.4292780000000  0.5568680000000 1.0
C      1  0.4830730000000  0.6009320000000  0.4606720000000 1.0
C      1  0.4733640000000  0.5651090000000  0.5797730000000 1.0
C      1  0.4728910000000  0.4453510000000  0.5875120000000 1.0
C      1  0.4730550000000  0.4007900000000  0.4748610000000 1.0
C      1  0.4808850000000  0.4965880000000  0.3896600000000 1.0
C      1  0.5267830000000  0.4050810000000  0.4587630000000 1.0
C      1  0.5257420000000  0.4313950000000  0.5812290000000 1.0
C      1  0.5272820000000  0.5543660000000  0.5890460000000 1.0
C      1  0.5156800000000  0.6022240000000  0.4699740000000 1.0
C      1  0.5186220000000  0.5009700000000  0.3952950000000 1.0
C      1  0.4086620000000  0.5528330000000  0.5195460000000 1.0
C      1  0.4122930000000  0.4990690000000  0.5487480000000 1.0
C      1  0.4098790000000  0.4536300000000  0.5150820000000 1.0
C      1  0.4092630000000  0.4746590000000  0.4602380000000 1.0
C      1  0.4119890000000  0.5332640000000  0.4602980000000 1.0
C      1  0.5881530000000  0.4503270000000  0.5200160000000 1.0
C      1  0.5887170000000  0.5018150000000  0.5547660000000 1.0
C      1  0.5889190000000  0.5474000000000  0.5148190000000 1.0
C      1  0.5918880000000  0.5282180000000  0.4593280000000 1.0
C      1  0.5836930000000  0.4644900000000  0.4622440000000 1.0
C      1  0.3936180000000  0.4883150000000  0.4809310000000 1.0
C      1  0.3954420000000  0.5175820000000  0.4822980000000 1.0
C      1  0.3941720000000  0.5253800000000  0.5100840000000 1.0
C      1  0.3936830000000  0.5006580000000  0.5260770000000 1.0
C      1  0.3942210000000  0.4771410000000  0.5080480000000 1.0
C      1  0.6043310000000  0.5129140000000  0.4811650000000 1.0
C      1  0.6037100000000  0.4835480000000  0.4835900000000 1.0
C      1  0.6031870000000  0.4759300000000  0.5120140000000 1.0
C      1  0.6038300000000  0.5010440000000  0.5281020000000 1.0
C      1  0.6043380000000  0.5231150000000  0.5088550000000 1.0
C      1  0.4914730000000  0.4270710000000  0.4395390000000 1.0
C      1  0.4916310000000  0.5325480000000  0.4078460000000 1.0
C      1  0.4903490000000  0.5940750000000  0.5042700000000 1.0
C      1  0.4921660000000  0.5250620000000  0.5917850000000 1.0
C      1  0.4909570000000  0.4163400000000  0.5532810000000 1.0
C      1  0.5097870000000  0.5727100000000  0.4386420000000 1.0
C      1  0.5120970000000  0.4574520000000  0.4104210000000 1.0
C      1  0.5088570000000  0.4018730000000  0.5030980000000 1.0
C      1  0.5084780000000  0.4726530000000  0.5953510000000 1.0
C      1  0.5081620000000  0.5810160000000  0.5552690000000 1.0
C      1  0.5178690000000  0.5440770000000  0.4485930000000 1.0
C      1  0.5208800000000  0.5613270000000  0.5223830000000 1.0
C      1  0.5195660000000  0.4977160000000  0.5650970000000 1.0
C      1  0.5206420000000  0.4389980000000  0.5174980000000 1.0
C      1  0.5130120000000  0.4698870000000  0.4488460000000 1.0
C      1  0.4900000000000  0.4556380000000  0.4488070000000 1.0
C      1  0.4801120000000  0.4407490000000  0.5264880000000 1.0
C      1  0.4816910000000  0.5071680000000  0.5705280000000 1.0
C      1  0.4809930000000  0.5644650000000  0.5183570000000 1.0
C      1  0.4790720000000  0.5351530000000  0.4464580000000 1.0
C      1  0.5096290000000  0.4969000000000  0.5432310000000 1.0
C      1  0.5105190000000  0.4596980000000  0.5111430000000 1.0
C      1  0.5117840000000  0.4830210000000  0.4683260000000 1.0
C      1  0.5116250000000  0.5270770000000  0.4663340000000 1.0
C      1  0.5107410000000  0.5400240000000  0.5172840000000 1.0
C      1  0.4894560000000  0.5030410000000  0.5319260000000 1.0
C      1  0.4877780000000  0.5426750000000  0.5110450000000 1.0
C      1  0.4877650000000  0.5228920000000  0.4647750000000 1.0
C      1  0.4909010000000  0.4811440000000  0.4802050000000 1.0
C      1  0.4865850000000  0.4595850000000  0.5139750000000 1.0
C      1  0.5180340000000  0.5371200000000  0.4204910000000 1.0
C      1  0.5186990000000  0.5868040000000  0.5106240000000 1.0
C      1  0.5178090000000  0.5159920000000  0.5836910000000 1.0
C      1  0.5153730000000  0.4250560000000  0.5414970000000 1.0
C      1  0.5173690000000  0.4339620000000  0.4270930000000 1.0
C      1  0.4838410000000  0.4630810000000  0.4204670000000 1.0
C      1  0.4833560000000  0.4149460000000  0.5134000000000 1.0
C      1  0.4834280000000  0.4843580000000  0.5858400000000 1.0
C      1  0.4830660000000  0.5759580000000  0.5422400000000 1.0
C      1  0.4822310000000  0.5629680000000  0.4424590000000 1.0
C      1  0.5706110000000  0.4423930000000  0.4978000000000 1.0
C      1  0.5692960000000  0.4804620000000  0.4432300000000 1.0
C      1  0.5741360000000  0.5499650000000  0.4682310000000 1.0
C      1  0.5702590000000  0.5386840000000  0.5382610000000 1.0
C      1  0.5710710000000  0.4775980000000  0.5519050000000 1.0
C      1  0.4279270000000  0.5577840000000  0.4945960000000 1.0
C      1  0.4283540000000  0.5144750000000  0.4448130000000 1.0
C      1  0.4255030000000  0.4523440000000  0.4659100000000 1.0
C      1  0.4275130000000  0.4568660000000  0.5388670000000 1.0
C      1  0.4287420000000  0.5242960000000  0.5510480000000 1.0
C      1  0.5656670000000  0.4457430000000  0.5383370000000 1.0
C      1  0.5581930000000  0.4442670000000  0.4591140000000 1.0
C      1  0.5583150000000  0.5267110000000  0.4372340000000 1.0
C      1  0.5621350000000  0.5683450000000  0.5029590000000 1.0
C      1  0.5673070000000  0.5195170000000  0.5650120000000 1.0
C      1  0.4365600000000  0.5552580000000  0.5393430000000 1.0
C      1  0.4352030000000  0.5527700000000  0.4588230000000 1.0
C      1  0.4416680000000  0.4776650000000  0.4354430000000 1.0
C      1  0.4411950000000  0.4300630000000  0.5041220000000 1.0
C      1  0.4421540000000  0.4783500000000  0.5658430000000 1.0
C      1  0.4563210000000  0.5035270000000  0.4023300000000 1.0
C      1  0.4576540000000  0.5937300000000  0.4724710000000 1.0
C      1  0.4527280000000  0.5485810000000  0.5778330000000 1.0
C      1  0.4580290000000  0.4364190000000  0.5684590000000 1.0
C      1  0.4566480000000  0.4167290000000  0.4602810000000 1.0
C      1  0.5436790000000  0.4967650000000  0.4048910000000 1.0
C      1  0.5434800000000  0.4076430000000  0.4805940000000 1.0
C      1  0.5479650000000  0.4491830000000  0.5807390000000 1.0
C      1  0.5475820000000  0.5627480000000  0.5724210000000 1.0
C      1  0.5419800000000  0.5931080000000  0.4675280000000 1.0
C      1  0.4536960000000  0.4904890000000  0.4735790000000 1.0
C      1  0.4548460000000  0.5243360000000  0.4832960000000 1.0
C      1  0.4578380000000  0.5206060000000  0.5210140000000 1.0
C      1  0.4559230000000  0.4818680000000  0.5214370000000 1.0
C      1  0.4549850000000  0.4723150000000  0.4946310000000 1.0
C      1  0.5464140000000  0.5042420000000  0.4738010000000 1.0
C      1  0.5465820000000  0.4789980000000  0.4849950000000 1.0
C      1  0.5424150000000  0.4773250000000  0.5193640000000 1.0
C      1  0.5387360000000  0.5156720000000  0.5179640000000 1.0
C      1  0.5456050000000  0.5261380000000  0.4912990000000 1.0
C      1  0.5480100000000  0.5601780000000  0.5271410000000 1.0
C      1  0.5469420000000  0.4903040000000  0.5668030000000 1.0
C      1  0.5466350000000  0.4352620000000  0.5134190000000 1.0
C      1  0.5428130000000  0.4661900000000  0.4434540000000 1.0
C      1  0.5482770000000  0.5491350000000  0.4526540000000 1.0
C      1  0.4508900000000  0.4392730000000  0.5298010000000 1.0
C      1  0.4534300000000  0.5042050000000  0.5599950000000 1.0
C      1  0.4511670000000  0.5638780000000  0.5132710000000 1.0
C      1  0.4523430000000  0.5302850000000  0.4408080000000 1.0
C      1  0.4468560000000  0.4546350000000  0.4486690000000 1.0
C      1  0.5373490000000  0.4710750000000  0.4153350000000 1.0
C      1  0.5383660000000  0.5758190000000  0.4454210000000 1.0
C      1  0.5380710000000  0.5782850000000  0.5512350000000 1.0
C      1  0.5380120000000  0.4745700000000  0.5893920000000 1.0
C      1  0.5379530000000  0.4069480000000  0.5078340000000 1.0
C      1  0.4624710000000  0.5298440000000  0.4127020000000 1.0
C      1  0.4610740000000  0.4309410000000  0.4377510000000 1.0
C      1  0.4607340000000  0.4183140000000  0.5500480000000 1.0
C      1  0.4608790000000  0.5229350000000  0.5867270000000 1.0
C      1  0.4605240000000  0.5908830000000  0.5012760000000 1.0
C      1  0.5689690000000  0.5064480000000  0.4550540000000 1.0
C      1  0.5711580000000  0.5349730000000  0.4921470000000 1.0
C      1  0.5631050000000  0.5128140000000  0.5252490000000 1.0
C      1  0.5669440000000  0.4869010000000  0.5235920000000 1.0
C      1  0.5694490000000  0.4701910000000  0.4894780000000 1.0
C      1  0.4291250000000  0.4957880000000  0.4663470000000 1.0
C      1  0.4309630000000  0.4539520000000  0.4929770000000 1.0
C      1  0.4298900000000  0.4836530000000  0.5295260000000 1.0
C      1  0.4330970000000  0.5201010000000  0.5204160000000 1.0
C      1  0.4311390000000  0.5293260000000  0.4930510000000 1.0
C      1  0.5017460000000  0.5596340000000  0.5741390000000 1.0
C      1  0.5017730000000  0.4479010000000  0.5820990000000 1.0
C      1  0.4971770000000  0.5027330000000  0.4124110000000 1.0
C      1  0.4973360000000  0.5822640000000  0.4771240000000 1.0
C      1  0.5022860000000  0.4075280000000  0.4757280000000 1.0
C      1  0.5248690000000  0.4963800000000  0.5065350000000 1.0
C      1  0.4685430000000  0.5100000000000  0.5016700000000 1.0
C      1  0.4960190000000  0.5007480000000  0.5014310000000 1.0
END
