TITL C-2441157-2117-1109 0.0950720536480381 125000 -15126.7560723543 0 0 119 (C1) n - 1
REM
REM in /home/bkarasulu/work/CARBON/AIRSS/Generating-Clusters/ReaxFF-fromJPCA2015/Units_Real/with-SteepDescent/Higher-Symm
REM
REM
REM
REM
REM
REM ./C.cell (1df0a924f5614ab8850e4351716899ee)
REM
REM compiler GCC version 9.2.1 20190827 (Red Hat 9.2.1-1)
REM options -cpp -mtune=generic -march=x86-64 -g -O0 -fpre-include=/usr/include/finclude/math-vector-fortran.h
REM seed -1353590765 1765121205 -240659575 1695695466 -2036059986 530259974 -1650110950 -1455678173 385991809 -1800102014 31818696 -2031426038 1822525999 1994871435 315879847 1295355946 1974520194 -460028248 -2097912168 -399020844 413404485 1768612678 -389128142 1028189638 -245441703 -2081642422 1373472178 1991119172 305670371 -752658044 -296499428 -922535063 -2039413062
REM
CELL 1.54180   50.00000   50.00000   50.00000   90.00000   90.00000   90.00000
LATT -1
SFAC C  
C      1  0.4393110000000  0.5422280000000  0.5507540000000 1.0
C      1  0.5637430000000  0.4430250000000  0.5383580000000 1.0
C      1  0.4329020000000  0.4576980000000  0.4507240000000 1.0
C      1  0.5620670000000  0.5530300000000  0.4565090000000 1.0
C      1  0.4977360000000  0.5124700000000  0.5923840000000 1.0
C      1  0.5039510000000  0.4095820000000  0.5176980000000 1.0
C      1  0.4972630000000  0.4808240000000  0.4075060000000 1.0
C      1  0.5026760000000  0.5913000000000  0.4866650000000 1.0
C      1  0.4909580000000  0.4207450000000  0.5637040000000 1.0
C      1  0.5182050000000  0.4499390000000  0.4146230000000 1.0
C      1  0.4882870000000  0.5835200000000  0.4421230000000 1.0
C      1  0.5107140000000  0.5624260000000  0.5771990000000 1.0
C      1  0.5357750000000  0.4367360000000  0.5442790000000 1.0
C      1  0.4744440000000  0.4548490000000  0.4403920000000 1.0
C      1  0.5311850000000  0.5586340000000  0.4582570000000 1.0
C      1  0.4657260000000  0.5424810000000  0.5639880000000 1.0
C      1  0.4586130000000  0.5133030000000  0.4778280000000 1.0
C      1  0.5388960000000  0.5190530000000  0.5056940000000 1.0
C      1  0.4605770000000  0.4858480000000  0.5265460000000 1.0
C      1  0.5362820000000  0.4815950000000  0.4855350000000 1.0
C      1  0.5798460000000  0.5304790000000  0.4681030000000 1.0
C      1  0.4195110000000  0.5324510000000  0.5293770000000 1.0
C      1  0.5810640000000  0.4656040000000  0.5311230000000 1.0
C      1  0.4158460000000  0.4694510000000  0.4712950000000 1.0
C      1  0.5211320000000  0.4617340000000  0.5766580000000 1.0
C      1  0.4728240000000  0.4180910000000  0.4563190000000 1.0
C      1  0.5244520000000  0.5427470000000  0.4202470000000 1.0
C      1  0.4782340000000  0.5743660000000  0.5376570000000 1.0
C      1  0.4819350000000  0.5660820000000  0.5651060000000 1.0
C      1  0.5185610000000  0.4343570000000  0.5676880000000 1.0
C      1  0.4885450000000  0.4301260000000  0.4354480000000 1.0
C      1  0.5144710000000  0.5648780000000  0.4355190000000 1.0
C      1  0.4813110000000  0.5188320000000  0.5669990000000 1.0
C      1  0.5223960000000  0.4292370000000  0.5225070000000 1.0
C      1  0.4782910000000  0.4747610000000  0.4263960000000 1.0
C      1  0.5203490000000  0.5695020000000  0.4797890000000 1.0
C      1  0.4892170000000  0.4152370000000  0.4802950000000 1.0
C      1  0.5077510000000  0.5191190000000  0.4178340000000 1.0
C      1  0.5060630000000  0.5824030000000  0.5336600000000 1.0
C      1  0.4935980000000  0.4655890000000  0.5839960000000 1.0
C      1  0.5459370000000  0.4769760000000  0.5661100000000 1.0
C      1  0.4457650000000  0.4306240000000  0.4611980000000 1.0
C      1  0.5517880000000  0.5368720000000  0.4292540000000 1.0
C      1  0.4541370000000  0.5604460000000  0.5246960000000 1.0
C      1  0.4983830000000  0.4684720000000  0.5129990000000 1.0
C      1  0.5121740000000  0.4933820000000  0.4747310000000 1.0
C      1  0.4868620000000  0.5477410000000  0.4899780000000 1.0
C      1  0.5083060000000  0.5107740000000  0.5496330000000 1.0
C      1  0.4809000000000  0.4893210000000  0.5938010000000 1.0
C      1  0.5151830000000  0.4059640000000  0.4910090000000 1.0
C      1  0.4837680000000  0.5078620000000  0.4057780000000 1.0
C      1  0.5189330000000  0.5941130000000  0.5105890000000 1.0
C      1  0.5481990000000  0.5519470000000  0.5461140000000 1.0
C      1  0.4506940000000  0.4506590000000  0.5544500000000 1.0
C      1  0.5447030000000  0.4455620000000  0.4500790000000 1.0
C      1  0.4516210000000  0.5481730000000  0.4443040000000 1.0
C      1  0.5498930000000  0.4882700000000  0.4179260000000 1.0
C      1  0.4491100000000  0.5818280000000  0.4854970000000 1.0
C      1  0.5502690000000  0.5154460000000  0.5824690000000 1.0
C      1  0.4493780000000  0.4183120000000  0.5126000000000 1.0
C      1  0.5207110000000  0.4943310000000  0.4179080000000 1.0
C      1  0.4783580000000  0.5758850000000  0.4891060000000 1.0
C      1  0.5214710000000  0.5122790000000  0.5768210000000 1.0
C      1  0.4785230000000  0.4171190000000  0.5065760000000 1.0
C      1  0.5365590000000  0.4918510000000  0.5166800000000 1.0
C      1  0.4671770000000  0.4847350000000  0.4841310000000 1.0
C      1  0.5364160000000  0.5252240000000  0.4785200000000 1.0
C      1  0.4612530000000  0.5130420000000  0.5195370000000 1.0
C      1  0.4208780000000  0.4649230000000  0.5008350000000 1.0
C      1  0.5797640000000  0.5012670000000  0.4673190000000 1.0
C      1  0.4190310000000  0.5381240000000  0.4999010000000 1.0
C      1  0.5782500000000  0.4933250000000  0.5345710000000 1.0
C      1  0.5193250000000  0.4328310000000  0.4382320000000 1.0
C      1  0.4744700000000  0.5605420000000  0.4347470000000 1.0
C      1  0.5265140000000  0.5706580000000  0.5543680000000 1.0
C      1  0.4739430000000  0.4434340000000  0.5711790000000 1.0
C      1  0.4187620000000  0.4964530000000  0.4586400000000 1.0
C      1  0.5825200000000  0.5447100000000  0.4934650000000 1.0
C      1  0.4179090000000  0.5064060000000  0.5415120000000 1.0
C      1  0.5812570000000  0.4573210000000  0.5032010000000 1.0
C      1  0.4613180000000  0.4980200000000  0.5714240000000 1.0
C      1  0.5375430000000  0.4270630000000  0.4988640000000 1.0
C      1  0.4631330000000  0.4983150000000  0.4272320000000 1.0
C      1  0.5383970000000  0.5712990000000  0.5004500000000 1.0
C      1  0.4379970000000  0.5791450000000  0.5114540000000 1.0
C      1  0.5650400000000  0.4875500000000  0.5851680000000 1.0
C      1  0.4392750000000  0.4222720000000  0.4867180000000 1.0
C      1  0.5625190000000  0.5130290000000  0.4215230000000 1.0
C      1  0.5337660000000  0.4514170000000  0.4780210000000 1.0
C      1  0.4666570000000  0.5219870000000  0.4507370000000 1.0
C      1  0.5330690000000  0.5445360000000  0.5208530000000 1.0
C      1  0.4656920000000  0.4756820000000  0.5500060000000 1.0
C      1  0.4169380000000  0.5131060000000  0.4835610000000 1.0
C      1  0.5839320000000  0.5264090000000  0.5140580000000 1.0
C      1  0.4134550000000  0.4852730000000  0.5205810000000 1.0
C      1  0.5855740000000  0.4820610000000  0.4877930000000 1.0
C      1  0.5645400000000  0.4344140000000  0.5107930000000 1.0
C      1  0.4372640000000  0.4841390000000  0.4387690000000 1.0
C      1  0.5630450000000  0.5647660000000  0.4842460000000 1.0
C      1  0.4364050000000  0.5138710000000  0.5625680000000 1.0
C      1  0.4474910000000  0.5390280000000  0.4919780000000 1.0
C      1  0.5523510000000  0.4983730000000  0.5423150000000 1.0
C      1  0.4494630000000  0.4661520000000  0.5084360000000 1.0
C      1  0.5528910000000  0.4913680000000  0.4629620000000 1.0
C      1  0.4914460000000  0.4623320000000  0.5392140000000 1.0
C      1  0.5071770000000  0.4526740000000  0.4658160000000 1.0
C      1  0.4905320000000  0.5354320000000  0.4643170000000 1.0
C      1  0.5072170000000  0.5321340000000  0.5299880000000 1.0
C      1  0.4417000000000  0.5576900000000  0.4699410000000 1.0
C      1  0.5556630000000  0.5266740000000  0.5564440000000 1.0
C      1  0.4433540000000  0.4433210000000  0.5277670000000 1.0
C      1  0.5549150000000  0.4710540000000  0.4417440000000 1.0
C      1  0.5139650000000  0.5191320000000  0.4619100000000 1.0
C      1  0.4838830000000  0.5311220000000  0.5148540000000 1.0
C      1  0.5140450000000  0.4807890000000  0.5349000000000 1.0
C      1  0.4817280000000  0.4623410000000  0.4675700000000 1.0
C      1  0.4320270000000  0.5020580000000  0.5053850000000 1.0
C      1  0.5809560000000  0.5008950000000  0.5090960000000 1.0
C      1  0.4931940000000  0.4900180000000  0.4951450000000 1.0
END
