TITL C-2441157-2117-92 0.069727911746758 125000 -18207.2220843933 0 0 137 (C1) n - 1
REM
REM in /home/bkarasulu/work/CARBON/AIRSS/Generating-Clusters/ReaxFF-fromJPCA2015/Units_Real/with-SteepDescent/Higher-Symm
REM
REM
REM
REM
REM
REM ./C.cell (1df0a924f5614ab8850e4351716899ee)
REM
REM compiler GCC version 9.2.1 20190827 (Red Hat 9.2.1-1)
REM options -cpp -mtune=generic -march=x86-64 -g -O0 -fpre-include=/usr/include/finclude/math-vector-fortran.h
REM seed 711116934 1920329917 1039395746 2137372218 -1028868119 1103055819 1129663824 938778306 -1219679382 286775274 -87270595 -395451926 5529500 1549586878 89631781 837817129 2040666867 -263071346 1006682185 1626797107 1155149734 -1254119255 577471994 -94820682 1365393094 1579346075 978982205 -754380702 374175928 993181605 4179841 -327590732 1456352103
REM
CELL 1.54180   50.00000   50.00000   50.00000   90.00000   90.00000   90.00000
LATT -1
SFAC C  
C      1  0.4349700000000  0.5083120000000  0.4482370000000 1.0
C      1  0.4646940000000  0.5588650000000  0.4471990000000 1.0
C      1  0.5162500000000  0.5669440000000  0.4480220000000 1.0
C      1  0.5563910000000  0.5226610000000  0.4541210000000 1.0
C      1  0.5618220000000  0.4668610000000  0.4523220000000 1.0
C      1  0.5144800000000  0.4255080000000  0.4485340000000 1.0
C      1  0.4475200000000  0.4468530000000  0.4531930000000 1.0
C      1  0.5853900000000  0.4862950000000  0.4529510000000 1.0
C      1  0.5542650000000  0.4191710000000  0.4563480000000 1.0
C      1  0.4571640000000  0.4194710000000  0.4554800000000 1.0
C      1  0.4087750000000  0.4794530000000  0.4614860000000 1.0
C      1  0.4158170000000  0.5512390000000  0.4563020000000 1.0
C      1  0.4828180000000  0.6009100000000  0.4563300000000 1.0
C      1  0.5739180000000  0.5587860000000  0.4615070000000 1.0
C      1  0.5397750000000  0.4345220000000  0.4372960000000 1.0
C      1  0.4760450000000  0.4236390000000  0.4354100000000 1.0
C      1  0.4281920000000  0.4816010000000  0.4401860000000 1.0
C      1  0.4335730000000  0.5567560000000  0.4358240000000 1.0
C      1  0.4894730000000  0.5772870000000  0.4409740000000 1.0
C      1  0.5582680000000  0.5479800000000  0.4403440000000 1.0
C      1  0.5791020000000  0.4943990000000  0.4263550000000 1.0
C      1  0.5188570000000  0.5919710000000  0.5199470000000 1.0
C      1  0.5847700000000  0.5457390000000  0.5146890000000 1.0
C      1  0.5886520000000  0.4590280000000  0.5173560000000 1.0
C      1  0.5227900000000  0.4075700000000  0.5199250000000 1.0
C      1  0.4452030000000  0.4240820000000  0.5150650000000 1.0
C      1  0.4030980000000  0.4970980000000  0.5122110000000 1.0
C      1  0.4412680000000  0.5733610000000  0.5179880000000 1.0
C      1  0.4880220000000  0.4710860000000  0.4787890000000 1.0
C      1  0.4702620000000  0.4896160000000  0.4890350000000 1.0
C      1  0.4728170000000  0.5165860000000  0.4877170000000 1.0
C      1  0.4968110000000  0.5312780000000  0.4852460000000 1.0
C      1  0.5235130000000  0.5212310000000  0.4830210000000 1.0
C      1  0.5308150000000  0.4940340000000  0.4894090000000 1.0
C      1  0.5134310000000  0.4701190000000  0.4946800000000 1.0
C      1  0.5824430000000  0.4935570000000  0.5592790000000 1.0
C      1  0.5473480000000  0.4314650000000  0.5609280000000 1.0
C      1  0.4755370000000  0.4200560000000  0.5602080000000 1.0
C      1  0.4216410000000  0.4684790000000  0.5604330000000 1.0
C      1  0.4288410000000  0.5393340000000  0.5593670000000 1.0
C      1  0.4874570000000  0.5813710000000  0.5612390000000 1.0
C      1  0.5581740000000  0.5607050000000  0.5603070000000 1.0
C      1  0.4942310000000  0.4078750000000  0.5157230000000 1.0
C      1  0.4262020000000  0.4453720000000  0.5162920000000 1.0
C      1  0.4091970000000  0.5244150000000  0.5100380000000 1.0
C      1  0.4668190000000  0.5855130000000  0.5130950000000 1.0
C      1  0.5448190000000  0.5801910000000  0.5165170000000 1.0
C      1  0.5898920000000  0.5177330000000  0.5132660000000 1.0
C      1  0.5691020000000  0.4382800000000  0.5131900000000 1.0
C      1  0.5301270000000  0.5058180000000  0.4123280000000 1.0
C      1  0.5271010000000  0.4771600000000  0.4125580000000 1.0
C      1  0.5013700000000  0.4648980000000  0.4143290000000 1.0
C      1  0.4745310000000  0.4749820000000  0.4158870000000 1.0
C      1  0.4691010000000  0.5038680000000  0.4125120000000 1.0
C      1  0.4862680000000  0.5274850000000  0.4139480000000 1.0
C      1  0.5150680000000  0.5312300000000  0.4117500000000 1.0
C      1  0.5291070000000  0.4738630000000  0.5311940000000 1.0
C      1  0.5027810000000  0.4635270000000  0.5215060000000 1.0
C      1  0.4731250000000  0.4839700000000  0.5355410000000 1.0
C      1  0.4621140000000  0.5165540000000  0.5282740000000 1.0
C      1  0.4827130000000  0.5351030000000  0.5294850000000 1.0
C      1  0.5236100000000  0.5294840000000  0.5335540000000 1.0
C      1  0.5378120000000  0.5035130000000  0.5303550000000 1.0
C      1  0.5049670000000  0.4186770000000  0.4765150000000 1.0
C      1  0.4372920000000  0.4561160000000  0.4784350000000 1.0
C      1  0.4280940000000  0.5171970000000  0.4738890000000 1.0
C      1  0.4632390000000  0.5678600000000  0.4762520000000 1.0
C      1  0.5290870000000  0.5718800000000  0.4765900000000 1.0
C      1  0.5752460000000  0.5095950000000  0.4718420000000 1.0
C      1  0.5575910000000  0.4535020000000  0.4774380000000 1.0
C      1  0.4531020000000  0.4665590000000  0.4330910000000 1.0
C      1  0.4587950000000  0.5119960000000  0.4380760000000 1.0
C      1  0.4752000000000  0.5329100000000  0.4401140000000 1.0
C      1  0.5288340000000  0.5488980000000  0.4311360000000 1.0
C      1  0.5545270000000  0.5075120000000  0.4294610000000 1.0
C      1  0.5435970000000  0.4628620000000  0.4306760000000 1.0
C      1  0.4981640000000  0.4408350000000  0.4303490000000 1.0
C      1  0.5258620000000  0.4217540000000  0.5455140000000 1.0
C      1  0.4548400000000  0.4297090000000  0.5417400000000 1.0
C      1  0.4188740000000  0.4887020000000  0.5384630000000 1.0
C      1  0.4425120000000  0.5596620000000  0.5445520000000 1.0
C      1  0.5123450000000  0.5829810000000  0.5466510000000 1.0
C      1  0.5737330000000  0.5438190000000  0.5416080000000 1.0
C      1  0.5779020000000  0.4700040000000  0.5432710000000 1.0
C      1  0.4468180000000  0.4762600000000  0.4956370000000 1.0
C      1  0.4463720000000  0.5299960000000  0.4922260000000 1.0
C      1  0.4903550000000  0.5595980000000  0.4909190000000 1.0
C      1  0.5369840000000  0.5456340000000  0.4903160000000 1.0
C      1  0.5604920000000  0.4920150000000  0.4937640000000 1.0
C      1  0.5329520000000  0.4488040000000  0.4927080000000 1.0
C      1  0.4833660000000  0.4402240000000  0.4896440000000 1.0
C      1  0.4113800000000  0.4507540000000  0.4909980000000 1.0
C      1  0.4081700000000  0.5374260000000  0.4805180000000 1.0
C      1  0.4762530000000  0.5970100000000  0.4862990000000 1.0
C      1  0.5562860000000  0.5824060000000  0.4899790000000 1.0
C      1  0.5993410000000  0.5025700000000  0.4888200000000 1.0
C      1  0.5639950000000  0.4241000000000  0.4828560000000 1.0
C      1  0.4851170000000  0.3994940000000  0.4895880000000 1.0
C      1  0.5290630000000  0.4186640000000  0.4935390000000 1.0
C      1  0.4614740000000  0.4172940000000  0.4875740000000 1.0
C      1  0.3995250000000  0.4782880000000  0.4884670000000 1.0
C      1  0.4402290000000  0.5601050000000  0.4920630000000 1.0
C      1  0.5070970000000  0.5850370000000  0.4931760000000 1.0
C      1  0.5784250000000  0.5628300000000  0.4894030000000 1.0
C      1  0.5887920000000  0.4760610000000  0.4934690000000 1.0
C      1  0.4905680000000  0.5310170000000  0.5759790000000 1.0
C      1  0.5194660000000  0.5262640000000  0.5676370000000 1.0
C      1  0.5324500000000  0.5005980000000  0.5757060000000 1.0
C      1  0.5214070000000  0.4745460000000  0.5775370000000 1.0
C      1  0.4946900000000  0.4659270000000  0.5771140000000 1.0
C      1  0.4714850000000  0.4830110000000  0.5686490000000 1.0
C      1  0.4703780000000  0.5126260000000  0.5763450000000 1.0
C      1  0.5334700000000  0.5738700000000  0.5636650000000 1.0
C      1  0.5770070000000  0.5212920000000  0.5597150000000 1.0
C      1  0.5654290000000  0.4516500000000  0.5615210000000 1.0
C      1  0.5034640000000  0.4188540000000  0.5631790000000 1.0
C      1  0.4386700000000  0.4458230000000  0.5606670000000 1.0
C      1  0.4233110000000  0.5119700000000  0.5582310000000 1.0
C      1  0.4619480000000  0.5700220000000  0.5624000000000 1.0
C      1  0.4434300000000  0.5216080000000  0.5755330000000 1.0
C      1  0.4820370000000  0.5582210000000  0.5767510000000 1.0
C      1  0.5362700000000  0.5493980000000  0.5752160000000 1.0
C      1  0.5608800000000  0.5036410000000  0.5751690000000 1.0
C      1  0.5420140000000  0.4534520000000  0.5777030000000 1.0
C      1  0.4901220000000  0.4380450000000  0.5771980000000 1.0
C      1  0.4459820000000  0.4689120000000  0.5745520000000 1.0
C      1  0.4893480000000  0.4375530000000  0.5178250000000 1.0
C      1  0.4409500000000  0.4712580000000  0.5233820000000 1.0
C      1  0.4363450000000  0.5278140000000  0.5203280000000 1.0
C      1  0.4831060000000  0.5620980000000  0.5197030000000 1.0
C      1  0.5383470000000  0.5504600000000  0.5185100000000 1.0
C      1  0.5654920000000  0.5022280000000  0.5215170000000 1.0
C      1  0.5438850000000  0.4501150000000  0.5218420000000 1.0
C      1  0.5089450000000  0.5014770000000  0.4404330000000 1.0
C      1  0.4991410000000  0.4863800000000  0.4583190000000 1.0
C      1  0.5010210000000  0.5027470000000  0.5116800000000 1.0
C      1  0.4973970000000  0.4996450000000  0.5388500000000 1.0
END
