TITL C-2441161-5029-1194 -0.000390210205937946 125000 -3974.79014387661 0 0 29 (Cs) n - 1
REM
REM in /home/bkarasulu/work/CARBON/AIRSS/Generating-Clusters/ReaxFF-fromJPCA2015/Units_Real/with-SteepDescent/Higher-Symm
REM
REM
REM
REM
REM
REM ./C.cell (1df0a924f5614ab8850e4351716899ee)
REM
REM compiler GCC version 9.2.1 20190827 (Red Hat 9.2.1-1)
REM options -cpp -mtune=generic -march=x86-64 -g -O0 -fpre-include=/usr/include/finclude/math-vector-fortran.h
REM seed 1970214428 1656765257 -1228161367 -113270577 -1547032505 599175558 -320546386 -292316102 -1616715913 -721700312 289850929 -756989769 -1304144223 938792601 1434399562 -662989790 909839203 -1740159910 158401356 1486854155 2101871543 -151289996 606131005 1659059006 -2014329559 -430595703 -1217661925 -40397913 -729726505 -1536358519 -450356903 702320589 -1294039441
REM
CELL 1.54180   50.00000   50.00000   50.00000   90.00000   90.00000   90.00000
LATT -1
SFAC C  
C      1  0.4467730000000  0.4843040000000  0.5122110000000 1.0
C      1  0.5590210000000  0.5153040000000  0.5119010000000 1.0
C      1  0.5590230000000  0.4844840000000  0.5119000000000 1.0
C      1  0.4467870000000  0.5154990000000  0.5122140000000 1.0
C      1  0.5145030000000  0.4627720000000  0.4928280000000 1.0
C      1  0.4848190000000  0.5430950000000  0.5022280000000 1.0
C      1  0.4848200000000  0.4566860000000  0.5022120000000 1.0
C      1  0.5144980000000  0.5369950000000  0.4928370000000 1.0
C      1  0.5662530000000  0.5364110000000  0.4951330000000 1.0
C      1  0.4394660000000  0.4676960000000  0.4906110000000 1.0
C      1  0.4394900000000  0.5320790000000  0.4906110000000 1.0
C      1  0.5662620000000  0.4633720000000  0.4951410000000 1.0
C      1  0.5166860000000  0.4852700000000  0.5436280000000 1.0
C      1  0.4872980000000  0.5147420000000  0.5454560000000 1.0
C      1  0.4873100000000  0.4850410000000  0.5454470000000 1.0
C      1  0.5166950000000  0.5145060000000  0.5436330000000 1.0
C      1  0.5420200000000  0.4542410000000  0.4892880000000 1.0
C      1  0.4611040000000  0.5451870000000  0.4874990000000 1.0
C      1  0.4610850000000  0.4545710000000  0.4874710000000 1.0
C      1  0.5420120000000  0.5455300000000  0.4892760000000 1.0
C      1  0.5144780000000  0.4656880000000  0.4611570000000 1.0
C      1  0.4891200000000  0.5258450000000  0.4477910000000 1.0
C      1  0.4891360000000  0.4740060000000  0.4478810000000 1.0
C      1  0.5144540000000  0.5340770000000  0.4611510000000 1.0
C      1  0.5287700000000  0.5152700000000  0.5159140000000 1.0
C      1  0.4722940000000  0.4724060000000  0.5231930000000 1.0
C      1  0.4722840000000  0.5273860000000  0.5231780000000 1.0
C      1  0.5287700000000  0.4845030000000  0.5159100000000 1.0
C      1  0.4879110000000  0.4999530000000  0.4640900000000 1.0
END
