TITL C-2441154-10-532 0.058119895978903 125000 -22077.3802438945 0 0 155 (C1) n - 1
REM
REM in /home/bkarasulu/work/CARBON/AIRSS/Generating-Clusters/ReaxFF-fromJPCA2015/Units_Real/with-SteepDescent/Higher-Symm
REM
REM
REM
REM
REM
REM ./C.cell (1df0a924f5614ab8850e4351716899ee)
REM
REM compiler GCC version 9.2.1 20190827 (Red Hat 9.2.1-1)
REM options -cpp -mtune=generic -march=x86-64 -g -O0 -fpre-include=/usr/include/finclude/math-vector-fortran.h
REM seed -1700077752 -2069492771 -1179987813 -151575474 355978084 -2122641095 1627790138 -1998871875 1025152849 480095396 1743911851 -1179626639 1993794646 -1487446612 2084706156 442261649 -2000823276 676964174 -1570090890 1539759499 746520207 1513656747 1249194057 1662868615 39150948 -1759500793 53566880 837955745 2047126033 938743188 -753527343 428632193 -304292445
REM
CELL 1.54180   50.00000   50.00000   50.00000   90.00000   90.00000   90.00000
LATT -1
SFAC C  
C      1  0.5828620000000  0.5399230000000  0.5434470000000 1.0
C      1  0.4094410000000  0.5222450000000  0.4787180000000 1.0
C      1  0.5831780000000  0.5172540000000  0.5579310000000 1.0
C      1  0.5035320000000  0.5165320000000  0.3992140000000 1.0
C      1  0.5184680000000  0.4865020000000  0.5849380000000 1.0
C      1  0.5255760000000  0.5959160000000  0.5104770000000 1.0
C      1  0.5467440000000  0.5165730000000  0.5121200000000 1.0
C      1  0.4907620000000  0.5573420000000  0.4612750000000 1.0
C      1  0.5150130000000  0.5019550000000  0.4434540000000 1.0
C      1  0.4752340000000  0.5692270000000  0.4394490000000 1.0
C      1  0.5559850000000  0.5451490000000  0.5304260000000 1.0
C      1  0.4889520000000  0.4299960000000  0.4160660000000 1.0
C      1  0.4932710000000  0.4535190000000  0.4658960000000 1.0
C      1  0.4215210000000  0.4944850000000  0.5449630000000 1.0
C      1  0.5936780000000  0.4944980000000  0.5464530000000 1.0
C      1  0.5848440000000  0.5280220000000  0.4833980000000 1.0
C      1  0.4056880000000  0.5364120000000  0.5188690000000 1.0
C      1  0.4585770000000  0.5316090000000  0.4148930000000 1.0
C      1  0.5014880000000  0.5012830000000  0.6045270000000 1.0
C      1  0.5079350000000  0.5356010000000  0.5176400000000 1.0
C      1  0.4478270000000  0.4521400000000  0.4385300000000 1.0
C      1  0.5292870000000  0.5027020000000  0.5608700000000 1.0
C      1  0.4218080000000  0.4571530000000  0.4508970000000 1.0
C      1  0.5593900000000  0.4892960000000  0.5124960000000 1.0
C      1  0.4865210000000  0.5256670000000  0.5977450000000 1.0
C      1  0.4974470000000  0.5424340000000  0.5437810000000 1.0
C      1  0.5884710000000  0.5272870000000  0.4372290000000 1.0
C      1  0.4684520000000  0.4683980000000  0.4609370000000 1.0
C      1  0.4810680000000  0.5379600000000  0.4813070000000 1.0
C      1  0.4937910000000  0.5533370000000  0.5890210000000 1.0
C      1  0.5127140000000  0.5260930000000  0.5629170000000 1.0
C      1  0.5257030000000  0.4979110000000  0.4044540000000 1.0
C      1  0.4795700000000  0.5859950000000  0.5477670000000 1.0
C      1  0.5486800000000  0.5090440000000  0.4204940000000 1.0
C      1  0.5288780000000  0.5552740000000  0.4188640000000 1.0
C      1  0.4416300000000  0.5260970000000  0.5809060000000 1.0
C      1  0.5162700000000  0.4643910000000  0.4786630000000 1.0
C      1  0.4106290000000  0.4843810000000  0.4504730000000 1.0
C      1  0.4231900000000  0.5061000000000  0.4342370000000 1.0
C      1  0.4826050000000  0.4341570000000  0.5364910000000 1.0
C      1  0.4459020000000  0.4644430000000  0.4114290000000 1.0
C      1  0.5876210000000  0.4637930000000  0.4620340000000 1.0
C      1  0.4515030000000  0.5785080000000  0.4537220000000 1.0
C      1  0.4123880000000  0.4387800000000  0.4997140000000 1.0
C      1  0.5564130000000  0.4916400000000  0.4804900000000 1.0
C      1  0.5442930000000  0.5345140000000  0.4320670000000 1.0
C      1  0.5197130000000  0.4301000000000  0.5626020000000 1.0
C      1  0.5433540000000  0.4658340000000  0.5855510000000 1.0
C      1  0.5542450000000  0.5822670000000  0.4765600000000 1.0
C      1  0.4505040000000  0.4675760000000  0.4843780000000 1.0
C      1  0.5550090000000  0.5871170000000  0.5047720000000 1.0
C      1  0.5169550000000  0.4239930000000  0.4236280000000 1.0
C      1  0.5809700000000  0.4918360000000  0.4652960000000 1.0
C      1  0.5215800000000  0.4551750000000  0.5058080000000 1.0
C      1  0.4361180000000  0.5538990000000  0.4556200000000 1.0
C      1  0.4291540000000  0.4487020000000  0.4779130000000 1.0
C      1  0.4758740000000  0.5059040000000  0.4068680000000 1.0
C      1  0.4153810000000  0.5602290000000  0.5090740000000 1.0
C      1  0.4350120000000  0.4761730000000  0.5877240000000 1.0
C      1  0.4157780000000  0.4669980000000  0.5377930000000 1.0
C      1  0.3984190000000  0.4975820000000  0.4745950000000 1.0
C      1  0.5131490000000  0.6023370000000  0.4840840000000 1.0
C      1  0.4687730000000  0.4609160000000  0.5051350000000 1.0
C      1  0.5091280000000  0.5914660000000  0.5347770000000 1.0
C      1  0.5570760000000  0.5210810000000  0.4837140000000 1.0
C      1  0.5396570000000  0.5353580000000  0.4638080000000 1.0
C      1  0.4873880000000  0.5020550000000  0.4362990000000 1.0
C      1  0.5572330000000  0.4387770000000  0.5419030000000 1.0
C      1  0.4755540000000  0.4978810000000  0.4613590000000 1.0
C      1  0.4769620000000  0.5534020000000  0.4143760000000 1.0
C      1  0.4543860000000  0.4873070000000  0.6036100000000 1.0
C      1  0.4752350000000  0.5675540000000  0.5711760000000 1.0
C      1  0.4014210000000  0.5093950000000  0.5245960000000 1.0
C      1  0.4278170000000  0.4221300000000  0.5172520000000 1.0
C      1  0.4640180000000  0.5304630000000  0.5039740000000 1.0
C      1  0.5221040000000  0.4768670000000  0.5408880000000 1.0
C      1  0.5489460000000  0.5418260000000  0.5768040000000 1.0
C      1  0.5449690000000  0.4410720000000  0.5703940000000 1.0
C      1  0.5836320000000  0.4511610000000  0.5379740000000 1.0
C      1  0.5442590000000  0.5596020000000  0.5548500000000 1.0
C      1  0.5173350000000  0.5694390000000  0.5503370000000 1.0
C      1  0.4656760000000  0.4221650000000  0.4560340000000 1.0
C      1  0.5081960000000  0.4866990000000  0.5185570000000 1.0
C      1  0.5925870000000  0.4916970000000  0.5170100000000 1.0
C      1  0.5127350000000  0.5577750000000  0.5018220000000 1.0
C      1  0.4637190000000  0.5795710000000  0.5026100000000 1.0
C      1  0.4593780000000  0.5956500000000  0.4765620000000 1.0
C      1  0.5198920000000  0.4134600000000  0.5390310000000 1.0
C      1  0.5431950000000  0.4649510000000  0.5240230000000 1.0
C      1  0.5816720000000  0.4485000000000  0.4863450000000 1.0
C      1  0.5132090000000  0.5247740000000  0.4597380000000 1.0
C      1  0.4828030000000  0.4843140000000  0.5078510000000 1.0
C      1  0.5182820000000  0.5112120000000  0.5083990000000 1.0
C      1  0.5180680000000  0.4127510000000  0.4503640000000 1.0
C      1  0.5452000000000  0.4134080000000  0.5260080000000 1.0
C      1  0.5600040000000  0.5131210000000  0.5735610000000 1.0
C      1  0.4910860000000  0.5727340000000  0.5009500000000 1.0
C      1  0.5395460000000  0.4143640000000  0.4985960000000 1.0
C      1  0.4521870000000  0.4959320000000  0.5358580000000 1.0
C      1  0.5584480000000  0.4261760000000  0.4812840000000 1.0
C      1  0.5713680000000  0.5640200000000  0.5125010000000 1.0
C      1  0.4314160000000  0.5738100000000  0.5297940000000 1.0
C      1  0.4903180000000  0.4579630000000  0.4056400000000 1.0
C      1  0.5956160000000  0.5461450000000  0.5185830000000 1.0
C      1  0.4022670000000  0.4634630000000  0.5137390000000 1.0
C      1  0.4436910000000  0.5504720000000  0.5437490000000 1.0
C      1  0.5996410000000  0.5197240000000  0.5061400000000 1.0
C      1  0.4688690000000  0.4184000000000  0.4327870000000 1.0
C      1  0.5344820000000  0.5761040000000  0.4384120000000 1.0
C      1  0.5158690000000  0.5771650000000  0.4622290000000 1.0
C      1  0.4625750000000  0.4133510000000  0.5454950000000 1.0
C      1  0.5328590000000  0.4488810000000  0.4180070000000 1.0
C      1  0.5215000000000  0.5428420000000  0.5858040000000 1.0
C      1  0.5844910000000  0.4711170000000  0.5600320000000 1.0
C      1  0.5651560000000  0.4821830000000  0.5791280000000 1.0
C      1  0.4212960000000  0.5466870000000  0.4808040000000 1.0
C      1  0.4689100000000  0.5171370000000  0.5742600000000 1.0
C      1  0.4945040000000  0.4250090000000  0.4689230000000 1.0
C      1  0.4813000000000  0.4805500000000  0.6100870000000 1.0
C      1  0.4725620000000  0.4950430000000  0.5560640000000 1.0
C      1  0.5614770000000  0.5752940000000  0.4493760000000 1.0
C      1  0.4328030000000  0.4884890000000  0.4152990000000 1.0
C      1  0.4565310000000  0.5892470000000  0.5302710000000 1.0
C      1  0.5425340000000  0.4199690000000  0.4594410000000 1.0
C      1  0.4616970000000  0.4505820000000  0.5286760000000 1.0
C      1  0.4484310000000  0.5539120000000  0.5725560000000 1.0
C      1  0.4612640000000  0.4029020000000  0.4689530000000 1.0
C      1  0.4526160000000  0.4501110000000  0.5827770000000 1.0
C      1  0.5907330000000  0.4598660000000  0.5110000000000 1.0
C      1  0.4916170000000  0.4724700000000  0.5700140000000 1.0
C      1  0.4269510000000  0.5014780000000  0.5750250000000 1.0
C      1  0.4983510000000  0.4112760000000  0.4949930000000 1.0
C      1  0.4853220000000  0.6068530000000  0.4793660000000 1.0
C      1  0.5746360000000  0.5003840000000  0.4356330000000 1.0
C      1  0.4675760000000  0.5407380000000  0.5307110000000 1.0
C      1  0.4469380000000  0.4291970000000  0.5639320000000 1.0
C      1  0.4695190000000  0.4768020000000  0.4011790000000 1.0
C      1  0.4949340000000  0.5132400000000  0.4783700000000 1.0
C      1  0.5051080000000  0.4547950000000  0.5528820000000 1.0
C      1  0.4400210000000  0.5323060000000  0.4364300000000 1.0
C      1  0.5822300000000  0.5550160000000  0.4425210000000 1.0
C      1  0.3950440000000  0.4900030000000  0.5037640000000 1.0
C      1  0.4517550000000  0.4061770000000  0.5185990000000 1.0
C      1  0.5755690000000  0.4668680000000  0.4349380000000 1.0
C      1  0.5334500000000  0.5606920000000  0.4785050000000 1.0
C      1  0.4588990000000  0.5003410000000  0.5074310000000 1.0
C      1  0.5040080000000  0.5442400000000  0.4061450000000 1.0
C      1  0.4706050000000  0.4011090000000  0.4954110000000 1.0
C      1  0.5477650000000  0.4627340000000  0.4389640000000 1.0
C      1  0.4346370000000  0.4445330000000  0.5387810000000 1.0
C      1  0.5169550000000  0.4689500000000  0.4048940000000 1.0
C      1  0.4795130000000  0.4573460000000  0.5912590000000 1.0
C      1  0.5327110000000  0.4809300000000  0.4597150000000 1.0
C      1  0.5052180000000  0.4276540000000  0.5172200000000 1.0
C      1  0.5961070000000  0.5391600000000  0.4610040000000 1.0
END
