TITL C-2441167-4473-219 0.0381413272341984 125000 -13170.4428516642 0 0 93 (C1) n - 1
REM
REM in /home/bkarasulu/work/CARBON/AIRSS/Generating-Clusters/ReaxFF-fromJPCA2015/Units_Real/with-SteepDescent/Higher-Symm
REM
REM
REM
REM
REM
REM ./C.cell (1df0a924f5614ab8850e4351716899ee)
REM
REM compiler GCC version 9.2.1 20190827 (Red Hat 9.2.1-1)
REM options -cpp -mtune=generic -march=x86-64 -g -O0 -fpre-include=/usr/include/finclude/math-vector-fortran.h
REM seed -1159477161 779063921 -1720478124 1608370865 -1298613074 -233833241 -346502049 -424173974 1771122992 -361606021 1700857187 705524253 -539164658 2000545350 464540668 -691823273 -1975402755 -1693658043 809855216 1669663915 -1471936087 -291000937 -858516945 -940660003 1571429865 602829229 -7268006 675893665 -561268690 -2018763210 2013518979 1870738182 -594529659
REM
CELL 1.54180   50.00000   50.00000   50.00000   90.00000   90.00000   90.00000
LATT -1
SFAC C  
C      1  0.5151400000000  0.5750230000000  0.5239210000000 1.0
C      1  0.5582790000000  0.4680910000000  0.5093600000000 1.0
C      1  0.4417750000000  0.4713330000000  0.4552110000000 1.0
C      1  0.5310820000000  0.4656950000000  0.4323460000000 1.0
C      1  0.5735790000000  0.5147190000000  0.4830420000000 1.0
C      1  0.5638480000000  0.4457140000000  0.4919880000000 1.0
C      1  0.4453640000000  0.5515450000000  0.4967330000000 1.0
C      1  0.4748340000000  0.5303700000000  0.5613180000000 1.0
C      1  0.4790200000000  0.4463390000000  0.5410660000000 1.0
C      1  0.4740730000000  0.5530110000000  0.4537150000000 1.0
C      1  0.5184610000000  0.5541200000000  0.5475400000000 1.0
C      1  0.4934690000000  0.5269470000000  0.5817130000000 1.0
C      1  0.4872220000000  0.5329730000000  0.5141100000000 1.0
C      1  0.5672660000000  0.5389410000000  0.5478880000000 1.0
C      1  0.4978990000000  0.4260660000000  0.4586990000000 1.0
C      1  0.4523110000000  0.4517950000000  0.5511970000000 1.0
C      1  0.4346830000000  0.5146530000000  0.4635850000000 1.0
C      1  0.4285270000000  0.5374440000000  0.4416480000000 1.0
C      1  0.4575630000000  0.4477940000000  0.4532160000000 1.0
C      1  0.5307230000000  0.4805200000000  0.4988090000000 1.0
C      1  0.5158720000000  0.5561730000000  0.4349200000000 1.0
C      1  0.4259650000000  0.4715720000000  0.4802510000000 1.0
C      1  0.5682970000000  0.4745270000000  0.5362250000000 1.0
C      1  0.4796980000000  0.4950480000000  0.5262720000000 1.0
C      1  0.4393400000000  0.5425350000000  0.5389580000000 1.0
C      1  0.4272920000000  0.4860050000000  0.5329410000000 1.0
C      1  0.4907220000000  0.4834110000000  0.5695300000000 1.0
C      1  0.5336790000000  0.4902160000000  0.4494350000000 1.0
C      1  0.5382180000000  0.5159840000000  0.4368570000000 1.0
C      1  0.4186420000000  0.4989040000000  0.4852090000000 1.0
C      1  0.5110430000000  0.5309480000000  0.4707080000000 1.0
C      1  0.4486960000000  0.5220430000000  0.5576890000000 1.0
C      1  0.4535190000000  0.5478760000000  0.4322120000000 1.0
C      1  0.5675170000000  0.4604510000000  0.4667050000000 1.0
C      1  0.4846390000000  0.4447140000000  0.4417640000000 1.0
C      1  0.5329250000000  0.5403550000000  0.4528770000000 1.0
C      1  0.5076330000000  0.5784740000000  0.4780200000000 1.0
C      1  0.5370790000000  0.5126840000000  0.5814740000000 1.0
C      1  0.5514980000000  0.5279360000000  0.4989580000000 1.0
C      1  0.4733020000000  0.4694500000000  0.5223410000000 1.0
C      1  0.4959570000000  0.4482440000000  0.4969800000000 1.0
C      1  0.5028050000000  0.5373100000000  0.4165900000000 1.0
C      1  0.5255600000000  0.4509220000000  0.5381090000000 1.0
C      1  0.5022740000000  0.4632130000000  0.4267680000000 1.0
C      1  0.5363510000000  0.5721130000000  0.4793090000000 1.0
C      1  0.5385370000000  0.4852480000000  0.5731350000000 1.0
C      1  0.4856240000000  0.4219100000000  0.5055960000000 1.0
C      1  0.4879500000000  0.4925150000000  0.4779580000000 1.0
C      1  0.4772440000000  0.4709110000000  0.4936610000000 1.0
C      1  0.5272550000000  0.4284460000000  0.4621730000000 1.0
C      1  0.4599550000000  0.5629100000000  0.5344710000000 1.0
C      1  0.4270490000000  0.5358280000000  0.5138790000000 1.0
C      1  0.4492840000000  0.4960790000000  0.4460990000000 1.0
C      1  0.4613450000000  0.4746540000000  0.5674770000000 1.0
C      1  0.5902340000000  0.5256070000000  0.5321790000000 1.0
C      1  0.5805440000000  0.4994880000000  0.5463350000000 1.0
C      1  0.4417670000000  0.4938460000000  0.5572810000000 1.0
C      1  0.4643240000000  0.5712680000000  0.5075390000000 1.0
C      1  0.4741400000000  0.5304150000000  0.4180800000000 1.0
C      1  0.5045140000000  0.5006310000000  0.5879840000000 1.0
C      1  0.5469210000000  0.4654510000000  0.5546850000000 1.0
C      1  0.4970620000000  0.5710170000000  0.4518110000000 1.0
C      1  0.5154270000000  0.4864920000000  0.4728460000000 1.0
C      1  0.5265960000000  0.4150640000000  0.5075810000000 1.0
C      1  0.5393930000000  0.5767790000000  0.5086520000000 1.0
C      1  0.5170060000000  0.5117390000000  0.4170500000000 1.0
C      1  0.4854070000000  0.5459880000000  0.5406540000000 1.0
C      1  0.4826890000000  0.5269850000000  0.4649450000000 1.0
C      1  0.5160940000000  0.4603990000000  0.5130140000000 1.0
C      1  0.5904100000000  0.5234980000000  0.5044340000000 1.0
C      1  0.5395050000000  0.5347240000000  0.5386050000000 1.0
C      1  0.5097340000000  0.5300080000000  0.4984730000000 1.0
C      1  0.5015960000000  0.4960890000000  0.5455210000000 1.0
C      1  0.4763160000000  0.4178250000000  0.4782280000000 1.0
C      1  0.5187490000000  0.5374560000000  0.5734000000000 1.0
C      1  0.5297190000000  0.5112410000000  0.5079570000000 1.0
C      1  0.4195760000000  0.5068740000000  0.5125120000000 1.0
C      1  0.4573000000000  0.5267510000000  0.4829650000000 1.0
C      1  0.5433880000000  0.4233770000000  0.4872100000000 1.0
C      1  0.4942090000000  0.5776170000000  0.5040720000000 1.0
C      1  0.5447800000000  0.4472660000000  0.4493270000000 1.0
C      1  0.4686060000000  0.5131840000000  0.5070860000000 1.0
C      1  0.5519780000000  0.5553890000000  0.4960300000000 1.0
C      1  0.4701280000000  0.5029550000000  0.4271030000000 1.0
C      1  0.5057660000000  0.4113230000000  0.5255090000000 1.0
C      1  0.5661470000000  0.5159690000000  0.5654830000000 1.0
C      1  0.5713750000000  0.4873190000000  0.4735110000000 1.0
C      1  0.4366060000000  0.4513450000000  0.4983970000000 1.0
C      1  0.5046950000000  0.4327490000000  0.5464290000000 1.0
C      1  0.5263160000000  0.5087560000000  0.5373170000000 1.0
C      1  0.4349520000000  0.4586270000000  0.5272710000000 1.0
C      1  0.4958880000000  0.4906450000000  0.4213720000000 1.0
C      1  0.4522590000000  0.4351370000000  0.4784990000000 1.0
END
