TITL C-2441162-9305-52 0.0964101474934837 125000 -24267.5349482766 0 0 179 (C1) n - 1
REM
REM in /home/bkarasulu/work/CARBON/AIRSS/Generating-Clusters/ReaxFF-fromJPCA2015/Units_Real/with-SteepDescent/Higher-Symm
REM
REM
REM
REM
REM
REM ./C.cell (1df0a924f5614ab8850e4351716899ee)
REM
REM compiler GCC version 9.2.1 20190827 (Red Hat 9.2.1-1)
REM options -cpp -mtune=generic -march=x86-64 -g -O0 -fpre-include=/usr/include/finclude/math-vector-fortran.h
REM seed 1736025787 -1053308029 -1703863569 744903126 1840202594 -755075951 1580813173 28227534 351840414 1495629470 -883909053 2102560153 -1407469105 -948458278 1261475976 -192602431 -642130149 2139879362 -1143997594 2109182981 -912440879 -942603861 -673217517 -1974980473 11478712 -2076895952 -224725820 -154345783 1104684058 250898310 442509797 535490970 -185891830
REM
CELL 1.54180   50.00000   50.00000   50.00000   90.00000   90.00000   90.00000
LATT -1
SFAC C  
C      1  0.5462240000000  0.4472530000000  0.5155030000000 1.0
C      1  0.5463800000000  0.4467450000000  0.4865290000000 1.0
C      1  0.4041360000000  0.4630870000000  0.5265530000000 1.0
C      1  0.3924350000000  0.4684450000000  0.4684960000000 1.0
C      1  0.5663380000000  0.4757160000000  0.5167390000000 1.0
C      1  0.5698960000000  0.4635760000000  0.4795550000000 1.0
C      1  0.4846300000000  0.4838820000000  0.6070420000000 1.0
C      1  0.4841360000000  0.4887000000000  0.3887070000000 1.0
C      1  0.4925700000000  0.4461220000000  0.4088250000000 1.0
C      1  0.4924000000000  0.4430310000000  0.5926670000000 1.0
C      1  0.3913460000000  0.5352480000000  0.5189210000000 1.0
C      1  0.4045300000000  0.5439930000000  0.4946250000000 1.0
C      1  0.4765900000000  0.5058050000000  0.5641340000000 1.0
C      1  0.4761990000000  0.5072170000000  0.4346670000000 1.0
C      1  0.4089960000000  0.5289370000000  0.4500550000000 1.0
C      1  0.4022280000000  0.5363400000000  0.5427140000000 1.0
C      1  0.5149420000000  0.6006700000000  0.4530450000000 1.0
C      1  0.5126050000000  0.5963340000000  0.5469230000000 1.0
C      1  0.5387760000000  0.5030290000000  0.5532360000000 1.0
C      1  0.5364610000000  0.4840110000000  0.4333990000000 1.0
C      1  0.4262610000000  0.4597440000000  0.5076430000000 1.0
C      1  0.4340270000000  0.4771490000000  0.4858970000000 1.0
C      1  0.4303620000000  0.5176050000000  0.4273500000000 1.0
C      1  0.4311900000000  0.5129840000000  0.5747820000000 1.0
C      1  0.4542840000000  0.4703170000000  0.4411440000000 1.0
C      1  0.4487620000000  0.4762340000000  0.5517600000000 1.0
C      1  0.5625930000000  0.5407110000000  0.5386490000000 1.0
C      1  0.5619650000000  0.5409290000000  0.4602270000000 1.0
C      1  0.5223280000000  0.4551650000000  0.4088950000000 1.0
C      1  0.5210330000000  0.4561160000000  0.5902750000000 1.0
C      1  0.5894740000000  0.4465170000000  0.5511920000000 1.0
C      1  0.5913390000000  0.4489270000000  0.4480450000000 1.0
C      1  0.4443080000000  0.4672890000000  0.4126730000000 1.0
C      1  0.4437170000000  0.4656080000000  0.5936860000000 1.0
C      1  0.4434940000000  0.4197980000000  0.5476680000000 1.0
C      1  0.4396310000000  0.4146480000000  0.4495400000000 1.0
C      1  0.4469030000000  0.4122590000000  0.5221870000000 1.0
C      1  0.4474690000000  0.4124620000000  0.4761070000000 1.0
C      1  0.5448530000000  0.4730540000000  0.6050440000000 1.0
C      1  0.5456700000000  0.4723560000000  0.3953310000000 1.0
C      1  0.4521750000000  0.5160510000000  0.4458990000000 1.0
C      1  0.4522310000000  0.5159340000000  0.5551710000000 1.0
C      1  0.5662030000000  0.4734370000000  0.5866110000000 1.0
C      1  0.5695940000000  0.4739530000000  0.4124430000000 1.0
C      1  0.4668010000000  0.5429050000000  0.5136860000000 1.0
C      1  0.4690920000000  0.5370540000000  0.4849500000000 1.0
C      1  0.4770040000000  0.4779810000000  0.5240930000000 1.0
C      1  0.4842940000000  0.4839970000000  0.4765290000000 1.0
C      1  0.5251590000000  0.5488150000000  0.6014670000000 1.0
C      1  0.5263760000000  0.5509050000000  0.3999790000000 1.0
C      1  0.4478950000000  0.5217240000000  0.4731360000000 1.0
C      1  0.4465290000000  0.5200850000000  0.5273350000000 1.0
C      1  0.5182440000000  0.4868550000000  0.5393590000000 1.0
C      1  0.5229570000000  0.4841230000000  0.4593090000000 1.0
C      1  0.5829840000000  0.4278900000000  0.5319570000000 1.0
C      1  0.5847190000000  0.4390440000000  0.4745690000000 1.0
C      1  0.4982180000000  0.5212490000000  0.5455270000000 1.0
C      1  0.4978730000000  0.5251110000000  0.4453300000000 1.0
C      1  0.5123640000000  0.4569380000000  0.5431470000000 1.0
C      1  0.5172710000000  0.4552310000000  0.4558900000000 1.0
C      1  0.5078450000000  0.4828650000000  0.5906500000000 1.0
C      1  0.5137240000000  0.4822210000000  0.4176480000000 1.0
C      1  0.4631560000000  0.5590840000000  0.4257560000000 1.0
C      1  0.4606910000000  0.5597920000000  0.5733450000000 1.0
C      1  0.5104480000000  0.5703220000000  0.5876620000000 1.0
C      1  0.5102310000000  0.5704530000000  0.4147370000000 1.0
C      1  0.4729620000000  0.4636200000000  0.3970970000000 1.0
C      1  0.4704730000000  0.4585890000000  0.6040160000000 1.0
C      1  0.4263060000000  0.4440240000000  0.4265750000000 1.0
C      1  0.4292700000000  0.4468270000000  0.5760300000000 1.0
C      1  0.5508930000000  0.5414330000000  0.5880870000000 1.0
C      1  0.5452490000000  0.5404450000000  0.4207420000000 1.0
C      1  0.5025650000000  0.4342830000000  0.4868340000000 1.0
C      1  0.5003090000000  0.4355300000000  0.5172690000000 1.0
C      1  0.5268370000000  0.4679210000000  0.5184630000000 1.0
C      1  0.5278760000000  0.4643170000000  0.4784350000000 1.0
C      1  0.4558020000000  0.4960380000000  0.4874810000000 1.0
C      1  0.4608720000000  0.4980270000000  0.5147260000000 1.0
C      1  0.5329320000000  0.5066520000000  0.4868670000000 1.0
C      1  0.5437420000000  0.4911850000000  0.5089680000000 1.0
C      1  0.5072490000000  0.5792700000000  0.5117140000000 1.0
C      1  0.5082830000000  0.5774580000000  0.4851060000000 1.0
C      1  0.4108950000000  0.4523140000000  0.4511830000000 1.0
C      1  0.4109110000000  0.4601400000000  0.5561400000000 1.0
C      1  0.4228300000000  0.5541010000000  0.4494120000000 1.0
C      1  0.4216700000000  0.5552770000000  0.5502540000000 1.0
C      1  0.4331430000000  0.5691300000000  0.4748410000000 1.0
C      1  0.4356300000000  0.5739800000000  0.5317760000000 1.0
C      1  0.4860040000000  0.5536480000000  0.5881160000000 1.0
C      1  0.4881450000000  0.5506940000000  0.4142300000000 1.0
C      1  0.5258140000000  0.5227320000000  0.4377320000000 1.0
C      1  0.5228310000000  0.5239200000000  0.5621730000000 1.0
C      1  0.5810550000000  0.5800090000000  0.4850030000000 1.0
C      1  0.5812540000000  0.5790590000000  0.5145790000000 1.0
C      1  0.3975920000000  0.4891440000000  0.5153620000000 1.0
C      1  0.3945490000000  0.4921070000000  0.4865860000000 1.0
C      1  0.6016700000000  0.4754650000000  0.4573710000000 1.0
C      1  0.6036920000000  0.4709470000000  0.5399130000000 1.0
C      1  0.4380600000000  0.4960400000000  0.4068130000000 1.0
C      1  0.4435240000000  0.4951090000000  0.5951620000000 1.0
C      1  0.4950060000000  0.4078460000000  0.5274970000000 1.0
C      1  0.4947260000000  0.4086800000000  0.4747820000000 1.0
C      1  0.5864040000000  0.5549510000000  0.4709660000000 1.0
C      1  0.5872120000000  0.5546670000000  0.5291150000000 1.0
C      1  0.5680950000000  0.4521720000000  0.4309770000000 1.0
C      1  0.5650900000000  0.4529910000000  0.5679180000000 1.0
C      1  0.5263090000000  0.5783760000000  0.4382020000000 1.0
C      1  0.5255050000000  0.5763260000000  0.5633420000000 1.0
C      1  0.6100450000000  0.4840770000000  0.4845480000000 1.0
C      1  0.6117490000000  0.4822100000000  0.5141340000000 1.0
C      1  0.5637840000000  0.5153470000000  0.5862300000000 1.0
C      1  0.5654950000000  0.5060100000000  0.4160540000000 1.0
C      1  0.4797020000000  0.4538900000000  0.4849380000000 1.0
C      1  0.4765730000000  0.4532350000000  0.5142340000000 1.0
C      1  0.6061270000000  0.5375690000000  0.5148960000000 1.0
C      1  0.6042390000000  0.5379530000000  0.4857080000000 1.0
C      1  0.4483260000000  0.4414470000000  0.5107520000000 1.0
C      1  0.4522750000000  0.4414250000000  0.4825020000000 1.0
C      1  0.5667650000000  0.5097990000000  0.5549350000000 1.0
C      1  0.5646210000000  0.5104780000000  0.4452610000000 1.0
C      1  0.4315660000000  0.4717340000000  0.4581150000000 1.0
C      1  0.4234010000000  0.4864420000000  0.5551840000000 1.0
C      1  0.5424810000000  0.5471460000000  0.5152630000000 1.0
C      1  0.5405040000000  0.5368030000000  0.4857540000000 1.0
C      1  0.4818380000000  0.5951220000000  0.5416500000000 1.0
C      1  0.4839300000000  0.5986520000000  0.4580150000000 1.0
C      1  0.5454280000000  0.5532390000000  0.5614200000000 1.0
C      1  0.5500270000000  0.5607810000000  0.4411410000000 1.0
C      1  0.5447550000000  0.5021650000000  0.6036010000000 1.0
C      1  0.5430070000000  0.5010620000000  0.3968550000000 1.0
C      1  0.4910880000000  0.5425330000000  0.5301410000000 1.0
C      1  0.4921100000000  0.5400150000000  0.4685160000000 1.0
C      1  0.5159700000000  0.5509530000000  0.4791580000000 1.0
C      1  0.5143820000000  0.5536300000000  0.5211240000000 1.0
C      1  0.4735570000000  0.6028610000000  0.5148520000000 1.0
C      1  0.4722600000000  0.6058300000000  0.4860910000000 1.0
C      1  0.5007940000000  0.5322220000000  0.6017880000000 1.0
C      1  0.5035030000000  0.5330150000000  0.3981530000000 1.0
C      1  0.4588130000000  0.5806440000000  0.4837980000000 1.0
C      1  0.4599380000000  0.5762310000000  0.5121100000000 1.0
C      1  0.5344190000000  0.4447600000000  0.5632930000000 1.0
C      1  0.5376600000000  0.4426210000000  0.4347470000000 1.0
C      1  0.4709150000000  0.3987620000000  0.5147130000000 1.0
C      1  0.4708450000000  0.3975370000000  0.4871460000000 1.0
C      1  0.4823240000000  0.4255240000000  0.5736480000000 1.0
C      1  0.4823240000000  0.4307600000000  0.4303590000000 1.0
C      1  0.4702300000000  0.5060890000000  0.5950190000000 1.0
C      1  0.4647180000000  0.5043600000000  0.4026740000000 1.0
C      1  0.4109130000000  0.5147670000000  0.5264960000000 1.0
C      1  0.4069610000000  0.5191240000000  0.4769460000000 1.0
C      1  0.4599740000000  0.5788840000000  0.5515540000000 1.0
C      1  0.4712850000000  0.5795140000000  0.4427990000000 1.0
C      1  0.5283720000000  0.4175450000000  0.5513150000000 1.0
C      1  0.5301000000000  0.4161040000000  0.4473560000000 1.0
C      1  0.4508860000000  0.4272380000000  0.4286060000000 1.0
C      1  0.4504760000000  0.4256890000000  0.5715660000000 1.0
C      1  0.5038090000000  0.5029330000000  0.4922560000000 1.0
C      1  0.5053210000000  0.5060540000000  0.5206610000000 1.0
C      1  0.5966740000000  0.5099790000000  0.4867420000000 1.0
C      1  0.5997990000000  0.5089010000000  0.5146890000000 1.0
C      1  0.4788320000000  0.4818060000000  0.4481820000000 1.0
C      1  0.4768770000000  0.4760690000000  0.5529970000000 1.0
C      1  0.5100260000000  0.5042330000000  0.3969280000000 1.0
C      1  0.5172200000000  0.5103940000000  0.5893650000000 1.0
C      1  0.5443630000000  0.4164590000000  0.4723790000000 1.0
C      1  0.5430870000000  0.4190310000000  0.5257920000000 1.0
C      1  0.5002920000000  0.4103790000000  0.5560130000000 1.0
C      1  0.5002970000000  0.4141900000000  0.4463070000000 1.0
C      1  0.5268840000000  0.5984750000000  0.5217580000000 1.0
C      1  0.5270860000000  0.6003920000000  0.4795110000000 1.0
C      1  0.5506750000000  0.5801580000000  0.5144870000000 1.0
C      1  0.5530060000000  0.5877290000000  0.4850050000000 1.0
C      1  0.4350190000000  0.5454940000000  0.5738530000000 1.0
C      1  0.4361900000000  0.5475340000000  0.4252390000000 1.0
C      1  0.5696160000000  0.4113860000000  0.5143900000000 1.0
C      1  0.5705760000000  0.4148940000000  0.4836960000000 1.0
C      1  0.5744440000000  0.4863860000000  0.4592940000000 1.0
C      1  0.5786400000000  0.4855130000000  0.5411750000000 1.0
C      1  0.4243440000000  0.5634610000000  0.5005920000000 1.0
END
