TITL C-2441160-1326-1135 0.0670347049957444 125000 -25922.2868051334 0 0 183 (C1) n - 1
REM
REM in /home/bkarasulu/work/CARBON/AIRSS/Generating-Clusters/ReaxFF-fromJPCA2015/Units_Real/with-SteepDescent/Higher-Symm
REM
REM
REM
REM
REM
REM ./C.cell (1df0a924f5614ab8850e4351716899ee)
REM
REM compiler GCC version 9.2.1 20190827 (Red Hat 9.2.1-1)
REM options -cpp -mtune=generic -march=x86-64 -g -O0 -fpre-include=/usr/include/finclude/math-vector-fortran.h
REM seed 23433348 -416413704 -1558806629 -119568819 -1675603709 1535115512 -2136379437 -1643373654 -1233481637 2128124647 460870242 1621586389 397345714 -1324431809 280235299 1219280999 313268863 269645329 -900730634 1915662678 -1412283327 -77407780 -373557358 838152207 -1241656597 -1622740021 591033727 484561583 -255613064 -648914530 1984723003 1654345881 217163884
REM
CELL 1.54180   50.00000   50.00000   50.00000   90.00000   90.00000   90.00000
LATT -1
SFAC C  
C      1  0.5293370000000  0.3963860000000  0.5281880000000 1.0
C      1  0.5730190000000  0.5720810000000  0.5281300000000 1.0
C      1  0.3978220000000  0.5244580000000  0.5275150000000 1.0
C      1  0.4046260000000  0.5303560000000  0.4675650000000 1.0
C      1  0.5205890000000  0.4047780000000  0.4692320000000 1.0
C      1  0.5732520000000  0.5655570000000  0.4671530000000 1.0
C      1  0.4953750000000  0.5890470000000  0.5648640000000 1.0
C      1  0.4281470000000  0.4507860000000  0.5595710000000 1.0
C      1  0.5725620000000  0.4643150000000  0.5582230000000 1.0
C      1  0.5739250000000  0.5506680000000  0.4424660000000 1.0
C      1  0.4232430000000  0.5349080000000  0.4444430000000 1.0
C      1  0.5084140000000  0.4191380000000  0.4458760000000 1.0
C      1  0.4095890000000  0.4820810000000  0.5423340000000 1.0
C      1  0.5590580000000  0.4216630000000  0.5460130000000 1.0
C      1  0.5345250000000  0.5938110000000  0.5517060000000 1.0
C      1  0.4651840000000  0.5212340000000  0.5444060000000 1.0
C      1  0.5003900000000  0.4589770000000  0.5319060000000 1.0
C      1  0.5389200000000  0.5206030000000  0.5441580000000 1.0
C      1  0.4622820000000  0.5371720000000  0.4724710000000 1.0
C      1  0.4868940000000  0.4494800000000  0.4724590000000 1.0
C      1  0.5529710000000  0.5151530000000  0.4744590000000 1.0
C      1  0.4901100000000  0.4694320000000  0.4243420000000 1.0
C      1  0.5269580000000  0.5011760000000  0.4295130000000 1.0
C      1  0.4837080000000  0.5228110000000  0.4247310000000 1.0
C      1  0.5708320000000  0.4296560000000  0.4707420000000 1.0
C      1  0.5258210000000  0.6013370000000  0.4710180000000 1.0
C      1  0.3981270000000  0.4733670000000  0.4690070000000 1.0
C      1  0.5286310000000  0.5493320000000  0.5120690000000 1.0
C      1  0.4478980000000  0.5103090000000  0.5008040000000 1.0
C      1  0.5112190000000  0.4605530000000  0.5048520000000 1.0
C      1  0.4449350000000  0.4665470000000  0.4814030000000 1.0
C      1  0.5513060000000  0.4686600000000  0.4831820000000 1.0
C      1  0.4963200000000  0.5644560000000  0.4826950000000 1.0
C      1  0.4779370000000  0.4224310000000  0.4346400000000 1.0
C      1  0.5757000000000  0.5192520000000  0.4362500000000 1.0
C      1  0.4463110000000  0.5569290000000  0.4338780000000 1.0
C      1  0.4406820000000  0.5160870000000  0.5286020000000 1.0
C      1  0.5158080000000  0.4345040000000  0.5358800000000 1.0
C      1  0.5518130000000  0.5334300000000  0.5211290000000 1.0
C      1  0.4602560000000  0.5395790000000  0.4157980000000 1.0
C      1  0.4863700000000  0.4413770000000  0.4148770000000 1.0
C      1  0.5525620000000  0.5137560000000  0.4188290000000 1.0
C      1  0.5141110000000  0.4422540000000  0.4040630000000 1.0
C      1  0.5445310000000  0.5394160000000  0.4067460000000 1.0
C      1  0.4443350000000  0.5170040000000  0.4053480000000 1.0
C      1  0.4793300000000  0.5941430000000  0.4891060000000 1.0
C      1  0.4269700000000  0.4426220000000  0.4766850000000 1.0
C      1  0.6021620000000  0.4693410000000  0.4887490000000 1.0
C      1  0.3913370000000  0.4767700000000  0.5234920000000 1.0
C      1  0.5749910000000  0.4125730000000  0.5235530000000 1.0
C      1  0.5384520000000  0.6049650000000  0.5265870000000 1.0
C      1  0.5049350000000  0.5213760000000  0.4793700000000 1.0
C      1  0.4839600000000  0.4916130000000  0.4664060000000 1.0
C      1  0.5132070000000  0.4957130000000  0.4757590000000 1.0
C      1  0.4174310000000  0.4868060000000  0.4254180000000 1.0
C      1  0.5511030000000  0.4366860000000  0.4251850000000 1.0
C      1  0.5306090000000  0.5769890000000  0.4277230000000 1.0
C      1  0.4945460000000  0.5216490000000  0.5726310000000 1.0
C      1  0.4873100000000  0.4802430000000  0.5770030000000 1.0
C      1  0.5089240000000  0.4979230000000  0.5713220000000 1.0
C      1  0.5881150000000  0.5356260000000  0.5562200000000 1.0
C      1  0.4181180000000  0.5553680000000  0.5572040000000 1.0
C      1  0.4918120000000  0.3988830000000  0.5597850000000 1.0
C      1  0.5133970000000  0.4512540000000  0.4588730000000 1.0
C      1  0.5368090000000  0.5363820000000  0.4634540000000 1.0
C      1  0.4477040000000  0.5154340000000  0.4583460000000 1.0
C      1  0.5716450000000  0.4851110000000  0.5808940000000 1.0
C      1  0.4813900000000  0.5692160000000  0.5804900000000 1.0
C      1  0.4507450000000  0.4492840000000  0.5773660000000 1.0
C      1  0.5019710000000  0.4479600000000  0.5969110000000 1.0
C      1  0.5442180000000  0.5318090000000  0.5913580000000 1.0
C      1  0.4609940000000  0.5265640000000  0.5964950000000 1.0
C      1  0.5271030000000  0.4686300000000  0.3997380000000 1.0
C      1  0.5161120000000  0.5429950000000  0.4015280000000 1.0
C      1  0.4557080000000  0.4904850000000  0.3999700000000 1.0
C      1  0.4800030000000  0.5493490000000  0.5332200000000 1.0
C      1  0.4626820000000  0.4737040000000  0.5337280000000 1.0
C      1  0.5473530000000  0.4709620000000  0.5367490000000 1.0
C      1  0.4834760000000  0.4813290000000  0.3982020000000 1.0
C      1  0.5098080000000  0.4917640000000  0.3918800000000 1.0
C      1  0.5014690000000  0.5186860000000  0.4011910000000 1.0
C      1  0.4267480000000  0.5704720000000  0.4779300000000 1.0
C      1  0.4738490000000  0.4053820000000  0.4827530000000 1.0
C      1  0.5970570000000  0.5315530000000  0.4698850000000 1.0
C      1  0.4030480000000  0.4514210000000  0.5158920000000 1.0
C      1  0.5897800000000  0.4371110000000  0.5172300000000 1.0
C      1  0.5097500000000  0.6090220000000  0.5183460000000 1.0
C      1  0.5711110000000  0.4418180000000  0.4446610000000 1.0
C      1  0.5149380000000  0.5945450000000  0.4453330000000 1.0
C      1  0.4115530000000  0.4662890000000  0.4449930000000 1.0
C      1  0.4712850000000  0.5043250000000  0.4437130000000 1.0
C      1  0.5140100000000  0.4756460000000  0.4395810000000 1.0
C      1  0.5196200000000  0.5256090000000  0.4427200000000 1.0
C      1  0.4856520000000  0.4708620000000  0.6037530000000 1.0
C      1  0.5281490000000  0.5075770000000  0.5957500000000 1.0
C      1  0.4897600000000  0.5229550000000  0.6010990000000 1.0
C      1  0.5014950000000  0.5468990000000  0.5859180000000 1.0
C      1  0.4605610000000  0.4774130000000  0.5878680000000 1.0
C      1  0.5441170000000  0.4833770000000  0.5926400000000 1.0
C      1  0.4419500000000  0.5643070000000  0.5675290000000 1.0
C      1  0.4708450000000  0.4144750000000  0.5689150000000 1.0
C      1  0.5819620000000  0.5119920000000  0.5728240000000 1.0
C      1  0.4365440000000  0.4875440000000  0.5356520000000 1.0
C      1  0.5425930000000  0.4422660000000  0.5333390000000 1.0
C      1  0.5092410000000  0.5569410000000  0.5349690000000 1.0
C      1  0.4359710000000  0.4166100000000  0.4678940000000 1.0
C      1  0.6053190000000  0.4890790000000  0.4669720000000 1.0
C      1  0.4573040000000  0.5977140000000  0.4665800000000 1.0
C      1  0.4391160000000  0.4715300000000  0.4143410000000 1.0
C      1  0.5520270000000  0.4632420000000  0.4144830000000 1.0
C      1  0.5072150000000  0.5665440000000  0.4157920000000 1.0
C      1  0.5960840000000  0.5095870000000  0.5129260000000 1.0
C      1  0.4529560000000  0.5667360000000  0.5191660000000 1.0
C      1  0.4695760000000  0.4239190000000  0.5222630000000 1.0
C      1  0.4507910000000  0.4273160000000  0.4434960000000 1.0
C      1  0.5864320000000  0.4934000000000  0.4440430000000 1.0
C      1  0.4623420000000  0.5791250000000  0.4425530000000 1.0
C      1  0.5508310000000  0.4033080000000  0.5099610000000 1.0
C      1  0.5565730000000  0.5888270000000  0.5105480000000 1.0
C      1  0.3921630000000  0.5023680000000  0.5098810000000 1.0
C      1  0.5046840000000  0.3894010000000  0.5154220000000 1.0
C      1  0.5945840000000  0.5574020000000  0.5155970000000 1.0
C      1  0.4046520000000  0.5502170000000  0.5151760000000 1.0
C      1  0.5006340000000  0.3929870000000  0.4861800000000 1.0
C      1  0.5930200000000  0.5551580000000  0.4848680000000 1.0
C      1  0.4035300000000  0.5519470000000  0.4856480000000 1.0
C      1  0.4139950000000  0.4759190000000  0.5674960000000 1.0
C      1  0.5623220000000  0.4377860000000  0.5695440000000 1.0
C      1  0.5239740000000  0.5834830000000  0.5727650000000 1.0
C      1  0.4643940000000  0.4667420000000  0.5054980000000 1.0
C      1  0.5522800000000  0.4849770000000  0.5075830000000 1.0
C      1  0.4861660000000  0.5465330000000  0.5046460000000 1.0
C      1  0.4334510000000  0.4973620000000  0.4797080000000 1.0
C      1  0.5304630000000  0.4479320000000  0.4853130000000 1.0
C      1  0.5283290000000  0.5596430000000  0.4828090000000 1.0
C      1  0.4810970000000  0.4314870000000  0.4952620000000 1.0
C      1  0.5632010000000  0.5134790000000  0.5030600000000 1.0
C      1  0.4490650000000  0.5549690000000  0.4908470000000 1.0
C      1  0.5902040000000  0.4421480000000  0.4882620000000 1.0
C      1  0.5055090000000  0.6096140000000  0.4897600000000 1.0
C      1  0.4008950000000  0.4503590000000  0.4866480000000 1.0
C      1  0.5488890000000  0.5830420000000  0.4818710000000 1.0
C      1  0.4006840000000  0.5020580000000  0.4806630000000 1.0
C      1  0.5460270000000  0.4150490000000  0.4820700000000 1.0
C      1  0.4516430000000  0.5088280000000  0.5752060000000 1.0
C      1  0.5286930000000  0.4566410000000  0.5897300000000 1.0
C      1  0.5231140000000  0.5445950000000  0.5564800000000 1.0
C      1  0.5187160000000  0.4797370000000  0.5450640000000 1.0
C      1  0.5133110000000  0.5012560000000  0.5285960000000 1.0
C      1  0.4805480000000  0.4992440000000  0.5306610000000 1.0
C      1  0.5263910000000  0.4241540000000  0.4227950000000 1.0
C      1  0.5546550000000  0.5611230000000  0.4231270000000 1.0
C      1  0.4208720000000  0.5154500000000  0.4220050000000 1.0
C      1  0.4720040000000  0.4949530000000  0.4999550000000 1.0
C      1  0.5210080000000  0.4878500000000  0.5040630000000 1.0
C      1  0.5059520000000  0.5286870000000  0.5042250000000 1.0
C      1  0.4682610000000  0.4678940000000  0.4622570000000 1.0
C      1  0.5418060000000  0.4896000000000  0.4661170000000 1.0
C      1  0.4901870000000  0.5406950000000  0.4638370000000 1.0
C      1  0.4098780000000  0.5251440000000  0.5549900000000 1.0
C      1  0.5194840000000  0.4116940000000  0.5542560000000 1.0
C      1  0.5672870000000  0.5559130000000  0.5525540000000 1.0
C      1  0.4235880000000  0.5662150000000  0.5308370000000 1.0
C      1  0.4817860000000  0.3983770000000  0.5322160000000 1.0
C      1  0.6014190000000  0.5338660000000  0.5303600000000 1.0
C      1  0.4778600000000  0.4391070000000  0.5778010000000 1.0
C      1  0.5558360000000  0.5187900000000  0.5702700000000 1.0
C      1  0.4564840000000  0.5558230000000  0.5893410000000 1.0
C      1  0.4230600000000  0.4386080000000  0.5327120000000 1.0
C      1  0.5926900000000  0.4603150000000  0.5348480000000 1.0
C      1  0.4888900000000  0.5989840000000  0.5364230000000 1.0
C      1  0.4317540000000  0.5981920000000  0.4779890000000 1.0
C      1  0.4461610000000  0.4049020000000  0.4931450000000 1.0
C      1  0.6101980000000  0.5117690000000  0.4847420000000 1.0
C      1  0.4410730000000  0.4191910000000  0.5192960000000 1.0
C      1  0.6017150000000  0.4799270000000  0.5164420000000 1.0
C      1  0.4687310000000  0.5920970000000  0.5172520000000 1.0
C      1  0.5353860000000  0.4319120000000  0.5774590000000 1.0
C      1  0.5440240000000  0.5567310000000  0.5737040000000 1.0
C      1  0.4223160000000  0.5048350000000  0.5719930000000 1.0
C      1  0.5740400000000  0.4691490000000  0.4331940000000 1.0
C      1  0.4898860000000  0.5823800000000  0.4331680000000 1.0
C      1  0.4346220000000  0.4500610000000  0.4338680000000 1.0
END
