TITL C-2441166-8118-1217 0.0751552090570577 125000 -18364.8995524456 0 0 137 (C1) n - 1
REM
REM in /home/bkarasulu/work/CARBON/AIRSS/Generating-Clusters/ReaxFF-fromJPCA2015/Units_Real/with-SteepDescent/Higher-Symm
REM
REM
REM
REM
REM
REM ./C.cell (1df0a924f5614ab8850e4351716899ee)
REM
REM compiler GCC version 9.2.1 20190827 (Red Hat 9.2.1-1)
REM options -cpp -mtune=generic -march=x86-64 -g -O0 -fpre-include=/usr/include/finclude/math-vector-fortran.h
REM seed -1151451692 -1682908151 -578274649 -546812852 -1225489148 -1400847198 -397520109 -1959786148 -1225583281 -1541250672 1169054894 2120867555 -552591144 -607702595 -1963913641 -838348046 -2099920573 -1901729186 -135155613 -1085907962 787459364 -901766700 -1135968262 -1937709185 -861284530 -552054618 1543506698 -571906063 -229823890 -1821953127 -190673695 472342707 -676021449
REM
CELL 1.54180   50.00000   50.00000   50.00000   90.00000   90.00000   90.00000
LATT -1
SFAC C  
C      1  0.4990000000000  0.4147800000000  0.5547650000000 1.0
C      1  0.5596010000000  0.5436410000000  0.5592030000000 1.0
C      1  0.4272520000000  0.5250800000000  0.5579750000000 1.0
C      1  0.5138400000000  0.4235560000000  0.4410330000000 1.0
C      1  0.5647930000000  0.5389640000000  0.4399150000000 1.0
C      1  0.4393170000000  0.5278370000000  0.4485540000000 1.0
C      1  0.5208080000000  0.5191330000000  0.5378930000000 1.0
C      1  0.4694560000000  0.4979920000000  0.5359890000000 1.0
C      1  0.5268960000000  0.4641380000000  0.5600300000000 1.0
C      1  0.5083410000000  0.5230160000000  0.4564110000000 1.0
C      1  0.4601300000000  0.5062510000000  0.4528010000000 1.0
C      1  0.5156140000000  0.4684500000000  0.4625670000000 1.0
C      1  0.4911570000000  0.4660160000000  0.5810410000000 1.0
C      1  0.5387760000000  0.5165800000000  0.5782240000000 1.0
C      1  0.4716280000000  0.5236540000000  0.5804450000000 1.0
C      1  0.4926360000000  0.4594450000000  0.4157590000000 1.0
C      1  0.5412440000000  0.5190950000000  0.4225490000000 1.0
C      1  0.4760110000000  0.5373240000000  0.4212500000000 1.0
C      1  0.4917620000000  0.5445220000000  0.5851340000000 1.0
C      1  0.4636030000000  0.4702900000000  0.5896650000000 1.0
C      1  0.5445690000000  0.4894510000000  0.5885860000000 1.0
C      1  0.4987110000000  0.5536590000000  0.4149120000000 1.0
C      1  0.4639980000000  0.4676210000000  0.4164710000000 1.0
C      1  0.5440190000000  0.4868720000000  0.4126190000000 1.0
C      1  0.5149380000000  0.4876070000000  0.4832640000000 1.0
C      1  0.5093370000000  0.5369720000000  0.4778840000000 1.0
C      1  0.4841370000000  0.4952770000000  0.4831930000000 1.0
C      1  0.5170140000000  0.4784820000000  0.5147760000000 1.0
C      1  0.5135830000000  0.5349900000000  0.5215210000000 1.0
C      1  0.4850830000000  0.4892380000000  0.5123310000000 1.0
C      1  0.5605070000000  0.5184590000000  0.4595210000000 1.0
C      1  0.4559260000000  0.5492040000000  0.4375670000000 1.0
C      1  0.4883490000000  0.4318890000000  0.4533950000000 1.0
C      1  0.5614350000000  0.5192460000000  0.5437390000000 1.0
C      1  0.4497400000000  0.5402400000000  0.5454850000000 1.0
C      1  0.4872170000000  0.4372150000000  0.5430110000000 1.0
C      1  0.5181460000000  0.4059540000000  0.5363760000000 1.0
C      1  0.5723140000000  0.5574350000000  0.5369910000000 1.0
C      1  0.4069440000000  0.5288580000000  0.5370340000000 1.0
C      1  0.5180690000000  0.4064960000000  0.4643660000000 1.0
C      1  0.5727810000000  0.5572270000000  0.4610080000000 1.0
C      1  0.4177340000000  0.5320230000000  0.4676310000000 1.0
C      1  0.5687530000000  0.4624150000000  0.5529390000000 1.0
C      1  0.5010490000000  0.5750700000000  0.5557880000000 1.0
C      1  0.4361270000000  0.4694770000000  0.5538670000000 1.0
C      1  0.5583530000000  0.4589890000000  0.4429820000000 1.0
C      1  0.5032400000000  0.5758150000000  0.4489800000000 1.0
C      1  0.4374610000000  0.4608700000000  0.4532890000000 1.0
C      1  0.3962920000000  0.4817600000000  0.4845120000000 1.0
C      1  0.5649120000000  0.4194910000000  0.4862830000000 1.0
C      1  0.5384770000000  0.5944840000000  0.4849930000000 1.0
C      1  0.3954870000000  0.4833230000000  0.5135120000000 1.0
C      1  0.5657930000000  0.4215080000000  0.5157920000000 1.0
C      1  0.5383270000000  0.5944390000000  0.5142140000000 1.0
C      1  0.5353400000000  0.4441090000000  0.4318190000000 1.0
C      1  0.5282000000000  0.5647480000000  0.4419480000000 1.0
C      1  0.4260510000000  0.4854650000000  0.4448910000000 1.0
C      1  0.5465110000000  0.4444570000000  0.5531980000000 1.0
C      1  0.5270650000000  0.5642710000000  0.5617130000000 1.0
C      1  0.4349590000000  0.4970350000000  0.5656920000000 1.0
C      1  0.4158780000000  0.5467520000000  0.5156480000000 1.0
C      1  0.4971930000000  0.4071060000000  0.5145480000000 1.0
C      1  0.5850200000000  0.5429830000000  0.5150840000000 1.0
C      1  0.4170590000000  0.5522820000000  0.4876970000000 1.0
C      1  0.4959860000000  0.4052100000000  0.4850340000000 1.0
C      1  0.5850680000000  0.5436090000000  0.4863730000000 1.0
C      1  0.4949850000000  0.4346760000000  0.4806730000000 1.0
C      1  0.5574540000000  0.5291140000000  0.4882350000000 1.0
C      1  0.4569180000000  0.5440520000000  0.4908010000000 1.0
C      1  0.4966040000000  0.4364270000000  0.5166010000000 1.0
C      1  0.5549650000000  0.5159030000000  0.5152870000000 1.0
C      1  0.4436860000000  0.5337530000000  0.5144930000000 1.0
C      1  0.5347750000000  0.5486020000000  0.4864560000000 1.0
C      1  0.4389830000000  0.4930630000000  0.4891170000000 1.0
C      1  0.5220810000000  0.4458200000000  0.4807540000000 1.0
C      1  0.5295480000000  0.5548660000000  0.5133520000000 1.0
C      1  0.4403190000000  0.5028640000000  0.5168950000000 1.0
C      1  0.5214910000000  0.4492770000000  0.5117730000000 1.0
C      1  0.5221460000000  0.5414740000000  0.5791500000000 1.0
C      1  0.4555240000000  0.4990880000000  0.5858600000000 1.0
C      1  0.5211740000000  0.4697650000000  0.5873720000000 1.0
C      1  0.5270000000000  0.5454060000000  0.4206120000000 1.0
C      1  0.4494960000000  0.4922620000000  0.4293320000000 1.0
C      1  0.5253880000000  0.4639060000000  0.4140170000000 1.0
C      1  0.5896550000000  0.4925100000000  0.4750870000000 1.0
C      1  0.4626680000000  0.5848940000000  0.4721090000000 1.0
C      1  0.4480580000000  0.4227030000000  0.4759150000000 1.0
C      1  0.5930110000000  0.4939200000000  0.5251700000000 1.0
C      1  0.4593070000000  0.5796160000000  0.5228570000000 1.0
C      1  0.4495710000000  0.4260960000000  0.5255640000000 1.0
C      1  0.4906860000000  0.5486010000000  0.5172680000000 1.0
C      1  0.4637740000000  0.4663580000000  0.5085800000000 1.0
C      1  0.5471130000000  0.4880240000000  0.5132250000000 1.0
C      1  0.4849320000000  0.5411110000000  0.4912590000000 1.0
C      1  0.4615300000000  0.4757920000000  0.4811300000000 1.0
C      1  0.5446910000000  0.4860240000000  0.4843230000000 1.0
C      1  0.4505080000000  0.4466530000000  0.4317620000000 1.0
C      1  0.5677220000000  0.4817120000000  0.4289530000000 1.0
C      1  0.4851490000000  0.5766990000000  0.4274690000000 1.0
C      1  0.4499970000000  0.4515710000000  0.5699880000000 1.0
C      1  0.5687780000000  0.4840140000000  0.5713990000000 1.0
C      1  0.4788750000000  0.5669430000000  0.5707580000000 1.0
C      1  0.5822550000000  0.5012510000000  0.5516550000000 1.0
C      1  0.4566000000000  0.5684800000000  0.5492450000000 1.0
C      1  0.4609550000000  0.4286550000000  0.5529770000000 1.0
C      1  0.5815450000000  0.5012780000000  0.4485310000000 1.0
C      1  0.4609070000000  0.5766340000000  0.4441970000000 1.0
C      1  0.4605970000000  0.4258800000000  0.4490770000000 1.0
C      1  0.5749640000000  0.4694760000000  0.5257990000000 1.0
C      1  0.4894860000000  0.5780640000000  0.5252560000000 1.0
C      1  0.4383400000000  0.4560310000000  0.5253640000000 1.0
C      1  0.5666670000000  0.4692620000000  0.4723760000000 1.0
C      1  0.4914600000000  0.5860600000000  0.4725530000000 1.0
C      1  0.4278660000000  0.4438760000000  0.4728840000000 1.0
C      1  0.4094270000000  0.4578600000000  0.5148720000000 1.0
C      1  0.5812220000000  0.4454660000000  0.5127360000000 1.0
C      1  0.5095240000000  0.5989090000000  0.5135220000000 1.0
C      1  0.4068070000000  0.4547250000000  0.4869770000000 1.0
C      1  0.5789710000000  0.4451890000000  0.4850800000000 1.0
C      1  0.5103440000000  0.6009220000000  0.4857430000000 1.0
C      1  0.5246670000000  0.4999190000000  0.5559750000000 1.0
C      1  0.4805400000000  0.5199900000000  0.5520240000000 1.0
C      1  0.4838660000000  0.4778660000000  0.5545840000000 1.0
C      1  0.5236220000000  0.5055700000000  0.4412960000000 1.0
C      1  0.4843160000000  0.5173610000000  0.4404420000000 1.0
C      1  0.4953090000000  0.4721590000000  0.4422220000000 1.0
C      1  0.5444710000000  0.5713300000000  0.5323320000000 1.0
C      1  0.4119030000000  0.5020140000000  0.5270410000000 1.0
C      1  0.5405640000000  0.4270420000000  0.5303260000000 1.0
C      1  0.5462990000000  0.5717990000000  0.4656050000000 1.0
C      1  0.4162360000000  0.4991120000000  0.4699000000000 1.0
C      1  0.5396330000000  0.4229750000000  0.4734550000000 1.0
C      1  0.5936720000000  0.5073480000000  0.4995280000000 1.0
C      1  0.4605720000000  0.4161770000000  0.5010600000000 1.0
C      1  0.4480470000000  0.5719870000000  0.4951050000000 1.0
C      1  0.4999210000000  0.4969660000000  0.4272410000000 1.0
C      1  0.4987220000000  0.5005420000000  0.5640100000000 1.0
END
