TITL C-2441155-8282-61 0.0492377337383954 125000 -25079.9335999987 0 0 170 (C1) n - 1
REM
REM in /home/bkarasulu/work/CARBON/AIRSS/Generating-Clusters/ReaxFF-fromJPCA2015/Units_Real/with-SteepDescent/Higher-Symm
REM
REM
REM
REM
REM
REM ./C.cell (1df0a924f5614ab8850e4351716899ee)
REM
REM compiler GCC version 9.2.1 20190827 (Red Hat 9.2.1-1)
REM options -cpp -mtune=generic -march=x86-64 -g -O0 -fpre-include=/usr/include/finclude/math-vector-fortran.h
REM seed -1683026883 -155087776 -1360648021 1254979708 -1248949893 666661205 1620059456 1902488173 -1065222219 -427175336 -1536905959 -2050642486 1146384207 -846227841 880984652 1354192883 -689192731 -141201635 -904704267 -1446603567 -1944901147 1418513340 1467158551 1612723906 64316959 749213175 1248028267 502567545 -599073650 637647778 -1473742678 117616772 766204199
REM
CELL 1.54180   50.00000   50.00000   50.00000   90.00000   90.00000   90.00000
LATT -1
SFAC C  
C      1  0.5538820000000  0.5049340000000  0.5129180000000 1.0
C      1  0.5211550000000  0.4524810000000  0.5156000000000 1.0
C      1  0.4528790000000  0.4577850000000  0.5159250000000 1.0
C      1  0.4539490000000  0.5270750000000  0.5130830000000 1.0
C      1  0.5132440000000  0.5508790000000  0.5130930000000 1.0
C      1  0.5535700000000  0.5039880000000  0.4840450000000 1.0
C      1  0.5211640000000  0.4530660000000  0.4873190000000 1.0
C      1  0.4599100000000  0.4645990000000  0.4877660000000 1.0
C      1  0.4556250000000  0.5267640000000  0.4848370000000 1.0
C      1  0.5127940000000  0.5515830000000  0.4846360000000 1.0
C      1  0.5703400000000  0.4228380000000  0.4863180000000 1.0
C      1  0.4503750000000  0.4093290000000  0.4863280000000 1.0
C      1  0.3986230000000  0.5242010000000  0.4853650000000 1.0
C      1  0.4839810000000  0.5946830000000  0.4847970000000 1.0
C      1  0.5915010000000  0.5410600000000  0.4842000000000 1.0
C      1  0.5670710000000  0.4249280000000  0.5161920000000 1.0
C      1  0.4583030000000  0.4113910000000  0.5151890000000 1.0
C      1  0.4007960000000  0.5238550000000  0.5154080000000 1.0
C      1  0.4833620000000  0.5947090000000  0.5151920000000 1.0
C      1  0.5919210000000  0.5410880000000  0.5148070000000 1.0
C      1  0.4613550000000  0.5551500000000  0.4840170000000 1.0
C      1  0.5416210000000  0.5567950000000  0.4850890000000 1.0
C      1  0.5672530000000  0.4778170000000  0.4849500000000 1.0
C      1  0.5018900000000  0.4313900000000  0.4857120000000 1.0
C      1  0.4344750000000  0.4790900000000  0.4857280000000 1.0
C      1  0.4600600000000  0.5561160000000  0.5128670000000 1.0
C      1  0.5414940000000  0.5574590000000  0.5136110000000 1.0
C      1  0.5665470000000  0.4784230000000  0.5141450000000 1.0
C      1  0.5001240000000  0.4317360000000  0.5148300000000 1.0
C      1  0.4312710000000  0.4781820000000  0.5138730000000 1.0
C      1  0.4855590000000  0.4066110000000  0.5529360000000 1.0
C      1  0.4012430000000  0.4839650000000  0.5450200000000 1.0
C      1  0.4579980000000  0.5802460000000  0.5542700000000 1.0
C      1  0.5673870000000  0.5694750000000  0.5492340000000 1.0
C      1  0.5888810000000  0.4569040000000  0.5527470000000 1.0
C      1  0.4861920000000  0.4042400000000  0.4514680000000 1.0
C      1  0.4049530000000  0.4835110000000  0.4547520000000 1.0
C      1  0.4556060000000  0.5828610000000  0.4459240000000 1.0
C      1  0.5641490000000  0.5681820000000  0.4489880000000 1.0
C      1  0.5821490000000  0.4560310000000  0.4471370000000 1.0
C      1  0.4485090000000  0.5605300000000  0.5730080000000 1.0
C      1  0.5459460000000  0.5689270000000  0.5684940000000 1.0
C      1  0.5814640000000  0.4788040000000  0.5699230000000 1.0
C      1  0.5053130000000  0.4169390000000  0.5715110000000 1.0
C      1  0.4177600000000  0.4719440000000  0.5646400000000 1.0
C      1  0.4460490000000  0.5637750000000  0.4262700000000 1.0
C      1  0.5446650000000  0.5729080000000  0.4276430000000 1.0
C      1  0.5734160000000  0.4802610000000  0.4292560000000 1.0
C      1  0.5034670000000  0.4182860000000  0.4325920000000 1.0
C      1  0.4227320000000  0.4716410000000  0.4347390000000 1.0
C      1  0.4481070000000  0.4313080000000  0.4387390000000 1.0
C      1  0.4177480000000  0.5279730000000  0.4391760000000 1.0
C      1  0.5014960000000  0.5882310000000  0.4356480000000 1.0
C      1  0.5843170000000  0.5274210000000  0.4362310000000 1.0
C      1  0.5526680000000  0.4292530000000  0.4362860000000 1.0
C      1  0.4449140000000  0.4307710000000  0.5632620000000 1.0
C      1  0.4160270000000  0.5281040000000  0.5624080000000 1.0
C      1  0.5026270000000  0.5909620000000  0.5683660000000 1.0
C      1  0.5828680000000  0.5251230000000  0.5627270000000 1.0
C      1  0.5493940000000  0.4287340000000  0.5620810000000 1.0
C      1  0.5235040000000  0.4971480000000  0.6010240000000 1.0
C      1  0.5050960000000  0.4760690000000  0.5973880000000 1.0
C      1  0.4798330000000  0.4891390000000  0.5988920000000 1.0
C      1  0.4797330000000  0.5194740000000  0.5971740000000 1.0
C      1  0.5076690000000  0.5230520000000  0.6017770000000 1.0
C      1  0.5268460000000  0.4993360000000  0.3981410000000 1.0
C      1  0.5068910000000  0.4770800000000  0.3978130000000 1.0
C      1  0.4800570000000  0.4883500000000  0.3998300000000 1.0
C      1  0.4837890000000  0.5170850000000  0.4016710000000 1.0
C      1  0.5108510000000  0.5237930000000  0.4002320000000 1.0
C      1  0.4597830000000  0.4132440000000  0.4587160000000 1.0
C      1  0.4043890000000  0.5117810000000  0.4597080000000 1.0
C      1  0.4810550000000  0.5924380000000  0.4551250000000 1.0
C      1  0.5817710000000  0.5470370000000  0.4574390000000 1.0
C      1  0.5681810000000  0.4354650000000  0.4601830000000 1.0
C      1  0.4587240000000  0.4132160000000  0.5440570000000 1.0
C      1  0.4034230000000  0.5123910000000  0.5414580000000 1.0
C      1  0.4847730000000  0.5826850000000  0.5460750000000 1.0
C      1  0.5819780000000  0.5455170000000  0.5416060000000 1.0
C      1  0.5702010000000  0.4372570000000  0.5421150000000 1.0
C      1  0.5536470000000  0.5811660000000  0.5264070000000 1.0
C      1  0.5921820000000  0.4697570000000  0.5268890000000 1.0
C      1  0.4978020000000  0.4044570000000  0.5263850000000 1.0
C      1  0.4047130000000  0.4670950000000  0.5209600000000 1.0
C      1  0.4469080000000  0.5788750000000  0.5273870000000 1.0
C      1  0.5525010000000  0.5778470000000  0.4721940000000 1.0
C      1  0.5919260000000  0.4700890000000  0.4704380000000 1.0
C      1  0.5036220000000  0.4040000000000  0.4747230000000 1.0
C      1  0.4077000000000  0.4681110000000  0.4797300000000 1.0
C      1  0.4464260000000  0.5793730000000  0.4737530000000 1.0
C      1  0.5952490000000  0.5007210000000  0.5587330000000 1.0
C      1  0.5290120000000  0.4096310000000  0.5588830000000 1.0
C      1  0.4210540000000  0.4449660000000  0.5579140000000 1.0
C      1  0.4237530000000  0.5548960000000  0.5594390000000 1.0
C      1  0.5291130000000  0.5906290000000  0.5606870000000 1.0
C      1  0.5906900000000  0.5010410000000  0.4414540000000 1.0
C      1  0.5301540000000  0.4117480000000  0.4411680000000 1.0
C      1  0.4247040000000  0.4449040000000  0.4443310000000 1.0
C      1  0.4223750000000  0.5565250000000  0.4412060000000 1.0
C      1  0.5282980000000  0.5932610000000  0.4398250000000 1.0
C      1  0.4924410000000  0.4747300000000  0.4426370000000 1.0
C      1  0.4715370000000  0.4910560000000  0.4499230000000 1.0
C      1  0.4983600000000  0.5273190000000  0.4470880000000 1.0
C      1  0.5219880000000  0.5147360000000  0.4404720000000 1.0
C      1  0.5207580000000  0.4854540000000  0.4462970000000 1.0
C      1  0.4739800000000  0.4674840000000  0.5385730000000 1.0
C      1  0.4618350000000  0.4914550000000  0.5494510000000 1.0
C      1  0.5006950000000  0.5282180000000  0.5489510000000 1.0
C      1  0.5242010000000  0.5154490000000  0.5597430000000 1.0
C      1  0.5291100000000  0.4899650000000  0.5534390000000 1.0
C      1  0.4359500000000  0.5179870000000  0.5792130000000 1.0
C      1  0.4997770000000  0.5649360000000  0.5819050000000 1.0
C      1  0.5628430000000  0.5212680000000  0.5825840000000 1.0
C      1  0.5380770000000  0.4496950000000  0.5760750000000 1.0
C      1  0.4626000000000  0.4468580000000  0.5798580000000 1.0
C      1  0.4390030000000  0.5184680000000  0.4238400000000 1.0
C      1  0.4996600000000  0.5648530000000  0.4207580000000 1.0
C      1  0.5640410000000  0.5225790000000  0.4161160000000 1.0
C      1  0.5394770000000  0.4488270000000  0.4196210000000 1.0
C      1  0.4625280000000  0.4461790000000  0.4194190000000 1.0
C      1  0.6060300000000  0.5163620000000  0.5134230000000 1.0
C      1  0.5473020000000  0.4040220000000  0.5146320000000 1.0
C      1  0.4342810000000  0.4302040000000  0.5161100000000 1.0
C      1  0.4073260000000  0.5514930000000  0.5143110000000 1.0
C      1  0.5106730000000  0.6033010000000  0.5152850000000 1.0
C      1  0.6058170000000  0.5164710000000  0.4851320000000 1.0
C      1  0.5504040000000  0.4024310000000  0.4865670000000 1.0
C      1  0.4264000000000  0.4235200000000  0.4887560000000 1.0
C      1  0.4058290000000  0.5521060000000  0.4863110000000 1.0
C      1  0.5119310000000  0.6031490000000  0.4865610000000 1.0
C      1  0.5327820000000  0.5994360000000  0.5342740000000 1.0
C      1  0.6052370000000  0.4954540000000  0.5328820000000 1.0
C      1  0.5260140000000  0.3988680000000  0.5331850000000 1.0
C      1  0.4125450000000  0.4412390000000  0.5319480000000 1.0
C      1  0.4206700000000  0.5671050000000  0.5338280000000 1.0
C      1  0.5339470000000  0.5986270000000  0.4677810000000 1.0
C      1  0.6045040000000  0.4955790000000  0.4654140000000 1.0
C      1  0.5307520000000  0.3985790000000  0.4667710000000 1.0
C      1  0.4134230000000  0.4408550000000  0.4700800000000 1.0
C      1  0.4200390000000  0.5677160000000  0.4675960000000 1.0
C      1  0.5234000000000  0.5029630000000  0.4853270000000 1.0
C      1  0.5123410000000  0.4775120000000  0.4784160000000 1.0
C      1  0.4839600000000  0.4823170000000  0.4901830000000 1.0
C      1  0.4742580000000  0.5084270000000  0.4746120000000 1.0
C      1  0.5025610000000  0.5246130000000  0.4754730000000 1.0
C      1  0.5244790000000  0.5054160000000  0.5142080000000 1.0
C      1  0.5169460000000  0.4791510000000  0.5289270000000 1.0
C      1  0.4880280000000  0.4857860000000  0.5203590000000 1.0
C      1  0.4714740000000  0.5093370000000  0.5293260000000 1.0
C      1  0.5065090000000  0.5263410000000  0.5218100000000 1.0
C      1  0.5453730000000  0.4721540000000  0.4350710000000 1.0
C      1  0.4908960000000  0.4454000000000  0.4262290000000 1.0
C      1  0.4450930000000  0.4905270000000  0.4297690000000 1.0
C      1  0.4817380000000  0.5454470000000  0.4326980000000 1.0
C      1  0.5394530000000  0.5326540000000  0.4285370000000 1.0
C      1  0.5503400000000  0.4761200000000  0.5709470000000 1.0
C      1  0.4858370000000  0.4504460000000  0.5626270000000 1.0
C      1  0.4417120000000  0.4895860000000  0.5715990000000 1.0
C      1  0.4894320000000  0.5536780000000  0.5579050000000 1.0
C      1  0.5411770000000  0.5389890000000  0.5756370000000 1.0
C      1  0.5131480000000  0.4504860000000  0.4078750000000 1.0
C      1  0.4565280000000  0.4727510000000  0.4103880000000 1.0
C      1  0.4596480000000  0.5362850000000  0.4158830000000 1.0
C      1  0.5249050000000  0.5530910000000  0.4119850000000 1.0
C      1  0.5553530000000  0.4976120000000  0.4055010000000 1.0
C      1  0.5097610000000  0.4476700000000  0.5810200000000 1.0
C      1  0.4573540000000  0.4730010000000  0.5911420000000 1.0
C      1  0.4570960000000  0.5353210000000  0.5866120000000 1.0
C      1  0.5203810000000  0.5482690000000  0.5946970000000 1.0
C      1  0.5515340000000  0.4966560000000  0.5921860000000 1.0
END
