TITL C-2441163-1170-640 0.140202413171508 125000 -23776.6554295421 0 0 182 (C1) n - 1
REM
REM in /home/bkarasulu/work/CARBON/AIRSS/Generating-Clusters/ReaxFF-fromJPCA2015/Units_Real/with-SteepDescent/Higher-Symm
REM
REM
REM
REM
REM
REM ./C.cell (1df0a924f5614ab8850e4351716899ee)
REM
REM compiler GCC version 9.2.1 20190827 (Red Hat 9.2.1-1)
REM options -cpp -mtune=generic -march=x86-64 -g -O0 -fpre-include=/usr/include/finclude/math-vector-fortran.h
REM seed 573675779 216602801 -44539017 -807141256 432764995 -1509359692 1674874895 1881561994 -867593456 71651191 1075316366 -860318602 56006123 -1906832042 -445768394 -907884411 1254217200 -1115694880 -233357520 1950120623 -1889162451 1839497538 1368927750 -512471157 311507338 1152674613 1622593995 784675946 -173628102 -1505959891 -320175612 -5454716 -470584375
REM
CELL 1.54180   50.00000   50.00000   50.00000   90.00000   90.00000   90.00000
LATT -1
SFAC C  
C      1  0.5297520000000  0.4047650000000  0.5214340000000 1.0
C      1  0.4686110000000  0.4122500000000  0.4840830000000 1.0
C      1  0.4626370000000  0.5964520000000  0.5187000000000 1.0
C      1  0.5360680000000  0.5952770000000  0.4773080000000 1.0
C      1  0.5341350000000  0.5185680000000  0.5337660000000 1.0
C      1  0.4638180000000  0.5196220000000  0.4659990000000 1.0
C      1  0.4620590000000  0.4827580000000  0.5354920000000 1.0
C      1  0.5349060000000  0.4820420000000  0.4683040000000 1.0
C      1  0.5501780000000  0.4721080000000  0.4389990000000 1.0
C      1  0.4463570000000  0.4768780000000  0.5590540000000 1.0
C      1  0.4477110000000  0.5229730000000  0.4418400000000 1.0
C      1  0.5455230000000  0.5117420000000  0.5596400000000 1.0
C      1  0.5383310000000  0.5750450000000  0.4380770000000 1.0
C      1  0.4628230000000  0.5733860000000  0.5607700000000 1.0
C      1  0.4675810000000  0.4286100000000  0.4405040000000 1.0
C      1  0.5375900000000  0.4205100000000  0.5622240000000 1.0
C      1  0.5886110000000  0.5286690000000  0.4533200000000 1.0
C      1  0.4276780000000  0.5263650000000  0.5403530000000 1.0
C      1  0.4284940000000  0.4741730000000  0.4609030000000 1.0
C      1  0.5921090000000  0.4802090000000  0.5358960000000 1.0
C      1  0.5185030000000  0.6025850000000  0.5231430000000 1.0
C      1  0.4891230000000  0.5969470000000  0.4812520000000 1.0
C      1  0.4789570000000  0.4034610000000  0.5286410000000 1.0
C      1  0.5148710000000  0.3934820000000  0.4773600000000 1.0
C      1  0.5285840000000  0.4572390000000  0.4269160000000 1.0
C      1  0.4775680000000  0.4425580000000  0.5828780000000 1.0
C      1  0.4758140000000  0.5621810000000  0.4167480000000 1.0
C      1  0.5236950000000  0.5632680000000  0.5817700000000 1.0
C      1  0.3950540000000  0.4987340000000  0.4850510000000 1.0
C      1  0.6001650000000  0.5025270000000  0.5190390000000 1.0
C      1  0.5988900000000  0.4990040000000  0.4902760000000 1.0
C      1  0.3957210000000  0.5000680000000  0.5142090000000 1.0
C      1  0.5265280000000  0.4474660000000  0.3987100000000 1.0
C      1  0.4549780000000  0.4560790000000  0.5936020000000 1.0
C      1  0.4549860000000  0.5443860000000  0.4070820000000 1.0
C      1  0.5441480000000  0.5447080000000  0.5892540000000 1.0
C      1  0.4903170000000  0.5978650000000  0.5326860000000 1.0
C      1  0.5110080000000  0.5974320000000  0.4620810000000 1.0
C      1  0.5040060000000  0.4021160000000  0.5390370000000 1.0
C      1  0.5006210000000  0.4001390000000  0.4540540000000 1.0
C      1  0.4577630000000  0.5072730000000  0.5941320000000 1.0
C      1  0.5345720000000  0.5210690000000  0.4044370000000 1.0
C      1  0.5401160000000  0.4753950000000  0.5940770000000 1.0
C      1  0.4653310000000  0.4803690000000  0.4036410000000 1.0
C      1  0.4450480000000  0.4292490000000  0.5518700000000 1.0
C      1  0.5527100000000  0.4262570000000  0.4502170000000 1.0
C      1  0.5538060000000  0.5747910000000  0.5517440000000 1.0
C      1  0.4447500000000  0.5729290000000  0.4475330000000 1.0
C      1  0.5066600000000  0.4809240000000  0.4202110000000 1.0
C      1  0.4993540000000  0.4896200000000  0.5763000000000 1.0
C      1  0.4962310000000  0.5200490000000  0.4231660000000 1.0
C      1  0.4921140000000  0.5301210000000  0.5941140000000 1.0
C      1  0.4406960000000  0.4675720000000  0.4140550000000 1.0
C      1  0.5619980000000  0.4648030000000  0.5790950000000 1.0
C      1  0.5593430000000  0.5327440000000  0.4136030000000 1.0
C      1  0.4406600000000  0.5297830000000  0.5864910000000 1.0
C      1  0.5009830000000  0.4352240000000  0.4060220000000 1.0
C      1  0.5045360000000  0.4336350000000  0.5849320000000 1.0
C      1  0.5036930000000  0.5670800000000  0.4148940000000 1.0
C      1  0.4978490000000  0.5745130000000  0.5873390000000 1.0
C      1  0.4460850000000  0.5115150000000  0.4916990000000 1.0
C      1  0.5496370000000  0.5116480000000  0.5084990000000 1.0
C      1  0.5502270000000  0.4874840000000  0.4944660000000 1.0
C      1  0.4470220000000  0.4888100000000  0.5096420000000 1.0
C      1  0.5792520000000  0.4310580000000  0.4820480000000 1.0
C      1  0.4226290000000  0.4283980000000  0.5047840000000 1.0
C      1  0.4211190000000  0.5653550000000  0.4849590000000 1.0
C      1  0.5800230000000  0.5670200000000  0.5192120000000 1.0
C      1  0.5237590000000  0.4327700000000  0.4422240000000 1.0
C      1  0.4726330000000  0.4317840000000  0.5568250000000 1.0
C      1  0.4732210000000  0.5728090000000  0.4436160000000 1.0
C      1  0.5245490000000  0.5761720000000  0.5560180000000 1.0
C      1  0.5218590000000  0.5059690000000  0.4253480000000 1.0
C      1  0.4797520000000  0.5117760000000  0.5765250000000 1.0
C      1  0.4798510000000  0.4946790000000  0.4245000000000 1.0
C      1  0.5306850000000  0.4994010000000  0.5804620000000 1.0
C      1  0.5072520000000  0.4898700000000  0.3902140000000 1.0
C      1  0.4933050000000  0.4866740000000  0.6055830000000 1.0
C      1  0.4950070000000  0.5182320000000  0.3928350000000 1.0
C      1  0.5073550000000  0.5126720000000  0.6113940000000 1.0
C      1  0.5062190000000  0.4426140000000  0.4645560000000 1.0
C      1  0.4918740000000  0.4419250000000  0.5383700000000 1.0
C      1  0.4927240000000  0.5600230000000  0.4611580000000 1.0
C      1  0.5063590000000  0.5578380000000  0.5399190000000 1.0
C      1  0.4986410000000  0.4160150000000  0.4299050000000 1.0
C      1  0.5104600000000  0.4109420000000  0.5671990000000 1.0
C      1  0.5126300000000  0.5888900000000  0.4333510000000 1.0
C      1  0.4871550000000  0.5895840000000  0.5651090000000 1.0
C      1  0.5756200000000  0.4224220000000  0.5311720000000 1.0
C      1  0.4266790000000  0.4217350000000  0.4767570000000 1.0
C      1  0.4205240000000  0.5786810000000  0.5271010000000 1.0
C      1  0.5788590000000  0.5703050000000  0.4761020000000 1.0
C      1  0.5577100000000  0.5289210000000  0.4877970000000 1.0
C      1  0.4448610000000  0.5374770000000  0.5041030000000 1.0
C      1  0.4481920000000  0.4619000000000  0.4993900000000 1.0
C      1  0.5559740000000  0.4657300000000  0.5123370000000 1.0
C      1  0.5469300000000  0.5589680000000  0.4130730000000 1.0
C      1  0.4535110000000  0.5554990000000  0.5847860000000 1.0
C      1  0.4543030000000  0.4415120000000  0.4155580000000 1.0
C      1  0.5503310000000  0.4378780000000  0.5828050000000 1.0
C      1  0.4956020000000  0.5157100000000  0.4611660000000 1.0
C      1  0.5012270000000  0.5130020000000  0.5354520000000 1.0
C      1  0.5035150000000  0.4891200000000  0.4661940000000 1.0
C      1  0.4948240000000  0.4860010000000  0.5443320000000 1.0
C      1  0.5850980000000  0.5349190000000  0.5553630000000 1.0
C      1  0.4074380000000  0.5292350000000  0.4436380000000 1.0
C      1  0.4064990000000  0.4704960000000  0.5548510000000 1.0
C      1  0.5895340000000  0.4691720000000  0.4470550000000 1.0
C      1  0.5335060000000  0.5211760000000  0.6022200000000 1.0
C      1  0.4661680000000  0.5202740000000  0.3962570000000 1.0
C      1  0.4641880000000  0.4810870000000  0.6057430000000 1.0
C      1  0.5300070000000  0.4726110000000  0.3820310000000 1.0
C      1  0.4604140000000  0.4047020000000  0.5103260000000 1.0
C      1  0.5354130000000  0.4052600000000  0.4938250000000 1.0
C      1  0.5403090000000  0.5962400000000  0.5061020000000 1.0
C      1  0.4615950000000  0.5945050000000  0.4899400000000 1.0
C      1  0.4785660000000  0.5552700000000  0.5978180000000 1.0
C      1  0.5222770000000  0.5485490000000  0.4011040000000 1.0
C      1  0.5271160000000  0.4489850000000  0.5956910000000 1.0
C      1  0.4768760000000  0.4504940000000  0.4004020000000 1.0
C      1  0.4375730000000  0.5852090000000  0.4737020000000 1.0
C      1  0.5619130000000  0.5863600000000  0.5253580000000 1.0
C      1  0.5593250000000  0.4131580000000  0.4759800000000 1.0
C      1  0.4401710000000  0.4176830000000  0.5261030000000 1.0
C      1  0.4711590000000  0.4569660000000  0.5209100000000 1.0
C      1  0.5256630000000  0.4568080000000  0.4801740000000 1.0
C      1  0.5266410000000  0.5450670000000  0.5240510000000 1.0
C      1  0.4729660000000  0.5465020000000  0.4772730000000 1.0
C      1  0.5993590000000  0.4755570000000  0.4738030000000 1.0
C      1  0.4002440000000  0.4738450000000  0.5275060000000 1.0
C      1  0.3985850000000  0.5244300000000  0.4703440000000 1.0
C      1  0.5978310000000  0.5302990000000  0.5287220000000 1.0
C      1  0.5802930000000  0.4821410000000  0.5628170000000 1.0
C      1  0.4232390000000  0.4796880000000  0.4341210000000 1.0
C      1  0.4234790000000  0.5180330000000  0.5670450000000 1.0
C      1  0.5769700000000  0.5166090000000  0.4303330000000 1.0
C      1  0.4873770000000  0.5407120000000  0.5002140000000 1.0
C      1  0.5145450000000  0.5437810000000  0.4991220000000 1.0
C      1  0.5138140000000  0.4613370000000  0.5044810000000 1.0
C      1  0.4890640000000  0.4643860000000  0.5016150000000 1.0
C      1  0.4843390000000  0.5136040000000  0.5118170000000 1.0
C      1  0.5165080000000  0.5237760000000  0.4794720000000 1.0
C      1  0.5175620000000  0.4788790000000  0.5246570000000 1.0
C      1  0.4836990000000  0.4873100000000  0.4874870000000 1.0
C      1  0.4213200000000  0.4437890000000  0.4545660000000 1.0
C      1  0.5782090000000  0.4425480000000  0.5518470000000 1.0
C      1  0.5783580000000  0.5530170000000  0.4547070000000 1.0
C      1  0.4242210000000  0.5543240000000  0.5460990000000 1.0
C      1  0.5968690000000  0.4509870000000  0.4908810000000 1.0
C      1  0.4125310000000  0.4563800000000  0.5043390000000 1.0
C      1  0.4057250000000  0.5434160000000  0.4937160000000 1.0
C      1  0.5949160000000  0.5485080000000  0.5054510000000 1.0
C      1  0.5992900000000  0.4330680000000  0.5428020000000 1.0
C      1  0.3989960000000  0.4331370000000  0.4488260000000 1.0
C      1  0.4065130000000  0.5741620000000  0.5511020000000 1.0
C      1  0.5826730000000  0.5794170000000  0.4519090000000 1.0
C      1  0.5395130000000  0.5345120000000  0.4667860000000 1.0
C      1  0.4604540000000  0.5334670000000  0.5288590000000 1.0
C      1  0.4601340000000  0.4681780000000  0.4719310000000 1.0
C      1  0.5387840000000  0.4643410000000  0.5355350000000 1.0
C      1  0.5643190000000  0.5519720000000  0.5669640000000 1.0
C      1  0.4365820000000  0.5482880000000  0.4326570000000 1.0
C      1  0.4373680000000  0.4514600000000  0.5691920000000 1.0
C      1  0.5676300000000  0.4498610000000  0.4439600000000 1.0
C      1  0.5590750000000  0.5935090000000  0.4586500000000 1.0
C      1  0.4441190000000  0.5899980000000  0.5389430000000 1.0
C      1  0.4514660000000  0.4152940000000  0.4637600000000 1.0
C      1  0.5507470000000  0.4112120000000  0.5384170000000 1.0
C      1  0.5748290000000  0.4878200000000  0.4302200000000 1.0
C      1  0.4223870000000  0.4895780000000  0.5689780000000 1.0
C      1  0.4243300000000  0.5086770000000  0.4331170000000 1.0
C      1  0.5735890000000  0.5107260000000  0.5670630000000 1.0
C      1  0.5862350000000  0.5246510000000  0.4815710000000 1.0
C      1  0.4086460000000  0.5252770000000  0.5182920000000 1.0
C      1  0.4079790000000  0.4739020000000  0.4807530000000 1.0
C      1  0.5836270000000  0.4613260000000  0.5155180000000 1.0
C      1  0.5216330000000  0.5554040000000  0.4563760000000 1.0
C      1  0.4782520000000  0.5528840000000  0.5421510000000 1.0
C      1  0.4779790000000  0.4511160000000  0.4565560000000 1.0
C      1  0.5195470000000  0.4441570000000  0.5445270000000 1.0
C      1  0.5006330000000  0.5892720000000  0.5067080000000 1.0
C      1  0.4965350000000  0.4156070000000  0.4799250000000 1.0
END
