TITL C-3201375-1262-1110 -4.5515604305527e-07 125000 -213.825444105748 0 0 38 (D3) n - 1
REM
REM in /home/nfs/bkarasulu/CARBON/AIRSS/Generating-Clusters/LCBOP/Higher-Symm/SD-CG/FIRE-CG
REM
REM
REM
REM
REM
REM ./C.cell (b20cbc046b6831c77cfcea5457e17084)
REM AIRSS Version 0.9.1 bugfix July 2018 build 013d7b7c2542+ Fri, 06 Jul 2018 19:26:36 +0100
REM compiler GCC version 9.2.1 20190827 (Red Hat 9.2.1-1)
REM options -cpp -mtune=generic -march=x86-64 -g -O0 -fpre-include=/usr/include/finclude/math-vector-fortran.h
REM seed 1378397156 1368670329 -1697245203 -145803142 115032437 -168447610 -34253299 -1564750583 -673914068 648404592 -518293196 -782690094 203483877 2117354113 1669374937 95625488 621988586 1210123319 -2014970585 2048812940 898230261 -1416506139 606521503 -853978058 -1215248485 1439819998 -1320843746 235745457 1610776674 -1401303655 -1710268231 1783368596 492218725
REM
CELL 1.54180   50.00000   50.00000   50.00000   90.00000   90.00000   90.00000
LATT -1
SFAC C  
C      1  0.5354380000000  0.4387710000000  0.5149360000000 1.0
C      1  0.4298110000000  0.4991350000000  0.5149380000000 1.0
C      1  0.5349010000000  0.5604290000000  0.5149420000000 1.0
C      1  0.5354320000000  0.5601240000000  0.4873500000000 1.0
C      1  0.4298110000000  0.4997490000000  0.4873460000000 1.0
C      1  0.5349080000000  0.4384660000000  0.4873440000000 1.0
C      1  0.5496110000000  0.4412620000000  0.5595620000000 1.0
C      1  0.4248830000000  0.4856120000000  0.5595630000000 1.0
C      1  0.5256550000000  0.5714540000000  0.5595680000000 1.0
C      1  0.5496060000000  0.5576340000000  0.4427240000000 1.0
C      1  0.4248820000000  0.5132710000000  0.4427210000000 1.0
C      1  0.5256640000000  0.4274390000000  0.4427180000000 1.0
C      1  0.5244060000000  0.4564060000000  0.4431900000000 1.0
C      1  0.4505980000000  0.4998770000000  0.4431910000000 1.0
C      1  0.5251480000000  0.5420610000000  0.4431940000000 1.0
C      1  0.5244000000000  0.5424870000000  0.5590960000000 1.0
C      1  0.4505970000000  0.4990090000000  0.5590930000000 1.0
C      1  0.5251520000000  0.4568320000000  0.5590920000000 1.0
C      1  0.5318410000000  0.5364500000000  0.5314400000000 1.0
C      1  0.5162030000000  0.4534090000000  0.5314360000000 1.0
C      1  0.4521060000000  0.5084730000000  0.5314380000000 1.0
C      1  0.5318450000000  0.4624440000000  0.4708450000000 1.0
C      1  0.5161990000000  0.5454840000000  0.4708490000000 1.0
C      1  0.4521070000000  0.4904130000000  0.4708460000000 1.0
C      1  0.4721390000000  0.4996250000000  0.4258850000000 1.0
C      1  0.5141590000000  0.5235340000000  0.4258870000000 1.0
C      1  0.5138550000000  0.4751890000000  0.4258840000000 1.0
C      1  0.4721380000000  0.4992630000000  0.5763990000000 1.0
C      1  0.5141600000000  0.4753590000000  0.5763990000000 1.0
C      1  0.5138510000000  0.5237030000000  0.5764010000000 1.0
C      1  0.5554750000000  0.5679120000000  0.4678720000000 1.0
C      1  0.5316300000000  0.4172150000000  0.4678650000000 1.0
C      1  0.4130460000000  0.5132140000000  0.4678680000000 1.0
C      1  0.5554820000000  0.4309850000000  0.5344140000000 1.0
C      1  0.5316210000000  0.5816790000000  0.5344210000000 1.0
C      1  0.4130470000000  0.4856680000000  0.5344150000000 1.0
C      1  0.5000500000000  0.4994420000000  0.5789780000000 1.0
C      1  0.5000510000000  0.4994490000000  0.4233070000000 1.0
END
