TITL C-3201378-2706-2197 20.1116145022963 125000 -671.084072755051 0 0 114 (C1) n - 1
REM
REM in /home/nfs/bkarasulu/CARBON/AIRSS/Generating-Clusters/LCBOP/Higher-Symm/SD-CG/FIRE-CG
REM
REM
REM
REM
REM
REM ./C.cell (b20cbc046b6831c77cfcea5457e17084)
REM AIRSS Version 0.9.1 bugfix July 2018 build 013d7b7c2542+ Fri, 06 Jul 2018 19:26:36 +0100
REM compiler GCC version 9.2.1 20190827 (Red Hat 9.2.1-1)
REM options -cpp -mtune=generic -march=x86-64 -g -O0 -fpre-include=/usr/include/finclude/math-vector-fortran.h
REM seed -898377950 -2125379699 34927128 -1687549573 482950578 -415252901 -1902036514 -30816267 1603719398 -258263689 1917239251 -738403352 -1988050356 755444435 -943835113 1423328716 1918870356 -1195604117 -798607630 -498947238 -1997476287 222629076 809319013 1642369966 -1465317089 1677820915 -1725138201 54195625 -430825078 1505170166 -1460387912 1825448076 -1904979008
REM
CELL 1.54180   50.00000   50.00000   50.00000   90.00000   90.00000   90.00000
LATT -1
SFAC C  
C      1  0.5385550000000  0.5656160000000  0.4453630000000 1.0
C      1  0.5286310000000  0.4304310000000  0.5398910000000 1.0
C      1  0.6030040000000  0.5222110000000  0.4943500000000 1.0
C      1  0.6096060000000  0.4944010000000  0.4932200000000 1.0
C      1  0.5245080000000  0.5099680000000  0.5454980000000 1.0
C      1  0.4885980000000  0.5355810000000  0.3733520000000 1.0
C      1  0.5449820000000  0.5286420000000  0.4921990000000 1.0
C      1  0.5430790000000  0.4835600000000  0.5059510000000 1.0
C      1  0.4961310000000  0.5190450000000  0.4800590000000 1.0
C      1  0.4977300000000  0.4718070000000  0.4969970000000 1.0
C      1  0.4730940000000  0.4831180000000  0.4541660000000 1.0
C      1  0.4532920000000  0.5433620000000  0.5896200000000 1.0
C      1  0.5640120000000  0.4514790000000  0.4227010000000 1.0
C      1  0.5587420000000  0.5334210000000  0.5870610000000 1.0
C      1  0.4578630000000  0.5032160000000  0.4400240000000 1.0
C      1  0.4800060000000  0.5402810000000  0.5992470000000 1.0
C      1  0.5188680000000  0.4711240000000  0.5154980000000 1.0
C      1  0.5203980000000  0.5326890000000  0.4768980000000 1.0
C      1  0.5400070000000  0.4080520000000  0.4413540000000 1.0
C      1  0.5380860000000  0.5754560000000  0.5585360000000 1.0
C      1  0.5882820000000  0.5309640000000  0.5174870000000 1.0
C      1  0.5897060000000  0.4763900000000  0.4874310000000 1.0
C      1  0.4572440000000  0.5951010000000  0.4347130000000 1.0
C      1  0.4430470000000  0.3892500000000  0.5641410000000 1.0
C      1  0.4395670000000  0.4079040000000  0.5139800000000 1.0
C      1  0.4410220000000  0.5847310000000  0.4846250000000 1.0
C      1  0.4888850000000  0.5789860000000  0.5483240000000 1.0
C      1  0.4953550000000  0.4117610000000  0.4590370000000 1.0
C      1  0.4410700000000  0.4215240000000  0.4726490000000 1.0
C      1  0.4298500000000  0.5761900000000  0.5258480000000 1.0
C      1  0.4403200000000  0.3978290000000  0.5392220000000 1.0
C      1  0.4493940000000  0.5921230000000  0.4598450000000 1.0
C      1  0.4966930000000  0.5205380000000  0.5877740000000 1.0
C      1  0.4674140000000  0.5119240000000  0.4152070000000 1.0
C      1  0.5190250000000  0.6313840000000  0.6187120000000 1.0
C      1  0.5159550000000  0.4130030000000  0.3632460000000 1.0
C      1  0.5555820000000  0.4098670000000  0.5071100000000 1.0
C      1  0.5501320000000  0.5884090000000  0.4868740000000 1.0
C      1  0.5451810000000  0.4802060000000  0.5880360000000 1.0
C      1  0.5537470000000  0.5044580000000  0.4194190000000 1.0
C      1  0.4267620000000  0.4278170000000  0.4978380000000 1.0
C      1  0.4221130000000  0.5680090000000  0.4982170000000 1.0
C      1  0.5083610000000  0.5997270000000  0.5105490000000 1.0
C      1  0.5127530000000  0.3861590000000  0.4938190000000 1.0
C      1  0.4907970000000  0.4911550000000  0.4765640000000 1.0
C      1  0.5029890000000  0.5180580000000  0.5300570000000 1.0
C      1  0.4501410000000  0.5316600000000  0.4984730000000 1.0
C      1  0.4430140000000  0.4684250000000  0.5162180000000 1.0
C      1  0.5547860000000  0.4287490000000  0.5281950000000 1.0
C      1  0.5587310000000  0.5738600000000  0.4642540000000 1.0
C      1  0.4889040000000  0.3936210000000  0.4800180000000 1.0
C      1  0.4844120000000  0.5942840000000  0.5244920000000 1.0
C      1  0.4345570000000  0.5153560000000  0.4506560000000 1.0
C      1  0.3824970000000  0.4605960000000  0.5407540000000 1.0
C      1  0.5110150000000  0.5814900000000  0.5663800000000 1.0
C      1  0.5120600000000  0.4110310000000  0.4363210000000 1.0
C      1  0.4008450000000  0.4962810000000  0.4802180000000 1.0
C      1  0.3943710000000  0.4987780000000  0.5089320000000 1.0
C      1  0.5668960000000  0.3703510000000  0.4562490000000 1.0
C      1  0.5742960000000  0.6008670000000  0.5392050000000 1.0
C      1  0.5623540000000  0.5131190000000  0.4702090000000 1.0
C      1  0.5513590000000  0.4999510000000  0.5312110000000 1.0
C      1  0.5702980000000  0.4785170000000  0.5426270000000 1.0
C      1  0.5876580000000  0.5307350000000  0.4711810000000 1.0
C      1  0.4071860000000  0.5375170000000  0.5424450000000 1.0
C      1  0.4205120000000  0.4586530000000  0.4519000000000 1.0
C      1  0.4463560000000  0.3810790000000  0.5886740000000 1.0
C      1  0.4639010000000  0.5967170000000  0.4095600000000 1.0
C      1  0.5479890000000  0.5171270000000  0.4437810000000 1.0
C      1  0.5276580000000  0.4679360000000  0.5682650000000 1.0
C      1  0.4210270000000  0.5378740000000  0.4948430000000 1.0
C      1  0.4182120000000  0.4567710000000  0.5026970000000 1.0
C      1  0.4579250000000  0.5950430000000  0.5153070000000 1.0
C      1  0.4619570000000  0.3963370000000  0.4877600000000 1.0
C      1  0.4731620000000  0.5556060000000  0.5492370000000 1.0
C      1  0.4866120000000  0.4373960000000  0.4657080000000 1.0
C      1  0.5494510000000  0.5894650000000  0.5361510000000 1.0
C      1  0.5494220000000  0.3906240000000  0.4620230000000 1.0
C      1  0.5079520000000  0.4186240000000  0.3874010000000 1.0
C      1  0.5121840000000  0.6090300000000  0.6071970000000 1.0
C      1  0.4817860000000  0.4452090000000  0.4198410000000 1.0
C      1  0.4928930000000  0.5639820000000  0.6076490000000 1.0
C      1  0.4782300000000  0.5231700000000  0.3937980000000 1.0
C      1  0.5198040000000  0.5137570000000  0.5733440000000 1.0
C      1  0.4701980000000  0.4532910000000  0.4464500000000 1.0
C      1  0.4487700000000  0.5533720000000  0.5636540000000 1.0
C      1  0.5141270000000  0.4094360000000  0.5493020000000 1.0
C      1  0.5293060000000  0.5816390000000  0.4253890000000 1.0
C      1  0.5359090000000  0.5928650000000  0.5109070000000 1.0
C      1  0.5399840000000  0.3943950000000  0.4889310000000 1.0
C      1  0.4260130000000  0.5582760000000  0.5476150000000 1.0
C      1  0.4427890000000  0.4414290000000  0.4524320000000 1.0
C      1  0.4822850000000  0.5336030000000  0.5352190000000 1.0
C      1  0.4875470000000  0.4465950000000  0.4917300000000 1.0
C      1  0.5009300000000  0.4248320000000  0.4135650000000 1.0
C      1  0.5055070000000  0.5853310000000  0.5942390000000 1.0
C      1  0.5715320000000  0.4513290000000  0.5360530000000 1.0
C      1  0.5825640000000  0.5580590000000  0.4645620000000 1.0
C      1  0.5295560000000  0.5389910000000  0.4497290000000 1.0
C      1  0.5205090000000  0.4576700000000  0.5421000000000 1.0
C      1  0.4042450000000  0.5244570000000  0.5175360000000 1.0
C      1  0.4111160000000  0.4701000000000  0.4755570000000 1.0
C      1  0.4150030000000  0.5195000000000  0.4707480000000 1.0
C      1  0.3961660000000  0.4716110000000  0.5202180000000 1.0
C      1  0.4741030000000  0.5339020000000  0.4877880000000 1.0
C      1  0.4569520000000  0.4770700000000  0.5364850000000 1.0
C      1  0.5601230000000  0.5256640000000  0.5174960000000 1.0
C      1  0.5627010000000  0.4856440000000  0.4840780000000 1.0
C      1  0.5440460000000  0.5090970000000  0.5879440000000 1.0
C      1  0.5619330000000  0.4776960000000  0.4193400000000 1.0
C      1  0.5517170000000  0.5181850000000  0.3958330000000 1.0
C      1  0.5606500000000  0.4657780000000  0.6052360000000 1.0
C      1  0.5535140000000  0.5568410000000  0.5740400000000 1.0
C      1  0.5573510000000  0.4268290000000  0.4299370000000 1.0
END
