TITL C-3201372-1405-2272 -3.92243162951778e-07 125000 -399.583558811383 0 0 64 (D2d) n - 1
REM
REM in /home/nfs/bkarasulu/CARBON/AIRSS/Generating-Clusters/LCBOP/Higher-Symm/SD-CG/FIRE-CG
REM
REM
REM
REM
REM
REM ./C.cell (b20cbc046b6831c77cfcea5457e17084)
REM AIRSS Version 0.9.1 bugfix July 2018 build 013d7b7c2542+ Fri, 06 Jul 2018 19:26:36 +0100
REM compiler GCC version 9.2.1 20190827 (Red Hat 9.2.1-1)
REM options -cpp -mtune=generic -march=x86-64 -g -O0 -fpre-include=/usr/include/finclude/math-vector-fortran.h
REM seed 1435933270 -2072795148 -1407318714 577628442 -1919272436 2039683260 283177776 -1349119180 -1045967049 -1983020080 1782459255 -2120679522 -2069511702 -1277443759 644926750 586753419 601879719 -1679763258 178583484 672226469 -359048287 1180019944 -1581129704 1844754093 -865675452 2053308007 911958603 -107587396 83919617 -2063923119 -538048473 864024247 -2093177073
REM
CELL 1.54180   50.00000   50.00000   50.00000   90.00000   90.00000   90.00000
LATT -1
SFAC C  
C      1  0.5573600000000  0.4790880000000  0.5349240000000 1.0
C      1  0.4426390000000  0.4790890000000  0.4650760000000 1.0
C      1  0.4426390000000  0.5209120000000  0.5349230000000 1.0
C      1  0.5573610000000  0.5209110000000  0.4650760000000 1.0
C      1  0.5349230000000  0.4790890000000  0.5573610000000 1.0
C      1  0.4650760000000  0.4790880000000  0.4426390000000 1.0
C      1  0.5349240000000  0.5209110000000  0.4426390000000 1.0
C      1  0.4650760000000  0.5209120000000  0.5573600000000 1.0
C      1  0.5575910000000  0.5066460000000  0.5229210000000 1.0
C      1  0.4424100000000  0.5066470000000  0.4770790000000 1.0
C      1  0.4424090000000  0.4933540000000  0.5229200000000 1.0
C      1  0.5575910000000  0.4933530000000  0.4770800000000 1.0
C      1  0.5229200000000  0.5066470000000  0.5575910000000 1.0
C      1  0.4770800000000  0.5066460000000  0.4424090000000 1.0
C      1  0.5229210000000  0.4933530000000  0.4424100000000 1.0
C      1  0.4770790000000  0.4933540000000  0.5575910000000 1.0
C      1  0.5647150000000  0.5342830000000  0.5163770000000 1.0
C      1  0.4352860000000  0.5342840000000  0.4836230000000 1.0
C      1  0.4352850000000  0.4657170000000  0.5163770000000 1.0
C      1  0.5647150000000  0.4657160000000  0.4836240000000 1.0
C      1  0.5163770000000  0.5342840000000  0.5647150000000 1.0
C      1  0.4836240000000  0.5342830000000  0.4352850000000 1.0
C      1  0.5163770000000  0.4657160000000  0.4352860000000 1.0
C      1  0.4836230000000  0.4657170000000  0.5647150000000 1.0
C      1  0.4691300000000  0.5061740000000  0.4880540000000 1.0
C      1  0.5308700000000  0.5061730000000  0.5119460000000 1.0
C      1  0.5308700000000  0.4938260000000  0.4880550000000 1.0
C      1  0.4691300000000  0.4938270000000  0.5119450000000 1.0
C      1  0.4880550000000  0.5061730000000  0.4691300000000 1.0
C      1  0.5119450000000  0.5061740000000  0.5308700000000 1.0
C      1  0.4880540000000  0.4938270000000  0.5308700000000 1.0
C      1  0.5119460000000  0.4938260000000  0.4691300000000 1.0
C      1  0.5392360000000  0.4488410000000  0.4412720000000 1.0
C      1  0.4607630000000  0.4488430000000  0.5587290000000 1.0
C      1  0.4607650000000  0.5511580000000  0.4412710000000 1.0
C      1  0.5392360000000  0.5511580000000  0.5587280000000 1.0
C      1  0.4412710000000  0.4488430000000  0.5392360000000 1.0
C      1  0.5587280000000  0.4488410000000  0.4607650000000 1.0
C      1  0.4412720000000  0.5511590000000  0.4607630000000 1.0
C      1  0.5587290000000  0.5511580000000  0.5392360000000 1.0
C      1  0.4913790000000  0.4244950000000  0.5276700000000 1.0
C      1  0.5086190000000  0.4244940000000  0.4723310000000 1.0
C      1  0.5086200000000  0.5755050000000  0.5276690000000 1.0
C      1  0.4913810000000  0.5755050000000  0.4723300000000 1.0
C      1  0.5276690000000  0.4244940000000  0.4913810000000 1.0
C      1  0.4723290000000  0.4244950000000  0.5086200000000 1.0
C      1  0.5276700000000  0.5755050000000  0.5086190000000 1.0
C      1  0.4723310000000  0.5755060000000  0.4913800000000 1.0
C      1  0.4645950000000  0.4386130000000  0.4851120000000 1.0
C      1  0.5354030000000  0.4386130000000  0.5148890000000 1.0
C      1  0.5354050000000  0.5613860000000  0.4851120000000 1.0
C      1  0.4645960000000  0.5613870000000  0.5148870000000 1.0
C      1  0.4851110000000  0.4386130000000  0.4645960000000 1.0
C      1  0.5148870000000  0.4386130000000  0.5354050000000 1.0
C      1  0.4851120000000  0.5613870000000  0.5354040000000 1.0
C      1  0.5148890000000  0.5613870000000  0.4645960000000 1.0
C      1  0.5567400000000  0.5416080000000  0.4873780000000 1.0
C      1  0.4432610000000  0.5416090000000  0.5126210000000 1.0
C      1  0.4432610000000  0.4583920000000  0.4873780000000 1.0
C      1  0.5567390000000  0.4583910000000  0.5126220000000 1.0
C      1  0.4873780000000  0.5416090000000  0.5567390000000 1.0
C      1  0.5126230000000  0.5416080000000  0.4432610000000 1.0
C      1  0.4873780000000  0.4583910000000  0.4432610000000 1.0
C      1  0.5126210000000  0.4583920000000  0.5567390000000 1.0
END
