TITL C-3201378-2706-1588 103048.769616442 125000 -1106.44632624545 0 0 184 (C1) n - 1
REM
REM in /home/nfs/bkarasulu/CARBON/AIRSS/Generating-Clusters/LCBOP/Higher-Symm/SD-CG/FIRE-CG
REM
REM
REM
REM
REM
REM ./C.cell (b20cbc046b6831c77cfcea5457e17084)
REM AIRSS Version 0.9.1 bugfix July 2018 build 013d7b7c2542+ Fri, 06 Jul 2018 19:26:36 +0100
REM compiler GCC version 9.2.1 20190827 (Red Hat 9.2.1-1)
REM options -cpp -mtune=generic -march=x86-64 -g -O0 -fpre-include=/usr/include/finclude/math-vector-fortran.h
REM seed -1366133187 1735725976 507664075 2137702744 -247299478 -420761703 -1301797668 1760154358 751608770 -572480896 1099257828 157003299 -1839678048 1406179443 -2058792890 -380080358 -730727468 -53888208 -11188078 2105322349 125094544 1165883069 -2043413552 -1159737738 -547184982 1709030090 -1847747100 -2096809148 -1823567681 -900404217 -797922188 897771344 282098660
REM
CELL 1.54180   50.00000   50.00000   50.00000   90.00000   90.00000   90.00000
LATT -1
SFAC C  
C      1  0.5532840000000  0.3914160000000  0.4880540000000 1.0
C      1  0.4617300000000  0.3870210000000  0.5122680000000 1.0
C      1  0.3927190000000  0.4463810000000  0.4886600000000 1.0
C      1  0.3835930000000  0.5373260000000  0.5097960000000 1.0
C      1  0.4467030000000  0.6078240000000  0.4904670000000 1.0
C      1  0.5385570000000  0.6150070000000  0.5131160000000 1.0
C      1  0.6052750000000  0.5541940000000  0.4895170000000 1.0
C      1  0.6139590000000  0.4631130000000  0.5070140000000 1.0
C      1  0.4550020000000  0.6032690000000  0.5188540000000 1.0
C      1  0.5397750000000  0.6047970000000  0.4853890000000 1.0
C      1  0.6041490000000  0.5488090000000  0.5187730000000 1.0
C      1  0.6048910000000  0.4606990000000  0.4787140000000 1.0
C      1  0.5444440000000  0.3983760000000  0.5153900000000 1.0
C      1  0.4584200000000  0.3941530000000  0.4833910000000 1.0
C      1  0.3970890000000  0.4552400000000  0.5169320000000 1.0
C      1  0.3889570000000  0.5400830000000  0.4801110000000 1.0
C      1  0.5087400000000  0.4776370000000  0.3815560000000 1.0
C      1  0.4957610000000  0.4825170000000  0.6115920000000 1.0
C      1  0.4838750000000  0.4863860000000  0.3968840000000 1.0
C      1  0.4750550000000  0.4977310000000  0.5985060000000 1.0
C      1  0.4797300000000  0.5170460000000  0.4012510000000 1.0
C      1  0.5236600000000  0.5241710000000  0.6198780000000 1.0
C      1  0.5278320000000  0.4981500000000  0.3770950000000 1.0
C      1  0.5238070000000  0.4963560000000  0.6082390000000 1.0
C      1  0.4644370000000  0.5524180000000  0.4798050000000 1.0
C      1  0.5171970000000  0.5545550000000  0.5298590000000 1.0
C      1  0.5473530000000  0.5256650000000  0.4865370000000 1.0
C      1  0.5637940000000  0.4839460000000  0.5368300000000 1.0
C      1  0.5298300000000  0.4412220000000  0.4613700000000 1.0
C      1  0.4835250000000  0.4480710000000  0.5186970000000 1.0
C      1  0.4511240000000  0.4732750000000  0.4766540000000 1.0
C      1  0.4446140000000  0.5172580000000  0.5142160000000 1.0
C      1  0.4399460000000  0.4924120000000  0.5278820000000 1.0
C      1  0.4424370000000  0.5363210000000  0.4674830000000 1.0
C      1  0.4930490000000  0.5643200000000  0.5418870000000 1.0
C      1  0.5313060000000  0.5490240000000  0.4770990000000 1.0
C      1  0.5665410000000  0.5127070000000  0.5413310000000 1.0
C      1  0.5502770000000  0.4579290000000  0.4501250000000 1.0
C      1  0.5068190000000  0.4421810000000  0.5334410000000 1.0
C      1  0.4650600000000  0.4486530000000  0.4666300000000 1.0
C      1  0.5233590000000  0.5504740000000  0.6143890000000 1.0
C      1  0.5445130000000  0.5160610000000  0.3880460000000 1.0
C      1  0.5482550000000  0.4793810000000  0.6134550000000 1.0
C      1  0.5173710000000  0.4504210000000  0.3853620000000 1.0
C      1  0.4877110000000  0.4551730000000  0.6133980000000 1.0
C      1  0.4562800000000  0.4771430000000  0.3895720000000 1.0
C      1  0.4559050000000  0.5163480000000  0.6078370000000 1.0
C      1  0.4787330000000  0.5427280000000  0.3891450000000 1.0
C      1  0.5046110000000  0.5184050000000  0.4411260000000 1.0
C      1  0.5270150000000  0.5016230000000  0.5771580000000 1.0
C      1  0.5151910000000  0.4919070000000  0.4367930000000 1.0
C      1  0.5064030000000  0.4843990000000  0.5644500000000 1.0
C      1  0.4925170000000  0.4759680000000  0.4255300000000 1.0
C      1  0.4781410000000  0.4965010000000  0.5678600000000 1.0
C      1  0.4784400000000  0.5203360000000  0.4300890000000 1.0
C      1  0.4778360000000  0.5253010000000  0.5620440000000 1.0
C      1  0.5676840000000  0.4849590000000  0.5076640000000 1.0
C      1  0.5389370000000  0.4407960000000  0.4894520000000 1.0
C      1  0.4827830000000  0.4331180000000  0.4932120000000 1.0
C      1  0.4417660000000  0.4659910000000  0.5029120000000 1.0
C      1  0.4295390000000  0.5176280000000  0.4894430000000 1.0
C      1  0.4508160000000  0.5609150000000  0.5036570000000 1.0
C      1  0.5157310000000  0.5635580000000  0.5011240000000 1.0
C      1  0.5594570000000  0.5350240000000  0.5121180000000 1.0
C      1  0.3996140000000  0.4598720000000  0.4621210000000 1.0
C      1  0.3991660000000  0.5438010000000  0.5356840000000 1.0
C      1  0.4599890000000  0.5982790000000  0.4649640000000 1.0
C      1  0.5440570000000  0.6009260000000  0.5393750000000 1.0
C      1  0.5955970000000  0.5379100000000  0.4658400000000 1.0
C      1  0.5997680000000  0.4584830000000  0.5338200000000 1.0
C      1  0.5397880000000  0.3968950000000  0.4611130000000 1.0
C      1  0.4576970000000  0.4036990000000  0.5374880000000 1.0
C      1  0.5460880000000  0.4665620000000  0.5487350000000 1.0
C      1  0.5062680000000  0.4384470000000  0.4480550000000 1.0
C      1  0.4672490000000  0.4594240000000  0.5388000000000 1.0
C      1  0.4472370000000  0.4923140000000  0.4556390000000 1.0
C      1  0.4541650000000  0.5417350000000  0.5243780000000 1.0
C      1  0.4871890000000  0.5552770000000  0.4639570000000 1.0
C      1  0.5333530000000  0.5425050000000  0.5501100000000 1.0
C      1  0.5509560000000  0.5065340000000  0.4650170000000 1.0
C      1  0.5119510000000  0.5882150000000  0.5835070000000 1.0
C      1  0.5569340000000  0.5456580000000  0.4264350000000 1.0
C      1  0.5857730000000  0.4909200000000  0.5839450000000 1.0
C      1  0.5517040000000  0.4271520000000  0.4131930000000 1.0
C      1  0.4921840000000  0.4215750000000  0.5789860000000 1.0
C      1  0.4349700000000  0.4474870000000  0.4203470000000 1.0
C      1  0.4209260000000  0.5113160000000  0.5758260000000 1.0
C      1  0.4479840000000  0.5638170000000  0.4203020000000 1.0
C      1  0.5268140000000  0.5028980000000  0.5184050000000 1.0
C      1  0.5399240000000  0.4856420000000  0.5009380000000 1.0
C      1  0.5251850000000  0.4633770000000  0.4983030000000 1.0
C      1  0.5024370000000  0.4703230000000  0.4847880000000 1.0
C      1  0.4907580000000  0.4902590000000  0.4729860000000 1.0
C      1  0.4825150000000  0.5130680000000  0.4824600000000 1.0
C      1  0.4878440000000  0.5223590000000  0.5062940000000 1.0
C      1  0.5034690000000  0.5124180000000  0.5248010000000 1.0
C      1  0.5201390000000  0.5990310000000  0.5569610000000 1.0
C      1  0.5739260000000  0.5503580000000  0.4501350000000 1.0
C      1  0.6012150000000  0.4851950000000  0.5582900000000 1.0
C      1  0.5573850000000  0.4140070000000  0.4402010000000 1.0
C      1  0.4825400000000  0.4079530000000  0.5541340000000 1.0
C      1  0.4200240000000  0.4453870000000  0.4457100000000 1.0
C      1  0.4066360000000  0.5199180000000  0.5516270000000 1.0
C      1  0.4436020000000  0.5797540000000  0.4455030000000 1.0
C      1  0.4781420000000  0.4078620000000  0.4257420000000 1.0
C      1  0.4260200000000  0.4537980000000  0.5718890000000 1.0
C      1  0.4091120000000  0.5182440000000  0.4249220000000 1.0
C      1  0.4530110000000  0.5796270000000  0.5720610000000 1.0
C      1  0.5172060000000  0.5851460000000  0.4309440000000 1.0
C      1  0.5791520000000  0.5531410000000  0.5769480000000 1.0
C      1  0.5879760000000  0.4781600000000  0.4282720000000 1.0
C      1  0.5498900000000  0.4257000000000  0.5702080000000 1.0
C      1  0.4336700000000  0.5354030000000  0.4227440000000 1.0
C      1  0.4808430000000  0.5861830000000  0.5840470000000 1.0
C      1  0.5302610000000  0.5585800000000  0.4312340000000 1.0
C      1  0.5728800000000  0.5241870000000  0.5836630000000 1.0
C      1  0.5741850000000  0.4539380000000  0.4125140000000 1.0
C      1  0.5207590000000  0.4331370000000  0.5754290000000 1.0
C      1  0.4625670000000  0.4337630000000  0.4226890000000 1.0
C      1  0.4319330000000  0.4828780000000  0.5720620000000 1.0
C      1  0.4221650000000  0.5696640000000  0.5036650000000 1.0
C      1  0.4966120000000  0.5872930000000  0.4965600000000 1.0
C      1  0.5620490000000  0.5659750000000  0.5114380000000 1.0
C      1  0.5912380000000  0.5031690000000  0.4991720000000 1.0
C      1  0.5670640000000  0.4374560000000  0.4986440000000 1.0
C      1  0.5022210000000  0.4099420000000  0.4914070000000 1.0
C      1  0.4380090000000  0.4355840000000  0.5065760000000 1.0
C      1  0.4070140000000  0.4976830000000  0.4900460000000 1.0
C      1  0.4741310000000  0.4368720000000  0.5956640000000 1.0
C      1  0.4327140000000  0.4716820000000  0.4046740000000 1.0
C      1  0.4360980000000  0.5296510000000  0.5921880000000 1.0
C      1  0.4726390000000  0.5663680000000  0.4048640000000 1.0
C      1  0.5315810000000  0.5718260000000  0.5975790000000 1.0
C      1  0.5620230000000  0.5233850000000  0.4089810000000 1.0
C      1  0.5696160000000  0.4701850000000  0.5965420000000 1.0
C      1  0.5249770000000  0.4275670000000  0.4011930000000 1.0
C      1  0.4161940000000  0.4420430000000  0.5454440000000 1.0
C      1  0.3938820000000  0.5166310000000  0.4518560000000 1.0
C      1  0.4395090000000  0.5871890000000  0.5442980000000 1.0
C      1  0.5162920000000  0.5999740000000  0.4576150000000 1.0
C      1  0.5870090000000  0.5629460000000  0.5484720000000 1.0
C      1  0.6002530000000  0.4820630000000  0.4571360000000 1.0
C      1  0.5593740000000  0.4176710000000  0.5414780000000 1.0
C      1  0.4806250000000  0.3949640000000  0.4542860000000 1.0
C      1  0.4837930000000  0.6007690000000  0.5187460000000 1.0
C      1  0.5588240000000  0.5831830000000  0.4876120000000 1.0
C      1  0.6051230000000  0.5198830000000  0.5197030000000 1.0
C      1  0.5855910000000  0.4396340000000  0.4768100000000 1.0
C      1  0.5160500000000  0.4011060000000  0.5151160000000 1.0
C      1  0.4393100000000  0.4160070000000  0.4844890000000 1.0
C      1  0.3976880000000  0.4841040000000  0.5142390000000 1.0
C      1  0.4068540000000  0.5630890000000  0.4798810000000 1.0
C      1  0.5488280000000  0.5201430000000  0.5640640000000 1.0
C      1  0.5410380000000  0.4855590000000  0.4480880000000 1.0
C      1  0.5183780000000  0.4576080000000  0.5557640000000 1.0
C      1  0.4809410000000  0.4519120000000  0.4404310000000 1.0
C      1  0.4558990000000  0.4834250000000  0.5515040000000 1.0
C      1  0.4516700000000  0.5202330000000  0.4438680000000 1.0
C      1  0.4726330000000  0.5458610000000  0.5447520000000 1.0
C      1  0.5135960000000  0.5438920000000  0.4533580000000 1.0
C      1  0.5051100000000  0.4135180000000  0.5370580000000 1.0
C      1  0.4397070000000  0.4317580000000  0.4615900000000 1.0
C      1  0.4108260000000  0.4967540000000  0.5352660000000 1.0
C      1  0.4253150000000  0.5611980000000  0.4590740000000 1.0
C      1  0.4961460000000  0.5928920000000  0.5421980000000 1.0
C      1  0.5557050000000  0.5653590000000  0.4666560000000 1.0
C      1  0.5974510000000  0.5111300000000  0.5450150000000 1.0
C      1  0.5721910000000  0.4373330000000  0.4524960000000 1.0
C      1  0.4937140000000  0.5842170000000  0.4136000000000 1.0
C      1  0.5596150000000  0.5708170000000  0.5901610000000 1.0
C      1  0.5815530000000  0.5037920000000  0.4158240000000 1.0
C      1  0.5675540000000  0.4430560000000  0.5862440000000 1.0
C      1  0.5033060000000  0.4095590000000  0.4097370000000 1.0
C      1  0.4461260000000  0.4395190000000  0.5880300000000 1.0
C      1  0.4136880000000  0.4927500000000  0.4107290000000 1.0
C      1  0.4395480000000  0.5573390000000  0.5857970000000 1.0
C      1  0.4898560000000  0.5967080000000  0.4699210000000 1.0
C      1  0.5654740000000  0.5798310000000  0.5364880000000 1.0
C      1  0.5972790000000  0.5085270000000  0.4709980000000 1.0
C      1  0.5769410000000  0.4369930000000  0.5270040000000 1.0
C      1  0.5086060000000  0.3971990000000  0.4657600000000 1.0
C      1  0.4362250000000  0.4242450000000  0.5331720000000 1.0
C      1  0.3968820000000  0.4896880000000  0.4644230000000 1.0
C      1  0.4157440000000  0.5693090000000  0.5328880000000 1.0
END
