TITL C-3201373-1215-1216 -8.66940640600759e-09 125000 -780.07072713939 0 0 129 (C1) n - 1
REM
REM in /home/nfs/bkarasulu/CARBON/AIRSS/Generating-Clusters/LCBOP/Higher-Symm/SD-CG/FIRE-CG
REM
REM
REM
REM
REM
REM ./C.cell (b20cbc046b6831c77cfcea5457e17084)
REM AIRSS Version 0.9.1 bugfix July 2018 build 013d7b7c2542+ Fri, 06 Jul 2018 19:26:36 +0100
REM compiler GCC version 9.2.1 20190827 (Red Hat 9.2.1-1)
REM options -cpp -mtune=generic -march=x86-64 -g -O0 -fpre-include=/usr/include/finclude/math-vector-fortran.h
REM seed 1605415454 1364945013 -1055469397 665333205 1071310496 1273462991 1505008844 1109074794 2017393348 -1519796779 -1068435827 -1120476669 -2095824874 161080908 -388047587 337502212 1057193595 256735463 1125133135 -849041715 712507673 -1189882293 -610303093 456729679 86698470 -1271837661 1783138571 -1181377213 168450180 745830657 -138824994 2049085917 -1783603461
REM
CELL 1.54180   50.00000   50.00000   50.00000   90.00000   90.00000   90.00000
LATT -1
SFAC C  
C      1  0.5241760000000  0.5580160000000  0.5834210000000 1.0
C      1  0.5356570000000  0.4571530000000  0.4231900000000 1.0
C      1  0.4606010000000  0.5880510000000  0.4750840000000 1.0
C      1  0.4640550000000  0.4129850000000  0.5145890000000 1.0
C      1  0.4784380000000  0.5427440000000  0.5555920000000 1.0
C      1  0.4856450000000  0.5079860000000  0.4391180000000 1.0
C      1  0.4635930000000  0.4960090000000  0.4284430000000 1.0
C      1  0.4650040000000  0.5177340000000  0.5551720000000 1.0
C      1  0.5455260000000  0.5332670000000  0.5038610000000 1.0
C      1  0.5485490000000  0.4528530000000  0.5218730000000 1.0
C      1  0.4961340000000  0.5327030000000  0.5149770000000 1.0
C      1  0.4757480000000  0.4422180000000  0.4765440000000 1.0
C      1  0.4605240000000  0.5233700000000  0.4820390000000 1.0
C      1  0.4589200000000  0.4835500000000  0.5141980000000 1.0
C      1  0.4140550000000  0.5067680000000  0.4336130000000 1.0
C      1  0.4211550000000  0.4849870000000  0.5803800000000 1.0
C      1  0.4215290000000  0.5362130000000  0.5704240000000 1.0
C      1  0.4220420000000  0.4513120000000  0.4292580000000 1.0
C      1  0.5806650000000  0.3889860000000  0.5108230000000 1.0
C      1  0.5801240000000  0.5947800000000  0.4874270000000 1.0
C      1  0.6021150000000  0.4862750000000  0.5387310000000 1.0
C      1  0.6049160000000  0.5161170000000  0.4698250000000 1.0
C      1  0.5663680000000  0.4116610000000  0.5039230000000 1.0
C      1  0.5647810000000  0.5771570000000  0.5010960000000 1.0
C      1  0.6036330000000  0.4694100000000  0.4831990000000 1.0
C      1  0.6005690000000  0.5334820000000  0.5249430000000 1.0
C      1  0.4317220000000  0.5534250000000  0.4513480000000 1.0
C      1  0.4277380000000  0.4584730000000  0.5421670000000 1.0
C      1  0.5130260000000  0.4886730000000  0.5781680000000 1.0
C      1  0.5278670000000  0.5222120000000  0.4259490000000 1.0
C      1  0.5456480000000  0.4248410000000  0.4628840000000 1.0
C      1  0.5367750000000  0.5798710000000  0.5396240000000 1.0
C      1  0.4336770000000  0.4868990000000  0.4956880000000 1.0
C      1  0.4333320000000  0.5133180000000  0.4851860000000 1.0
C      1  0.4847210000000  0.4816580000000  0.5798620000000 1.0
C      1  0.3984170000000  0.5506000000000  0.3920310000000 1.0
C      1  0.5193910000000  0.5949710000000  0.5222500000000 1.0
C      1  0.5254240000000  0.4073680000000  0.4738810000000 1.0
C      1  0.4199290000000  0.4338330000000  0.4526980000000 1.0
C      1  0.4222610000000  0.5501340000000  0.5444790000000 1.0
C      1  0.5195210000000  0.5700450000000  0.4807990000000 1.0
C      1  0.5184150000000  0.4149650000000  0.5230000000000 1.0
C      1  0.5699190000000  0.4266950000000  0.4792580000000 1.0
C      1  0.5640260000000  0.5741620000000  0.5298380000000 1.0
C      1  0.4230650000000  0.4795770000000  0.4376230000000 1.0
C      1  0.4117190000000  0.5094790000000  0.5733680000000 1.0
C      1  0.4824160000000  0.4357340000000  0.5556530000000 1.0
C      1  0.4460540000000  0.5495540000000  0.3903010000000 1.0
C      1  0.5122720000000  0.5365870000000  0.5984110000000 1.0
C      1  0.5126910000000  0.4729490000000  0.4155250000000 1.0
C      1  0.5295250000000  0.4258060000000  0.5700200000000 1.0
C      1  0.5317230000000  0.5474480000000  0.4385510000000 1.0
C      1  0.4102940000000  0.4469740000000  0.4764050000000 1.0
C      1  0.4104960000000  0.5390580000000  0.5207260000000 1.0
C      1  0.5348080000000  0.4479320000000  0.4499990000000 1.0
C      1  0.5223590000000  0.5602020000000  0.5546550000000 1.0
C      1  0.4137330000000  0.4658250000000  0.4973950000000 1.0
C      1  0.4151590000000  0.5341980000000  0.4929700000000 1.0
C      1  0.4579920000000  0.5676700000000  0.4553570000000 1.0
C      1  0.4659260000000  0.4340490000000  0.5324440000000 1.0
C      1  0.5462190000000  0.4241660000000  0.5199790000000 1.0
C      1  0.5444520000000  0.5592050000000  0.4913690000000 1.0
C      1  0.4575010000000  0.5104640000000  0.5292190000000 1.0
C      1  0.4501520000000  0.4803750000000  0.4476640000000 1.0
C      1  0.5561340000000  0.4517670000000  0.4060320000000 1.0
C      1  0.5367050000000  0.5786010000000  0.5977020000000 1.0
C      1  0.4225820000000  0.5450170000000  0.4036650000000 1.0
C      1  0.4706430000000  0.4574710000000  0.5730100000000 1.0
C      1  0.5083320000000  0.4225430000000  0.5508630000000 1.0
C      1  0.5110020000000  0.5601860000000  0.4550350000000 1.0
C      1  0.5178680000000  0.4626050000000  0.4659410000000 1.0
C      1  0.5017810000000  0.5462580000000  0.5401880000000 1.0
C      1  0.5038960000000  0.4651240000000  0.5209520000000 1.0
C      1  0.5061890000000  0.5084400000000  0.5028940000000 1.0
C      1  0.4584260000000  0.4002970000000  0.4682160000000 1.0
C      1  0.4585920000000  0.5841460000000  0.5232400000000 1.0
C      1  0.4326880000000  0.4219440000000  0.3911140000000 1.0
C      1  0.5475960000000  0.5984790000000  0.6105630000000 1.0
C      1  0.4862060000000  0.5389140000000  0.6096630000000 1.0
C      1  0.4909540000000  0.4577480000000  0.4033280000000 1.0
C      1  0.5585020000000  0.5561680000000  0.4392490000000 1.0
C      1  0.5538710000000  0.4364280000000  0.5748790000000 1.0
C      1  0.4362300000000  0.4106030000000  0.4560580000000 1.0
C      1  0.4400260000000  0.5720420000000  0.5388070000000 1.0
C      1  0.4128080000000  0.5549380000000  0.4733500000000 1.0
C      1  0.4054600000000  0.4599940000000  0.5246230000000 1.0
C      1  0.5458720000000  0.5084660000000  0.5479070000000 1.0
C      1  0.5487520000000  0.4889610000000  0.4886190000000 1.0
C      1  0.4520340000000  0.4576020000000  0.5274120000000 1.0
C      1  0.4784230000000  0.5260440000000  0.4596330000000 1.0
C      1  0.5754840000000  0.4514100000000  0.5690280000000 1.0
C      1  0.5863050000000  0.5524550000000  0.4413440000000 1.0
C      1  0.4395420000000  0.5423200000000  0.5921710000000 1.0
C      1  0.4391380000000  0.4439930000000  0.4061990000000 1.0
C      1  0.5100560000000  0.5005090000000  0.4264190000000 1.0
C      1  0.5210820000000  0.5098450000000  0.5955540000000 1.0
C      1  0.5324970000000  0.5106130000000  0.4935910000000 1.0
C      1  0.5298120000000  0.4863320000000  0.5549940000000 1.0
C      1  0.5602960000000  0.4664770000000  0.5000000000000 1.0
C      1  0.5550140000000  0.5287810000000  0.5309180000000 1.0
C      1  0.3939250000000  0.5746170000000  0.4747330000000 1.0
C      1  0.3795200000000  0.4566490000000  0.5321220000000 1.0
C      1  0.4623400000000  0.4601050000000  0.3989110000000 1.0
C      1  0.4626350000000  0.5267710000000  0.5996460000000 1.0
C      1  0.5806600000000  0.4531040000000  0.4849050000000 1.0
C      1  0.5772690000000  0.5477130000000  0.5391880000000 1.0
C      1  0.4678770000000  0.5050390000000  0.5805240000000 1.0
C      1  0.4582030000000  0.4882840000000  0.4020710000000 1.0
C      1  0.4747230000000  0.5881610000000  0.4999190000000 1.0
C      1  0.4771360000000  0.4140100000000  0.4879550000000 1.0
C      1  0.4232110000000  0.5345620000000  0.4302630000000 1.0
C      1  0.4361700000000  0.4639960000000  0.5689460000000 1.0
C      1  0.6069400000000  0.4970930000000  0.4905320000000 1.0
C      1  0.6051400000000  0.5057440000000  0.5181300000000 1.0
C      1  0.5916660000000  0.4684570000000  0.5559310000000 1.0
C      1  0.5970000000000  0.5262190000000  0.4448550000000 1.0
C      1  0.5832710000000  0.5489030000000  0.5680500000000 1.0
C      1  0.5999260000000  0.5099840000000  0.4222230000000 1.0
C      1  0.6033710000000  0.5736610000000  0.4383540000000 1.0
C      1  0.5938480000000  0.3675820000000  0.5176880000000 1.0
C      1  0.4641600000000  0.4624070000000  0.4636750000000 1.0
C      1  0.4682330000000  0.5295560000000  0.5091020000000 1.0
C      1  0.5277370000000  0.4663820000000  0.5352250000000 1.0
C      1  0.4830490000000  0.5531190000000  0.4526950000000 1.0
C      1  0.5066590000000  0.4085220000000  0.4958540000000 1.0
C      1  0.5038860000000  0.5863470000000  0.4996280000000 1.0
C      1  0.6043720000000  0.4964540000000  0.4004010000000 1.0
C      1  0.5920290000000  0.5463790000000  0.5924560000000 1.0
C      1  0.4895990000000  0.4846960000000  0.5074280000000 1.0
END
