TITL C-3201377-4638-1568 -3.22095001002275e-07 125000 -359.319229168237 0 0 59 (C1) n - 1
REM
REM in /home/nfs/bkarasulu/CARBON/AIRSS/Generating-Clusters/LCBOP/Higher-Symm/SD-CG/FIRE-CG
REM
REM
REM
REM
REM
REM ./C.cell (b20cbc046b6831c77cfcea5457e17084)
REM AIRSS Version 0.9.1 bugfix July 2018 build 013d7b7c2542+ Fri, 06 Jul 2018 19:26:36 +0100
REM compiler GCC version 9.2.1 20190827 (Red Hat 9.2.1-1)
REM options -cpp -mtune=generic -march=x86-64 -g -O0 -fpre-include=/usr/include/finclude/math-vector-fortran.h
REM seed -872502868 1475446456 42510734 -975919133 609457656 -312026942 -1185158374 630267974 184048476 1123136361 -1242320624 937677161 -1742928080 2117697866 -989652189 -166094202 -190129971 660854200 -928676479 750121017 -386221850 -1751580729 131645951 2145477696 1593027 -1777743694 1735284708 -522968537 -623117074 84709476 -210093906 -428628239 -957841000
REM
CELL 1.54180   50.00000   50.00000   50.00000   90.00000   90.00000   90.00000
LATT -1
SFAC C  
C      1  0.4903970000000  0.5277600000000  0.4464790000000 1.0
C      1  0.5272370000000  0.4935580000000  0.4516490000000 1.0
C      1  0.4805140000000  0.4792240000000  0.4495570000000 1.0
C      1  0.5197030000000  0.4892850000000  0.5144670000000 1.0
C      1  0.4721040000000  0.4896820000000  0.5100490000000 1.0
C      1  0.4972380000000  0.5325060000000  0.5068090000000 1.0
C      1  0.5092950000000  0.4480880000000  0.5546090000000 1.0
C      1  0.4560970000000  0.5197180000000  0.5587590000000 1.0
C      1  0.5423130000000  0.5270040000000  0.5589750000000 1.0
C      1  0.4714220000000  0.4133710000000  0.4698370000000 1.0
C      1  0.4354890000000  0.5697910000000  0.4771380000000 1.0
C      1  0.5906030000000  0.5118880000000  0.4719350000000 1.0
C      1  0.5441540000000  0.4774770000000  0.5731860000000 1.0
C      1  0.4631100000000  0.4710750000000  0.5617780000000 1.0
C      1  0.4985380000000  0.5473670000000  0.5682770000000 1.0
C      1  0.5191920000000  0.5179280000000  0.5154130000000 1.0
C      1  0.4946160000000  0.4791640000000  0.5236210000000 1.0
C      1  0.4726230000000  0.5177000000000  0.5094330000000 1.0
C      1  0.5310380000000  0.5019670000000  0.5679670000000 1.0
C      1  0.4916160000000  0.4726690000000  0.5530130000000 1.0
C      1  0.4841520000000  0.5230420000000  0.5658660000000 1.0
C      1  0.5423970000000  0.4560900000000  0.4779290000000 1.0
C      1  0.4379030000000  0.4794890000000  0.4718070000000 1.0
C      1  0.5124200000000  0.5658830000000  0.4661650000000 1.0
C      1  0.5063910000000  0.4306400000000  0.5322430000000 1.0
C      1  0.4427370000000  0.5350010000000  0.5379700000000 1.0
C      1  0.5605620000000  0.5287730000000  0.5372710000000 1.0
C      1  0.4734970000000  0.5401520000000  0.4682260000000 1.0
C      1  0.5432570000000  0.5023210000000  0.4753990000000 1.0
C      1  0.4805020000000  0.4605720000000  0.4731660000000 1.0
C      1  0.5104100000000  0.5937440000000  0.4652270000000 1.0
C      1  0.5651530000000  0.4402450000000  0.4811390000000 1.0
C      1  0.4141690000000  0.4648500000000  0.4724700000000 1.0
C      1  0.5664680000000  0.5279330000000  0.5109370000000 1.0
C      1  0.4999220000000  0.4284950000000  0.5061540000000 1.0
C      1  0.4490320000000  0.5339630000000  0.5099070000000 1.0
C      1  0.5107470000000  0.5487000000000  0.4427380000000 1.0
C      1  0.5335680000000  0.4648120000000  0.4515080000000 1.0
C      1  0.4520110000000  0.4854270000000  0.4470540000000 1.0
C      1  0.4601080000000  0.4740500000000  0.4901940000000 1.0
C      1  0.4961770000000  0.5513360000000  0.4855890000000 1.0
C      1  0.5370440000000  0.4796880000000  0.4944890000000 1.0
C      1  0.4210670000000  0.4158950000000  0.4651620000000 1.0
C      1  0.4631820000000  0.6111970000000  0.4675760000000 1.0
C      1  0.6078330000000  0.4644520000000  0.4713610000000 1.0
C      1  0.4898850000000  0.6110520000000  0.4654460000000 1.0
C      1  0.5914490000000  0.4441310000000  0.4774380000000 1.0
C      1  0.4079890000000  0.4389720000000  0.4689670000000 1.0
C      1  0.5255610000000  0.5492180000000  0.5654450000000 1.0
C      1  0.5336110000000  0.4528870000000  0.5684510000000 1.0
C      1  0.4470660000000  0.4930950000000  0.5640240000000 1.0
C      1  0.5659110000000  0.5175540000000  0.4843000000000 1.0
C      1  0.4867850000000  0.4339430000000  0.4815090000000 1.0
C      1  0.4485930000000  0.5456930000000  0.4831330000000 1.0
C      1  0.4460940000000  0.4064200000000  0.4647580000000 1.0
C      1  0.4421240000000  0.5951750000000  0.4716530000000 1.0
C      1  0.6070100000000  0.4910380000000  0.4682530000000 1.0
C      1  0.5018810000000  0.4993530000000  0.5658380000000 1.0
C      1  0.4996440000000  0.5004190000000  0.4465950000000 1.0
END
