TITL C-3201376-6384-40 953.692305877138 125000 -442.081234565074 0 0 77 (C1) n - 1
REM
REM in /home/nfs/bkarasulu/CARBON/AIRSS/Generating-Clusters/LCBOP/Higher-Symm/SD-CG/FIRE-CG
REM
REM
REM
REM
REM
REM ./C.cell (b20cbc046b6831c77cfcea5457e17084)
REM AIRSS Version 0.9.1 bugfix July 2018 build 013d7b7c2542+ Fri, 06 Jul 2018 19:26:36 +0100
REM compiler GCC version 9.2.1 20190827 (Red Hat 9.2.1-1)
REM options -cpp -mtune=generic -march=x86-64 -g -O0 -fpre-include=/usr/include/finclude/math-vector-fortran.h
REM seed 256682085 -1464492257 -22960426 210505729 -466242447 1825571361 1646483558 221731899 -740704598 1594734819 1697511539 231467282 1513289767 -551441539 722554293 -1880836667 617867156 110886782 148044343 1060315282 1436671838 -854818561 -1423965440 4500142 -2018428241 658990250 -1275995311 1860174314 6983857 2060917130 -83844702 660763621 -788512454
REM
CELL 1.54180   50.00000   50.00000   50.00000   90.00000   90.00000   90.00000
LATT -1
SFAC C  
C      1  0.4300290000000  0.4595400000000  0.5296690000000 1.0
C      1  0.5636890000000  0.5475020000000  0.5280200000000 1.0
C      1  0.4301020000000  0.4592290000000  0.4701990000000 1.0
C      1  0.5640550000000  0.5471030000000  0.4716350000000 1.0
C      1  0.5335420000000  0.4998800000000  0.4256320000000 1.0
C      1  0.4772410000000  0.4987060000000  0.4235310000000 1.0
C      1  0.5339150000000  0.4997770000000  0.5744740000000 1.0
C      1  0.4774230000000  0.4983800000000  0.5768720000000 1.0
C      1  0.5353740000000  0.4826140000000  0.6204820000000 1.0
C      1  0.4804730000000  0.5031920000000  0.6256230000000 1.0
C      1  0.5346810000000  0.4822560000000  0.3797710000000 1.0
C      1  0.4801110000000  0.5042920000000  0.3748300000000 1.0
C      1  0.5473130000000  0.5402080000000  0.4498810000000 1.0
C      1  0.4485230000000  0.4686020000000  0.4504670000000 1.0
C      1  0.5476680000000  0.5405550000000  0.5506640000000 1.0
C      1  0.4483580000000  0.4687410000000  0.5496400000000 1.0
C      1  0.5206090000000  0.4935490000000  0.4009870000000 1.0
C      1  0.4922880000000  0.4987600000000  0.3992820000000 1.0
C      1  0.5210580000000  0.4934940000000  0.5992010000000 1.0
C      1  0.4926360000000  0.4982520000000  0.6010290000000 1.0
C      1  0.4527320000000  0.4845470000000  0.5725010000000 1.0
C      1  0.5513020000000  0.5218040000000  0.5710960000000 1.0
C      1  0.4527160000000  0.4846330000000  0.4277780000000 1.0
C      1  0.5505750000000  0.5221160000000  0.4289030000000 1.0
C      1  0.5424630000000  0.5741350000000  0.5133160000000 1.0
C      1  0.4509870000000  0.4331760000000  0.5142210000000 1.0
C      1  0.5425520000000  0.5728970000000  0.4859830000000 1.0
C      1  0.4510870000000  0.4329870000000  0.4858190000000 1.0
C      1  0.5137910000000  0.4578300000000  0.5139810000000 1.0
C      1  0.4791310000000  0.5349480000000  0.5142310000000 1.0
C      1  0.5138620000000  0.4579590000000  0.4860370000000 1.0
C      1  0.4795930000000  0.5345970000000  0.4864130000000 1.0
C      1  0.4919070000000  0.5048700000000  0.4474830000000 1.0
C      1  0.5184500000000  0.4938950000000  0.4492750000000 1.0
C      1  0.4920210000000  0.5048030000000  0.5529550000000 1.0
C      1  0.5185910000000  0.4937540000000  0.5509500000000 1.0
C      1  0.5452550000000  0.4402860000000  0.5383580000000 1.0
C      1  0.4502500000000  0.5603230000000  0.5361750000000 1.0
C      1  0.5455000000000  0.4407700000000  0.4616570000000 1.0
C      1  0.4521010000000  0.5598190000000  0.4626440000000 1.0
C      1  0.4800340000000  0.5596430000000  0.4714040000000 1.0
C      1  0.5075620000000  0.4362310000000  0.4704580000000 1.0
C      1  0.4782480000000  0.5603990000000  0.5282100000000 1.0
C      1  0.5073390000000  0.4360890000000  0.5295090000000 1.0
C      1  0.4752820000000  0.4860060000000  0.4861370000000 1.0
C      1  0.5216840000000  0.5313620000000  0.4885950000000 1.0
C      1  0.4752890000000  0.4861830000000  0.5143190000000 1.0
C      1  0.5212440000000  0.5303720000000  0.5132270000000 1.0
C      1  0.4728160000000  0.4657200000000  0.5344560000000 1.0
C      1  0.5213410000000  0.5423960000000  0.5390130000000 1.0
C      1  0.4728900000000  0.4656670000000  0.4658060000000 1.0
C      1  0.5217080000000  0.5424610000000  0.4628190000000 1.0
C      1  0.4320330000000  0.5401090000000  0.5299320000000 1.0
C      1  0.5561080000000  0.4672460000000  0.5301110000000 1.0
C      1  0.4333580000000  0.5399900000000  0.4689570000000 1.0
C      1  0.5561940000000  0.4677900000000  0.4700620000000 1.0
C      1  0.4246370000000  0.5187000000000  0.4856250000000 1.0
C      1  0.5741890000000  0.4860380000000  0.4857020000000 1.0
C      1  0.4242640000000  0.5185280000000  0.5131770000000 1.0
C      1  0.5742130000000  0.4854530000000  0.5146660000000 1.0
C      1  0.5747720000000  0.5246430000000  0.5137140000000 1.0
C      1  0.4190540000000  0.4798100000000  0.5133930000000 1.0
C      1  0.5749400000000  0.5244190000000  0.4860900000000 1.0
C      1  0.4190330000000  0.4795070000000  0.4863540000000 1.0
C      1  0.5287530000000  0.4815220000000  0.4748220000000 1.0
C      1  0.4801070000000  0.5103890000000  0.4724710000000 1.0
C      1  0.5288010000000  0.4811640000000  0.5254070000000 1.0
C      1  0.4799710000000  0.5106480000000  0.5281140000000 1.0
C      1  0.4775170000000  0.4375630000000  0.4717950000000 1.0
C      1  0.5089390000000  0.5676840000000  0.4677040000000 1.0
C      1  0.4773640000000  0.4376460000000  0.5283260000000 1.0
C      1  0.5125190000000  0.5683620000000  0.5321640000000 1.0
C      1  0.5485870000000  0.4726190000000  0.6405970000000 1.0
C      1  0.4693040000000  0.5074980000000  0.6487710000000 1.0
C      1  0.5476580000000  0.4718650000000  0.3597020000000 1.0
C      1  0.4689330000000  0.5091470000000  0.3517950000000 1.0
C      1  0.5330290000000  0.4951420000000  0.5002070000000 1.0
END
