TITL C-3201375-1262-790 -0.01354257448579 125000 -621.55271981342 0 0 102 (C1) n - 1
REM
REM in /home/nfs/bkarasulu/CARBON/AIRSS/Generating-Clusters/LCBOP/Higher-Symm/SD-CG/FIRE-CG
REM
REM
REM
REM
REM
REM ./C.cell (b20cbc046b6831c77cfcea5457e17084)
REM AIRSS Version 0.9.1 bugfix July 2018 build 013d7b7c2542+ Fri, 06 Jul 2018 19:26:36 +0100
REM compiler GCC version 9.2.1 20190827 (Red Hat 9.2.1-1)
REM options -cpp -mtune=generic -march=x86-64 -g -O0 -fpre-include=/usr/include/finclude/math-vector-fortran.h
REM seed -1976647697 1181961004 -59010065 -1023587901 -1870516842 513701380 1157878602 2381614 -1577826315 283608625 -1633484133 -1418865160 -1853770167 1440430203 -341852513 119656452 812904062 -1947401767 -1038241725 1027972673 529524142 1749654533 816402897 24617268 -1660424136 1850719920 1138048615 1946372802 -902131982 -2042663398 243357572 1235607954 312407478
REM
CELL 1.54180   50.00000   50.00000   50.00000   90.00000   90.00000   90.00000
LATT -1
SFAC C  
C      1  0.4508320000000  0.5120840000000  0.4766970000000 1.0
C      1  0.4842500000000  0.4641190000000  0.5101710000000 1.0
C      1  0.5025790000000  0.4677540000000  0.4885380000000 1.0
C      1  0.6022830000000  0.5299470000000  0.5982390000000 1.0
C      1  0.5066230000000  0.5158310000000  0.4694550000000 1.0
C      1  0.4538300000000  0.5112880000000  0.5050270000000 1.0
C      1  0.5247240000000  0.5478990000000  0.4054060000000 1.0
C      1  0.4848590000000  0.5167140000000  0.5677530000000 1.0
C      1  0.4393980000000  0.5718950000000  0.4451250000000 1.0
C      1  0.4213040000000  0.4659860000000  0.5393240000000 1.0
C      1  0.5340590000000  0.4019930000000  0.4647650000000 1.0
C      1  0.6215530000000  0.5096520000000  0.5381320000000 1.0
C      1  0.4205090000000  0.4953590000000  0.4275600000000 1.0
C      1  0.4470130000000  0.4098970000000  0.5272350000000 1.0
C      1  0.6060490000000  0.4059230000000  0.5226820000000 1.0
C      1  0.6194640000000  0.5495650000000  0.4540870000000 1.0
C      1  0.5186430000000  0.5851090000000  0.4726230000000 1.0
C      1  0.4049250000000  0.5302210000000  0.5481690000000 1.0
C      1  0.5042030000000  0.5650460000000  0.4082150000000 1.0
C      1  0.4634360000000  0.5049390000000  0.5789080000000 1.0
C      1  0.4600650000000  0.5609910000000  0.4289650000000 1.0
C      1  0.4346510000000  0.4679800000000  0.5640090000000 1.0
C      1  0.5587180000000  0.3927960000000  0.4681910000000 1.0
C      1  0.6304310000000  0.5292710000000  0.5225780000000 1.0
C      1  0.5892100000000  0.5530900000000  0.5964550000000 1.0
C      1  0.4906170000000  0.5364040000000  0.4809270000000 1.0
C      1  0.4289490000000  0.5092360000000  0.5171040000000 1.0
C      1  0.4613310000000  0.4926400000000  0.4594870000000 1.0
C      1  0.4962290000000  0.4622780000000  0.5355600000000 1.0
C      1  0.5167610000000  0.4918140000000  0.4820330000000 1.0
C      1  0.5840000000000  0.5290530000000  0.4253880000000 1.0
C      1  0.5127280000000  0.5603530000000  0.5136430000000 1.0
C      1  0.4078070000000  0.5666440000000  0.5144350000000 1.0
C      1  0.4113710000000  0.4617580000000  0.4660170000000 1.0
C      1  0.4704470000000  0.3966810000000  0.4859220000000 1.0
C      1  0.6050520000000  0.4482410000000  0.5477670000000 1.0
C      1  0.5999590000000  0.3947120000000  0.4993310000000 1.0
C      1  0.6296400000000  0.5557400000000  0.4780390000000 1.0
C      1  0.5004350000000  0.5825720000000  0.4526410000000 1.0
C      1  0.4166530000000  0.5147370000000  0.5695380000000 1.0
C      1  0.4366500000000  0.5142700000000  0.4168380000000 1.0
C      1  0.4498360000000  0.4216530000000  0.5514610000000 1.0
C      1  0.4525050000000  0.4429400000000  0.4464530000000 1.0
C      1  0.5434180000000  0.4545430000000  0.5591100000000 1.0
C      1  0.5653300000000  0.4834150000000  0.4617260000000 1.0
C      1  0.5570680000000  0.5684780000000  0.5581790000000 1.0
C      1  0.4674250000000  0.5725580000000  0.5125970000000 1.0
C      1  0.3821790000000  0.5037700000000  0.5072280000000 1.0
C      1  0.5291010000000  0.5784580000000  0.4985000000000 1.0
C      1  0.4131180000000  0.5570850000000  0.5413580000000 1.0
C      1  0.4047310000000  0.4847760000000  0.4489320000000 1.0
C      1  0.4471230000000  0.4062850000000  0.4989740000000 1.0
C      1  0.5970400000000  0.4214590000000  0.5440200000000 1.0
C      1  0.6061110000000  0.5275760000000  0.4430430000000 1.0
C      1  0.5592400000000  0.5154320000000  0.4234030000000 1.0
C      1  0.5147630000000  0.5442350000000  0.5373880000000 1.0
C      1  0.4235850000000  0.5732790000000  0.4914540000000 1.0
C      1  0.4066670000000  0.4638870000000  0.4942390000000 1.0
C      1  0.4849350000000  0.4076130000000  0.4642010000000 1.0
C      1  0.5931420000000  0.4729640000000  0.5544280000000 1.0
C      1  0.5592130000000  0.4892390000000  0.4345750000000 1.0
C      1  0.5353160000000  0.5507240000000  0.5552610000000 1.0
C      1  0.4479900000000  0.5863230000000  0.4977880000000 1.0
C      1  0.3832930000000  0.4753130000000  0.5053690000000 1.0
C      1  0.4697630000000  0.4207750000000  0.4441770000000 1.0
C      1  0.5649790000000  0.4727920000000  0.5576000000000 1.0
C      1  0.4476130000000  0.4428860000000  0.5685150000000 1.0
C      1  0.5824110000000  0.3900900000000  0.4799000000000 1.0
C      1  0.6332890000000  0.5469640000000  0.5029350000000 1.0
C      1  0.4870460000000  0.5713520000000  0.4298530000000 1.0
C      1  0.4373870000000  0.4949760000000  0.5740650000000 1.0
C      1  0.4525860000000  0.5361510000000  0.4167370000000 1.0
C      1  0.5123960000000  0.4441560000000  0.4765940000000 1.0
C      1  0.6088160000000  0.5081770000000  0.5843610000000 1.0
C      1  0.5159770000000  0.5204620000000  0.4433010000000 1.0
C      1  0.4767920000000  0.5152780000000  0.5210450000000 1.0
C      1  0.4322150000000  0.5315490000000  0.4683430000000 1.0
C      1  0.4563670000000  0.4606350000000  0.5067950000000 1.0
C      1  0.5731940000000  0.5675240000000  0.5808590000000 1.0
C      1  0.4877720000000  0.5566420000000  0.5006540000000 1.0
C      1  0.4020240000000  0.5146990000000  0.5242530000000 1.0
C      1  0.4624860000000  0.4692420000000  0.4465930000000 1.0
C      1  0.5172470000000  0.4608320000000  0.5518040000000 1.0
C      1  0.5448860000000  0.4879430000000  0.4803510000000 1.0
C      1  0.5928130000000  0.4850880000000  0.4675500000000 1.0
C      1  0.5623750000000  0.5849990000000  0.5359600000000 1.0
C      1  0.4610890000000  0.5711180000000  0.5402650000000 1.0
C      1  0.3765020000000  0.5145550000000  0.4815830000000 1.0
C      1  0.4279920000000  0.4389440000000  0.4606990000000 1.0
C      1  0.5509900000000  0.4276680000000  0.5634630000000 1.0
C      1  0.4264350000000  0.5590300000000  0.4669240000000 1.0
C      1  0.4285440000000  0.4616510000000  0.5124940000000 1.0
C      1  0.5111890000000  0.4174250000000  0.4683250000000 1.0
C      1  0.6085730000000  0.4962100000000  0.5590050000000 1.0
C      1  0.5338380000000  0.5278230000000  0.4226820000000 1.0
C      1  0.4936630000000  0.5247660000000  0.5421360000000 1.0
C      1  0.4373450000000  0.5668220000000  0.5524470000000 1.0
C      1  0.3845570000000  0.5026550000000  0.4585650000000 1.0
C      1  0.4284920000000  0.4181880000000  0.4807470000000 1.0
C      1  0.5734120000000  0.4140180000000  0.5576480000000 1.0
C      1  0.6098580000000  0.5028500000000  0.4565570000000 1.0
C      1  0.5517190000000  0.5885780000000  0.5115450000000 1.0
END
