TITL C-3201376-6384-1862 -3.37942235254942e-07 125000 -585.774259634547 0 0 99 (C1) n - 1
REM
REM in /home/nfs/bkarasulu/CARBON/AIRSS/Generating-Clusters/LCBOP/Higher-Symm/SD-CG/FIRE-CG
REM
REM
REM
REM
REM
REM ./C.cell (b20cbc046b6831c77cfcea5457e17084)
REM AIRSS Version 0.9.1 bugfix July 2018 build 013d7b7c2542+ Fri, 06 Jul 2018 19:26:36 +0100
REM compiler GCC version 9.2.1 20190827 (Red Hat 9.2.1-1)
REM options -cpp -mtune=generic -march=x86-64 -g -O0 -fpre-include=/usr/include/finclude/math-vector-fortran.h
REM seed 458066119 1793371327 940136704 -1901720721 1890319126 -1742432124 997756987 1361796726 -1138839623 -1069524176 -1909252783 -475550688 1612769853 884083592 1301131252 1600917797 -2003459299 -1667824375 -1534111752 -801799034 2006049428 -1779624660 918031096 -896642959 -1593528634 -1738702639 1880308408 2105668060 -200601327 -1247790833 -1007555802 912620020 -212509188
REM
CELL 1.54180   50.00000   50.00000   50.00000   90.00000   90.00000   90.00000
LATT -1
SFAC C  
C      1  0.5766800000000  0.4367830000000  0.5493120000000 1.0
C      1  0.5766170000000  0.4890560000000  0.4200580000000 1.0
C      1  0.5763460000000  0.5747120000000  0.5305250000000 1.0
C      1  0.4202720000000  0.5818460000000  0.5189710000000 1.0
C      1  0.4201710000000  0.4756090000000  0.4198520000000 1.0
C      1  0.4202520000000  0.4425440000000  0.5610360000000 1.0
C      1  0.4996980000000  0.5018610000000  0.4144580000000 1.0
C      1  0.4995700000000  0.5730860000000  0.5443800000000 1.0
C      1  0.4997630000000  0.4249570000000  0.5410840000000 1.0
C      1  0.5075740000000  0.5553710000000  0.4237190000000 1.0
C      1  0.5074780000000  0.4062030000000  0.4900880000000 1.0
C      1  0.5072910000000  0.5383110000000  0.5861310000000 1.0
C      1  0.5103260000000  0.4087610000000  0.4624890000000 1.0
C      1  0.5104670000000  0.5779820000000  0.4397380000000 1.0
C      1  0.5102300000000  0.5131360000000  0.5977100000000 1.0
C      1  0.4995410000000  0.5848480000000  0.5194310000000 1.0
C      1  0.4995610000000  0.4743750000000  0.4167170000000 1.0
C      1  0.4996620000000  0.4406620000000  0.5637570000000 1.0
C      1  0.5582130000000  0.5140640000000  0.5707080000000 1.0
C      1  0.5583310000000  0.4319110000000  0.4767460000000 1.0
C      1  0.5584800000000  0.5541380000000  0.4527380000000 1.0
C      1  0.4379160000000  0.5147470000000  0.5722550000000 1.0
C      1  0.4380840000000  0.5550180000000  0.4509380000000 1.0
C      1  0.4379910000000  0.4298870000000  0.4767800000000 1.0
C      1  0.5097940000000  0.5876730000000  0.4923790000000 1.0
C      1  0.5098210000000  0.4626970000000  0.5797590000000 1.0
C      1  0.5097480000000  0.4495130000000  0.4277920000000 1.0
C      1  0.4995070000000  0.4238440000000  0.4388760000000 1.0
C      1  0.4995090000000  0.4851020000000  0.5964510000000 1.0
C      1  0.4996060000000  0.5908890000000  0.4645840000000 1.0
C      1  0.5643300000000  0.4853420000000  0.5138340000000 1.0
C      1  0.5646150000000  0.4943810000000  0.4795980000000 1.0
C      1  0.5644820000000  0.5198530000000  0.5060520000000 1.0
C      1  0.4269910000000  0.5189890000000  0.5101940000000 1.0
C      1  0.4267920000000  0.4985730000000  0.4796050000000 1.0
C      1  0.4268650000000  0.4836910000000  0.5116000000000 1.0
C      1  0.5625810000000  0.5412440000000  0.5649060000000 1.0
C      1  0.5628880000000  0.4235620000000  0.5032170000000 1.0
C      1  0.5629490000000  0.5355730000000  0.4320820000000 1.0
C      1  0.4208420000000  0.4921220000000  0.5703580000000 1.0
C      1  0.4210340000000  0.5647630000000  0.4714510000000 1.0
C      1  0.4208540000000  0.4428710000000  0.4582310000000 1.0
C      1  0.4652570000000  0.5070300000000  0.5721100000000 1.0
C      1  0.4653070000000  0.4339130000000  0.4701190000000 1.0
C      1  0.4654260000000  0.5587720000000  0.4576550000000 1.0
C      1  0.5350430000000  0.4998590000000  0.5608150000000 1.0
C      1  0.5351920000000  0.5526820000000  0.4698220000000 1.0
C      1  0.5350350000000  0.4474090000000  0.4694310000000 1.0
C      1  0.4292140000000  0.4143990000000  0.4980650000000 1.0
C      1  0.4292170000000  0.5442400000000  0.4269530000000 1.0
C      1  0.4290670000000  0.5409330000000  0.5747940000000 1.0
C      1  0.5789650000000  0.5716720000000  0.4609040000000 1.0
C      1  0.5787890000000  0.4301450000000  0.4574490000000 1.0
C      1  0.5787600000000  0.4983580000000  0.5818770000000 1.0
C      1  0.5613210000000  0.4396230000000  0.5261770000000 1.0
C      1  0.5613320000000  0.5076460000000  0.4342210000000 1.0
C      1  0.5610210000000  0.5531970000000  0.5395650000000 1.0
C      1  0.4282010000000  0.5643310000000  0.4988000000000 1.0
C      1  0.4279530000000  0.4669120000000  0.4451410000000 1.0
C      1  0.4279720000000  0.4688180000000  0.5559860000000 1.0
C      1  0.4219570000000  0.4095880000000  0.5231790000000 1.0
C      1  0.4219040000000  0.5248810000000  0.4102700000000 1.0
C      1  0.4218190000000  0.5650720000000  0.5663330000000 1.0
C      1  0.5899030000000  0.5833300000000  0.4823340000000 1.0
C      1  0.5897920000000  0.4428760000000  0.4366690000000 1.0
C      1  0.5899170000000  0.4740740000000  0.5811520000000 1.0
C      1  0.5337210000000  0.4537980000000  0.4421070000000 1.0
C      1  0.5337980000000  0.5731640000000  0.4889950000000 1.0
C      1  0.5337940000000  0.4729880000000  0.5689110000000 1.0
C      1  0.4718660000000  0.5862740000000  0.4616160000000 1.0
C      1  0.4717570000000  0.4236270000000  0.4443170000000 1.0
C      1  0.4717410000000  0.4898390000000  0.5939240000000 1.0
C      1  0.5119810000000  0.4559430000000  0.4858560000000 1.0
C      1  0.5121600000000  0.5341750000000  0.4689310000000 1.0
C      1  0.5119670000000  0.5097640000000  0.5452100000000 1.0
C      1  0.4833750000000  0.5409180000000  0.4732380000000 1.0
C      1  0.4832190000000  0.4563310000000  0.4778310000000 1.0
C      1  0.4832230000000  0.5025240000000  0.5488620000000 1.0
C      1  0.4698250000000  0.5366070000000  0.4982140000000 1.0
C      1  0.4697790000000  0.4830530000000  0.5325460000000 1.0
C      1  0.4696990000000  0.4801820000000  0.4692420000000 1.0
C      1  0.5212960000000  0.4643430000000  0.5113730000000 1.0
C      1  0.5212500000000  0.5277610000000  0.5252540000000 1.0
C      1  0.5215160000000  0.5079210000000  0.4633310000000 1.0
C      1  0.4425750000000  0.4849460000000  0.4619880000000 1.0
C      1  0.4428280000000  0.5408020000000  0.5062190000000 1.0
C      1  0.4425950000000  0.4745460000000  0.5319780000000 1.0
C      1  0.5482450000000  0.4995880000000  0.4583290000000 1.0
C      1  0.5481110000000  0.4644280000000  0.5208880000000 1.0
C      1  0.5480280000000  0.5361710000000  0.5206180000000 1.0
C      1  0.4180960000000  0.5814200000000  0.5456010000000 1.0
C      1  0.4181830000000  0.4195440000000  0.5476190000000 1.0
C      1  0.4180960000000  0.4987430000000  0.4066600000000 1.0
C      1  0.5885070000000  0.4502420000000  0.5691340000000 1.0
C      1  0.5882840000000  0.5850370000000  0.5089600000000 1.0
C      1  0.5883550000000  0.4651140000000  0.4219050000000 1.0
C      1  0.5029650000000  0.5291580000000  0.4163560000000 1.0
C      1  0.5029530000000  0.4129460000000  0.5164850000000 1.0
C      1  0.5027310000000  0.5577940000000  0.5670920000000 1.0
END
