TITL C-3201379-3821-1619 -2359.6540141595 125000 -176.839524289954 0 0 35 (D3) n - 1
REM
REM in /home/nfs/bkarasulu/CARBON/AIRSS/Generating-Clusters/LCBOP/Higher-Symm/SD-CG/FIRE-CG
REM
REM
REM
REM
REM
REM ./C.cell (b20cbc046b6831c77cfcea5457e17084)
REM AIRSS Version 0.9.1 bugfix July 2018 build 013d7b7c2542+ Fri, 06 Jul 2018 19:26:36 +0100
REM compiler GCC version 9.2.1 20190827 (Red Hat 9.2.1-1)
REM options -cpp -mtune=generic -march=x86-64 -g -O0 -fpre-include=/usr/include/finclude/math-vector-fortran.h
REM seed -634961520 1837276597 2072493497 1826513414 1866234982 -1238642922 2007919590 43963436 180940184 885322411 2047131314 242750963 304060881 135637343 -922444746 -133229433 981398859 -1877559794 -635358812 -294336241 -1467995919 1458464936 47439640 45540555 -290419569 1833294153 1556779320 1865205548 -304217382 -366486303 1203915471 -1131049150 -513308899
REM
CELL 1.54180   50.00000   50.00000   50.00000   90.00000   90.00000   90.00000
LATT -1
SFAC C  
C      1  0.4686360000000  0.5002490000000  0.5174870000000 1.0
C      1  0.5162760000000  0.4736330000000  0.5174770000000 1.0
C      1  0.5155080000000  0.5281460000000  0.5175460000000 1.0
C      1  0.5316280000000  0.5002570000000  0.4825750000000 1.0
C      1  0.4840110000000  0.4736360000000  0.4825800000000 1.0
C      1  0.4847700000000  0.5281690000000  0.4825700000000 1.0
C      1  0.5587930000000  0.5156080000000  0.5238030000000 1.0
C      1  0.4578770000000  0.5439870000000  0.5237980000000 1.0
C      1  0.4837760000000  0.4424940000000  0.5238840000000 1.0
C      1  0.4415150000000  0.5156210000000  0.4762320000000 1.0
C      1  0.5423760000000  0.5439950000000  0.4762680000000 1.0
C      1  0.5165080000000  0.4424540000000  0.4762540000000 1.0
C      1  0.4765930000000  0.4628560000000  0.5447280000000 1.0
C      1  0.5449040000000  0.4990980000000  0.5445970000000 1.0
C      1  0.4790660000000  0.5400650000000  0.5446440000000 1.0
C      1  0.5237470000000  0.4627780000000  0.4554200000000 1.0
C      1  0.4554740000000  0.4991670000000  0.4554220000000 1.0
C      1  0.5211700000000  0.5400960000000  0.4554270000000 1.0
C      1  0.4858350000000  0.5172010000000  0.5614550000000 1.0
C      1  0.4927810000000  0.4806910000000  0.5614070000000 1.0
C      1  0.5215790000000  0.5042320000000  0.5614700000000 1.0
C      1  0.5141280000000  0.5172420000000  0.4386390000000 1.0
C      1  0.5075280000000  0.4804140000000  0.4386470000000 1.0
C      1  0.4788040000000  0.5044160000000  0.4386220000000 1.0
C      1  0.5040780000000  0.5482600000000  0.5330260000000 1.0
C      1  0.4569180000000  0.4803090000000  0.5329700000000 1.0
C      1  0.5394740000000  0.4733850000000  0.5328490000000 1.0
C      1  0.4961800000000  0.5483130000000  0.4671170000000 1.0
C      1  0.5433690000000  0.4802980000000  0.4671300000000 1.0
C      1  0.4608560000000  0.4734300000000  0.4671400000000 1.0
C      1  0.5001360000000  0.4532740000000  0.5000530000000 1.0
C      1  0.5412060000000  0.5243940000000  0.5000470000000 1.0
C      1  0.4590660000000  0.5243950000000  0.5000180000000 1.0
C      1  0.5001420000000  0.5006850000000  0.5152120000000 1.0
C      1  0.5001440000000  0.5006980000000  0.4848660000000 1.0
END
