TITL C-3201376-6384-1046 -0.000381583690138948 125000 -1014.03727443433 0 0 172 (C1) n - 1
REM
REM in /home/nfs/bkarasulu/CARBON/AIRSS/Generating-Clusters/LCBOP/Higher-Symm/SD-CG/FIRE-CG
REM
REM
REM
REM
REM
REM ./C.cell (b20cbc046b6831c77cfcea5457e17084)
REM AIRSS Version 0.9.1 bugfix July 2018 build 013d7b7c2542+ Fri, 06 Jul 2018 19:26:36 +0100
REM compiler GCC version 9.2.1 20190827 (Red Hat 9.2.1-1)
REM options -cpp -mtune=generic -march=x86-64 -g -O0 -fpre-include=/usr/include/finclude/math-vector-fortran.h
REM seed -1391564879 -714155381 46960020 1415219091 -44332590 59008221 -2074410058 -1522558417 -1112381527 -400271352 1077996693 -1394907229 1630747807 518801052 618858204 1392375555 -793701137 1469892853 -1624404489 -965197348 -1235000276 -680271008 -57895074 548522059 1163254699 1849557149 -727918562 275238344 966547423 752443706 -458504419 -2038262693 1766514352
REM
CELL 1.54180   50.00000   50.00000   50.00000   90.00000   90.00000   90.00000
LATT -1
SFAC C  
C      1  0.5730880000000  0.3674890000000  0.5099440000000 1.0
C      1  0.3653620000000  0.4886810000000  0.5550910000000 1.0
C      1  0.5086370000000  0.5484480000000  0.3603090000000 1.0
C      1  0.5651500000000  0.6409550000000  0.4896150000000 1.0
C      1  0.4258620000000  0.3630750000000  0.4835830000000 1.0
C      1  0.4356730000000  0.6383800000000  0.5093470000000 1.0
C      1  0.3487470000000  0.4974860000000  0.4316720000000 1.0
C      1  0.6294110000000  0.4867370000000  0.4510950000000 1.0
C      1  0.6500630000000  0.4944380000000  0.5718850000000 1.0
C      1  0.5008340000000  0.4578030000000  0.6451470000000 1.0
C      1  0.4990650000000  0.5456450000000  0.6332470000000 1.0
C      1  0.4953800000000  0.4566330000000  0.3538220000000 1.0
C      1  0.4588420000000  0.5223820000000  0.4018760000000 1.0
C      1  0.4976930000000  0.4004180000000  0.4574930000000 1.0
C      1  0.3969010000000  0.4693630000000  0.5007300000000 1.0
C      1  0.4615630000000  0.4747090000000  0.5935210000000 1.0
C      1  0.5439940000000  0.5231400000000  0.6020230000000 1.0
C      1  0.5358980000000  0.4781600000000  0.4068360000000 1.0
C      1  0.5067810000000  0.5886530000000  0.5204060000000 1.0
C      1  0.5012040000000  0.4015320000000  0.5362980000000 1.0
C      1  0.4919060000000  0.5985220000000  0.4642990000000 1.0
C      1  0.3938580000000  0.5351750000000  0.4874070000000 1.0
C      1  0.5999950000000  0.4730850000000  0.5014120000000 1.0
C      1  0.6142840000000  0.5435950000000  0.5149740000000 1.0
C      1  0.5651620000000  0.5690850000000  0.4909170000000 1.0
C      1  0.5784900000000  0.4909290000000  0.5692820000000 1.0
C      1  0.4852260000000  0.5465820000000  0.5621130000000 1.0
C      1  0.5632960000000  0.4363350000000  0.5266120000000 1.0
C      1  0.4392430000000  0.5665220000000  0.5105340000000 1.0
C      1  0.4340550000000  0.4333640000000  0.4730430000000 1.0
C      1  0.5602950000000  0.5088000000000  0.4514930000000 1.0
C      1  0.4202100000000  0.4923670000000  0.4343920000000 1.0
C      1  0.4350770000000  0.5058990000000  0.5511640000000 1.0
C      1  0.4801510000000  0.4472190000000  0.4232180000000 1.0
C      1  0.5145970000000  0.5534430000000  0.4315490000000 1.0
C      1  0.5158250000000  0.4482340000000  0.5755430000000 1.0
C      1  0.4683170000000  0.5252340000000  0.5984070000000 1.0
C      1  0.5423830000000  0.6009560000000  0.4682830000000 1.0
C      1  0.6119820000000  0.4687140000000  0.5500430000000 1.0
C      1  0.4638610000000  0.4732450000000  0.3900490000000 1.0
C      1  0.5343780000000  0.5288160000000  0.3995530000000 1.0
C      1  0.5333720000000  0.4732640000000  0.6093450000000 1.0
C      1  0.5490970000000  0.3972650000000  0.5436710000000 1.0
C      1  0.4599620000000  0.5998010000000  0.5318940000000 1.0
C      1  0.4489680000000  0.3962530000000  0.4525490000000 1.0
C      1  0.6005240000000  0.5247980000000  0.4686580000000 1.0
C      1  0.3860860000000  0.4694250000000  0.4518200000000 1.0
C      1  0.3964730000000  0.5239770000000  0.5358240000000 1.0
C      1  0.5548280000000  0.4152800000000  0.5982000000000 1.0
C      1  0.4063270000000  0.5753820000000  0.5547200000000 1.0
C      1  0.5831740000000  0.5416520000000  0.4120850000000 1.0
C      1  0.5568090000000  0.5851830000000  0.4179540000000 1.0
C      1  0.4405170000000  0.4153390000000  0.4012320000000 1.0
C      1  0.4481910000000  0.5826170000000  0.5823220000000 1.0
C      1  0.3979980000000  0.4219210000000  0.4321790000000 1.0
C      1  0.5960090000000  0.5752250000000  0.4466030000000 1.0
C      1  0.5987820000000  0.4207560000000  0.5675650000000 1.0
C      1  0.5855390000000  0.4529260000000  0.6061620000000 1.0
C      1  0.4180650000000  0.5422780000000  0.5903320000000 1.0
C      1  0.4111160000000  0.4550560000000  0.3948210000000 1.0
C      1  0.4133230000000  0.4120260000000  0.4766840000000 1.0
C      1  0.3972140000000  0.4965330000000  0.4159140000000 1.0
C      1  0.4850820000000  0.4326970000000  0.3976050000000 1.0
C      1  0.4203800000000  0.5898500000000  0.5105860000000 1.0
C      1  0.5846180000000  0.4157420000000  0.5217020000000 1.0
C      1  0.5826690000000  0.5933430000000  0.4891140000000 1.0
C      1  0.4127110000000  0.4990260000000  0.5704080000000 1.0
C      1  0.6016520000000  0.4936850000000  0.5877410000000 1.0
C      1  0.5832820000000  0.4992170000000  0.4340500000000 1.0
C      1  0.4919170000000  0.5633490000000  0.5859680000000 1.0
C      1  0.5098270000000  0.4338560000000  0.6010740000000 1.0
C      1  0.5133090000000  0.5694380000000  0.4064350000000 1.0
C      1  0.4929700000000  0.4489680000000  0.4483600000000 1.0
C      1  0.4417520000000  0.4566750000000  0.4871800000000 1.0
C      1  0.4407490000000  0.5082910000000  0.4449370000000 1.0
C      1  0.4951640000000  0.5433420000000  0.5353920000000 1.0
C      1  0.5036740000000  0.4496930000000  0.5498540000000 1.0
C      1  0.4969300000000  0.5511700000000  0.4531090000000 1.0
C      1  0.4419320000000  0.5463070000000  0.4914480000000 1.0
C      1  0.5550380000000  0.4602220000000  0.5137780000000 1.0
C      1  0.5675760000000  0.5489330000000  0.5101760000000 1.0
C      1  0.4591830000000  0.4907780000000  0.5486020000000 1.0
C      1  0.5585470000000  0.5075790000000  0.5593290000000 1.0
C      1  0.5340850000000  0.4958330000000  0.4516920000000 1.0
C      1  0.5132090000000  0.4555830000000  0.6211270000000 1.0
C      1  0.4384980000000  0.6124220000000  0.5165400000000 1.0
C      1  0.6067360000000  0.5015880000000  0.4518800000000 1.0
C      1  0.5177430000000  0.5486750000000  0.3858270000000 1.0
C      1  0.4828100000000  0.4546650000000  0.3777460000000 1.0
C      1  0.4884530000000  0.5440510000000  0.6083460000000 1.0
C      1  0.4291750000000  0.3874060000000  0.4721920000000 1.0
C      1  0.5634280000000  0.6147550000000  0.4829630000000 1.0
C      1  0.5692170000000  0.3905570000000  0.5235560000000 1.0
C      1  0.6242500000000  0.4864220000000  0.5699930000000 1.0
C      1  0.3886900000000  0.5023310000000  0.5536250000000 1.0
C      1  0.3743280000000  0.4886820000000  0.4331060000000 1.0
C      1  0.4521210000000  0.5026030000000  0.4714700000000 1.0
C      1  0.4887240000000  0.4730600000000  0.4645810000000 1.0
C      1  0.4615210000000  0.4757920000000  0.4764740000000 1.0
C      1  0.4835320000000  0.4948670000000  0.5322220000000 1.0
C      1  0.5473040000000  0.5046920000000  0.5329820000000 1.0
C      1  0.5063470000000  0.4989170000000  0.4624250000000 1.0
C      1  0.4840080000000  0.5212610000000  0.5186940000000 1.0
C      1  0.5069070000000  0.4745250000000  0.5337970000000 1.0
C      1  0.4935430000000  0.5265550000000  0.4682410000000 1.0
C      1  0.4674130000000  0.5250450000000  0.4880570000000 1.0
C      1  0.5353030000000  0.4795210000000  0.5249390000000 1.0
C      1  0.5520280000000  0.5257160000000  0.5145560000000 1.0
C      1  0.5861990000000  0.5159210000000  0.4111110000000 1.0
C      1  0.5284540000000  0.4123840000000  0.6047850000000 1.0
C      1  0.4002240000000  0.5862820000000  0.5305180000000 1.0
C      1  0.5976350000000  0.4756670000000  0.6093900000000 1.0
C      1  0.4127040000000  0.5169830000000  0.5925800000000 1.0
C      1  0.4003270000000  0.4800090000000  0.3928080000000 1.0
C      1  0.5335930000000  0.5893710000000  0.4070730000000 1.0
C      1  0.4653610000000  0.4123790000000  0.3941600000000 1.0
C      1  0.4734760000000  0.5850630000000  0.5879010000000 1.0
C      1  0.3931360000000  0.4148430000000  0.4566710000000 1.0
C      1  0.6024630000000  0.5891170000000  0.4690460000000 1.0
C      1  0.6042260000000  0.4167300000000  0.5424840000000 1.0
C      1  0.5362460000000  0.5657370000000  0.5494620000000 1.0
C      1  0.5836540000000  0.5588680000000  0.5538620000000 1.0
C      1  0.5574180000000  0.5548340000000  0.5642270000000 1.0
C      1  0.5362770000000  0.4277980000000  0.4503130000000 1.0
C      1  0.4581070000000  0.5753420000000  0.4385500000000 1.0
C      1  0.4621930000000  0.4243630000000  0.5501800000000 1.0
C      1  0.5697420000000  0.4572560000000  0.4671160000000 1.0
C      1  0.4169240000000  0.5553320000000  0.4501050000000 1.0
C      1  0.4265990000000  0.4514510000000  0.5340940000000 1.0
C      1  0.5510020000000  0.4511370000000  0.4474140000000 1.0
C      1  0.4394990000000  0.5552740000000  0.4335770000000 1.0
C      1  0.4453480000000  0.4460140000000  0.5540950000000 1.0
C      1  0.4572300000000  0.4684020000000  0.5665480000000 1.0
C      1  0.4805930000000  0.5747440000000  0.4551780000000 1.0
C      1  0.5739080000000  0.4668330000000  0.4929490000000 1.0
C      1  0.4486300000000  0.5293460000000  0.4269100000000 1.0
C      1  0.5382640000000  0.4727350000000  0.4342490000000 1.0
C      1  0.5523040000000  0.5297790000000  0.5761600000000 1.0
C      1  0.4891000000000  0.4257820000000  0.5426510000000 1.0
C      1  0.5149490000000  0.5640280000000  0.5309830000000 1.0
C      1  0.5088340000000  0.4258350000000  0.4548140000000 1.0
C      1  0.5905500000000  0.5516000000000  0.5275790000000 1.0
C      1  0.4229240000000  0.4620640000000  0.5085070000000 1.0
C      1  0.4175600000000  0.5439570000000  0.4756980000000 1.0
C      1  0.3843400000000  0.5298950000000  0.5116600000000 1.0
C      1  0.5354050000000  0.5015370000000  0.3936100000000 1.0
C      1  0.5231450000000  0.3875000000000  0.5418620000000 1.0
C      1  0.3809960000000  0.4687260000000  0.4792440000000 1.0
C      1  0.6162030000000  0.5335320000000  0.4900520000000 1.0
C      1  0.6162570000000  0.4705140000000  0.5224950000000 1.0
C      1  0.5380110000000  0.5002160000000  0.6145850000000 1.0
C      1  0.4652080000000  0.4984410000000  0.6056590000000 1.0
C      1  0.4624690000000  0.5007850000000  0.3866220000000 1.0
C      1  0.5161370000000  0.6094630000000  0.4657220000000 1.0
C      1  0.4751990000000  0.3870120000000  0.4525030000000 1.0
C      1  0.4868090000000  0.6053180000000  0.5267300000000 1.0
C      1  0.5842460000000  0.4647370000000  0.5590510000000 1.0
C      1  0.4610000000000  0.5353940000000  0.5718770000000 1.0
C      1  0.5499470000000  0.5727560000000  0.4664370000000 1.0
C      1  0.5731030000000  0.5323620000000  0.4614440000000 1.0
C      1  0.4139360000000  0.4656830000000  0.4430590000000 1.0
C      1  0.4243920000000  0.5307090000000  0.5414280000000 1.0
C      1  0.4558680000000  0.4611520000000  0.4154970000000 1.0
C      1  0.5389860000000  0.5396900000000  0.4266630000000 1.0
C      1  0.5406890000000  0.4608330000000  0.5838220000000 1.0
C      1  0.5528290000000  0.4254910000000  0.5508790000000 1.0
C      1  0.4522450000000  0.5715750000000  0.5355380000000 1.0
C      1  0.4442170000000  0.4247590000000  0.4477160000000 1.0
C      1  0.4333270000000  0.5578610000000  0.5628130000000 1.0
C      1  0.5673210000000  0.4396430000000  0.5793930000000 1.0
C      1  0.5676150000000  0.5599210000000  0.4380940000000 1.0
C      1  0.4278390000000  0.4418840000000  0.4204470000000 1.0
END
