TITL C-3201376-6384-230 11868.3501143964 125000 -921.911894139015 0 0 151 (C1) n - 1
REM
REM in /home/nfs/bkarasulu/CARBON/AIRSS/Generating-Clusters/LCBOP/Higher-Symm/SD-CG/FIRE-CG
REM
REM
REM
REM
REM
REM ./C.cell (b20cbc046b6831c77cfcea5457e17084)
REM AIRSS Version 0.9.1 bugfix July 2018 build 013d7b7c2542+ Fri, 06 Jul 2018 19:26:36 +0100
REM compiler GCC version 9.2.1 20190827 (Red Hat 9.2.1-1)
REM options -cpp -mtune=generic -march=x86-64 -g -O0 -fpre-include=/usr/include/finclude/math-vector-fortran.h
REM seed -2078562597 -1097688880 1460069682 1490672127 386922443 -2025927750 1407078666 699543521 1333505937 -1288940244 102447719 -1812405125 -937893051 1672800476 1972720327 -1476432473 -1486533611 -25742345 1014530926 -1802629172 1170578010 -1308587439 192262499 755793339 247721919 -2050059292 -1436563868 -1338603716 617417237 866636623 1306600430 899431108 1511745793
REM
CELL 1.54180   50.00000   50.00000   50.00000   90.00000   90.00000   90.00000
LATT -1
SFAC C  
C      1  0.4614690000000  0.4645990000000  0.3990560000000 1.0
C      1  0.5179690000000  0.4521490000000  0.4009240000000 1.0
C      1  0.5491700000000  0.5015650000000  0.3979800000000 1.0
C      1  0.5119560000000  0.5471650000000  0.3960160000000 1.0
C      1  0.4571640000000  0.5252940000000  0.3958550000000 1.0
C      1  0.4650530000000  0.4601890000000  0.5926000000000 1.0
C      1  0.5236060000000  0.4518400000000  0.6014720000000 1.0
C      1  0.5488250000000  0.5041660000000  0.6021530000000 1.0
C      1  0.5078190000000  0.5447850000000  0.6005390000000 1.0
C      1  0.4561890000000  0.5203040000000  0.6032980000000 1.0
C      1  0.4720810000000  0.4082910000000  0.5336490000000 1.0
C      1  0.5724060000000  0.4530240000000  0.5496530000000 1.0
C      1  0.5665560000000  0.5504510000000  0.5507550000000 1.0
C      1  0.4898180000000  0.6017780000000  0.5580490000000 1.0
C      1  0.4144810000000  0.4983670000000  0.5507350000000 1.0
C      1  0.4733570000000  0.4200640000000  0.4583790000000 1.0
C      1  0.5700970000000  0.4509510000000  0.4494550000000 1.0
C      1  0.5651250000000  0.5478110000000  0.4494820000000 1.0
C      1  0.4741120000000  0.5801600000000  0.4481070000000 1.0
C      1  0.4132160000000  0.5010260000000  0.4458580000000 1.0
C      1  0.4861400000000  0.5592560000000  0.5879040000000 1.0
C      1  0.4374440000000  0.5027930000000  0.5906800000000 1.0
C      1  0.4790990000000  0.4364340000000  0.5800950000000 1.0
C      1  0.5496500000000  0.4572640000000  0.5903220000000 1.0
C      1  0.5527250000000  0.5291410000000  0.5893570000000 1.0
C      1  0.4893850000000  0.5596110000000  0.4088660000000 1.0
C      1  0.4369420000000  0.5089480000000  0.4073340000000 1.0
C      1  0.4719900000000  0.4429800000000  0.4157790000000 1.0
C      1  0.5428950000000  0.4559790000000  0.4133230000000 1.0
C      1  0.5536440000000  0.5265710000000  0.4104810000000 1.0
C      1  0.4153490000000  0.5594970000000  0.5139930000000 1.0
C      1  0.4160490000000  0.4316270000000  0.5167740000000 1.0
C      1  0.5440550000000  0.3980170000000  0.5179240000000 1.0
C      1  0.6089980000000  0.5081800000000  0.5168860000000 1.0
C      1  0.5325770000000  0.6033930000000  0.5127460000000 1.0
C      1  0.4141660000000  0.5596940000000  0.4866460000000 1.0
C      1  0.4179330000000  0.4355220000000  0.4869920000000 1.0
C      1  0.5424720000000  0.3965570000000  0.4907640000000 1.0
C      1  0.6101130000000  0.5067650000000  0.4895960000000 1.0
C      1  0.5310910000000  0.6005630000000  0.4853690000000 1.0
C      1  0.4955330000000  0.6153720000000  0.4847510000000 1.0
C      1  0.3918930000000  0.5271600000000  0.4865720000000 1.0
C      1  0.4280870000000  0.4113740000000  0.4738560000000 1.0
C      1  0.5790280000000  0.4115210000000  0.4877300000000 1.0
C      1  0.6058900000000  0.5461200000000  0.4872090000000 1.0
C      1  0.4971930000000  0.6223630000000  0.5109580000000 1.0
C      1  0.3944600000000  0.5256690000000  0.5137120000000 1.0
C      1  0.4283570000000  0.4054300000000  0.5202470000000 1.0
C      1  0.5789280000000  0.4160330000000  0.5150610000000 1.0
C      1  0.6026090000000  0.5465930000000  0.5148600000000 1.0
C      1  0.5372620000000  0.4784280000000  0.5120410000000 1.0
C      1  0.5299930000000  0.5343160000000  0.5125370000000 1.0
C      1  0.4767750000000  0.5529210000000  0.5228520000000 1.0
C      1  0.4658340000000  0.5014160000000  0.5147910000000 1.0
C      1  0.5078710000000  0.4666840000000  0.5126290000000 1.0
C      1  0.5363550000000  0.4957910000000  0.4882260000000 1.0
C      1  0.5159540000000  0.5183020000000  0.4915620000000 1.0
C      1  0.4762140000000  0.5478330000000  0.4849920000000 1.0
C      1  0.4547770000000  0.5098510000000  0.4674210000000 1.0
C      1  0.4900550000000  0.4558960000000  0.4916950000000 1.0
C      1  0.5724960000000  0.4422720000000  0.5241430000000 1.0
C      1  0.5763600000000  0.5481880000000  0.5251390000000 1.0
C      1  0.4892430000000  0.6186170000000  0.5368590000000 1.0
C      1  0.4137850000000  0.5089240000000  0.5252120000000 1.0
C      1  0.4563070000000  0.4027820000000  0.5101780000000 1.0
C      1  0.5723720000000  0.4340290000000  0.4717760000000 1.0
C      1  0.5816950000000  0.5462330000000  0.4719760000000 1.0
C      1  0.4817760000000  0.5932580000000  0.4727400000000 1.0
C      1  0.4072150000000  0.5093450000000  0.4716700000000 1.0
C      1  0.4571790000000  0.4068800000000  0.4796530000000 1.0
C      1  0.5023920000000  0.4731440000000  0.4484390000000 1.0
C      1  0.5233700000000  0.4904950000000  0.4450060000000 1.0
C      1  0.5124170000000  0.5158030000000  0.4386630000000 1.0
C      1  0.4898500000000  0.5084510000000  0.4227860000000 1.0
C      1  0.4808300000000  0.4858470000000  0.4370330000000 1.0
C      1  0.5037770000000  0.4755780000000  0.5578830000000 1.0
C      1  0.5235510000000  0.4955900000000  0.5559980000000 1.0
C      1  0.5107170000000  0.5201780000000  0.5548480000000 1.0
C      1  0.4829030000000  0.5173240000000  0.5560400000000 1.0
C      1  0.4787660000000  0.4887700000000  0.5564190000000 1.0
C      1  0.5118190000000  0.4282400000000  0.4520120000000 1.0
C      1  0.5701430000000  0.4890740000000  0.4490830000000 1.0
C      1  0.5288630000000  0.5591040000000  0.4479290000000 1.0
C      1  0.4482860000000  0.5511620000000  0.4433110000000 1.0
C      1  0.4376820000000  0.4707380000000  0.4460410000000 1.0
C      1  0.5247250000000  0.4318950000000  0.5557770000000 1.0
C      1  0.5716770000000  0.4913480000000  0.5540610000000 1.0
C      1  0.5307530000000  0.5635580000000  0.5532210000000 1.0
C      1  0.4422080000000  0.5434940000000  0.5607620000000 1.0
C      1  0.4224320000000  0.4701950000000  0.5575180000000 1.0
C      1  0.4972190000000  0.5701380000000  0.4861690000000 1.0
C      1  0.4329040000000  0.5080670000000  0.4838730000000 1.0
C      1  0.4604100000000  0.4557850000000  0.4958080000000 1.0
C      1  0.5460580000000  0.4399740000000  0.4841450000000 1.0
C      1  0.5688700000000  0.5227470000000  0.4850910000000 1.0
C      1  0.4985580000000  0.5713980000000  0.5174780000000 1.0
C      1  0.4382190000000  0.5079400000000  0.5104170000000 1.0
C      1  0.4530120000000  0.4586540000000  0.5235830000000 1.0
C      1  0.5528030000000  0.4542050000000  0.5072210000000 1.0
C      1  0.5577140000000  0.5347410000000  0.5080870000000 1.0
C      1  0.5578560000000  0.4800890000000  0.4141630000000 1.0
C      1  0.5349840000000  0.5479630000000  0.4122300000000 1.0
C      1  0.4626120000000  0.5493890000000  0.4099280000000 1.0
C      1  0.4393430000000  0.4794530000000  0.4099000000000 1.0
C      1  0.4999460000000  0.4367750000000  0.4175340000000 1.0
C      1  0.5608540000000  0.4828890000000  0.5882450000000 1.0
C      1  0.5326270000000  0.5489320000000  0.5872450000000 1.0
C      1  0.4589650000000  0.5467130000000  0.5886720000000 1.0
C      1  0.4401150000000  0.4735330000000  0.5831010000000 1.0
C      1  0.5083150000000  0.4344020000000  0.5834850000000 1.0
C      1  0.4644510000000  0.4811430000000  0.5344980000000 1.0
C      1  0.5089410000000  0.4535220000000  0.5399610000000 1.0
C      1  0.5455770000000  0.4910430000000  0.5388930000000 1.0
C      1  0.5217760000000  0.5393440000000  0.5392110000000 1.0
C      1  0.4668640000000  0.5373660000000  0.5435900000000 1.0
C      1  0.4589770000000  0.4876700000000  0.4523020000000 1.0
C      1  0.5017130000000  0.4522490000000  0.4658370000000 1.0
C      1  0.5441900000000  0.4899770000000  0.4621470000000 1.0
C      1  0.5171060000000  0.5334910000000  0.4584320000000 1.0
C      1  0.4637540000000  0.5357230000000  0.4637660000000 1.0
C      1  0.4362100000000  0.4558630000000  0.4786220000000 1.0
C      1  0.5292400000000  0.4167630000000  0.4757170000000 1.0
C      1  0.5868790000000  0.5005240000000  0.4744800000000 1.0
C      1  0.5257910000000  0.5765570000000  0.4731010000000 1.0
C      1  0.4260720000000  0.5630050000000  0.4617090000000 1.0
C      1  0.4272560000000  0.4520450000000  0.5345910000000 1.0
C      1  0.5304220000000  0.4073720000000  0.5395570000000 1.0
C      1  0.5960890000000  0.4965360000000  0.5380740000000 1.0
C      1  0.5235650000000  0.5828940000000  0.5297690000000 1.0
C      1  0.4250870000000  0.5594880000000  0.5398450000000 1.0
C      1  0.5038130000000  0.5203580000000  0.6147960000000 1.0
C      1  0.4782330000000  0.5068500000000  0.6141530000000 1.0
C      1  0.4817240000000  0.4774830000000  0.6103280000000 1.0
C      1  0.5105460000000  0.4734600000000  0.6139030000000 1.0
C      1  0.5240810000000  0.4994990000000  0.6154300000000 1.0
C      1  0.5074030000000  0.5222590000000  0.3821820000000 1.0
C      1  0.4820090000000  0.5098040000000  0.3929080000000 1.0
C      1  0.4811460000000  0.4802760000000  0.3851760000000 1.0
C      1  0.5095210000000  0.4735270000000  0.3837190000000 1.0
C      1  0.5255250000000  0.4987050000000  0.3819440000000 1.0
C      1  0.4964990000000  0.5719790000000  0.4328080000000 1.0
C      1  0.4268560000000  0.5212560000000  0.4307410000000 1.0
C      1  0.4587380000000  0.4392000000000  0.4403990000000 1.0
C      1  0.5450100000000  0.4417070000000  0.4370410000000 1.0
C      1  0.5678520000000  0.5240180000000  0.4340750000000 1.0
C      1  0.4972890000000  0.5776090000000  0.5691580000000 1.0
C      1  0.4253590000000  0.5172640000000  0.5690420000000 1.0
C      1  0.4701820000000  0.4197640000000  0.5583980000000 1.0
C      1  0.5527080000000  0.4429690000000  0.5661170000000 1.0
C      1  0.5684370000000  0.5272940000000  0.5664260000000 1.0
C      1  0.4915830000000  0.5033840000000  0.5030650000000 1.0
END
