TITL C-3201374-830-581 212124.221174517 125000 -959.742528883321 0 0 159 (C1) n - 1
REM
REM in /home/nfs/bkarasulu/CARBON/AIRSS/Generating-Clusters/LCBOP/Higher-Symm/SD-CG/FIRE-CG
REM
REM
REM
REM
REM
REM ./C.cell (b20cbc046b6831c77cfcea5457e17084)
REM AIRSS Version 0.9.1 bugfix July 2018 build 013d7b7c2542+ Fri, 06 Jul 2018 19:26:36 +0100
REM compiler GCC version 9.2.1 20190827 (Red Hat 9.2.1-1)
REM options -cpp -mtune=generic -march=x86-64 -g -O0 -fpre-include=/usr/include/finclude/math-vector-fortran.h
REM seed -1712089953 421771898 -50370622 -1429478916 -1149236654 -127981844 1460893539 -1610071189 1694118679 175875401 1387621924 1004885963 2109396803 -2036012450 -2066476813 -320506001 -615047271 -420145113 -1043025473 -1206448625 -1547793235 -711433533 -1905000852 -122246015 -1338211171 -412411233 600758916 2002650802 2023862651 1717988363 -27892535 -931919494 -581966643
REM
CELL 1.54180   50.00000   50.00000   50.00000   90.00000   90.00000   90.00000
LATT -1
SFAC C  
C      1  0.4990430000000  0.4526850000000  0.6109280000000 1.0
C      1  0.4854720000000  0.4291900000000  0.4287180000000 1.0
C      1  0.4271320000000  0.4593890000000  0.4337050000000 1.0
C      1  0.4870710000000  0.4717350000000  0.4015380000000 1.0
C      1  0.3886430000000  0.5432050000000  0.4455260000000 1.0
C      1  0.5922590000000  0.5440600000000  0.3781460000000 1.0
C      1  0.4811210000000  0.4315810000000  0.5999570000000 1.0
C      1  0.4442660000000  0.4435650000000  0.5587550000000 1.0
C      1  0.5595950000000  0.4355080000000  0.4921820000000 1.0
C      1  0.5434950000000  0.3980450000000  0.5196420000000 1.0
C      1  0.4862020000000  0.5539410000000  0.5423690000000 1.0
C      1  0.5622690000000  0.5045580000000  0.5065440000000 1.0
C      1  0.4338600000000  0.5537010000000  0.4268960000000 1.0
C      1  0.4785530000000  0.4980130000000  0.3927430000000 1.0
C      1  0.5132860000000  0.5925360000000  0.5635100000000 1.0
C      1  0.6390080000000  0.5263610000000  0.4276350000000 1.0
C      1  0.6143210000000  0.5508680000000  0.3941490000000 1.0
C      1  0.5193720000000  0.4451140000000  0.5182650000000 1.0
C      1  0.5251600000000  0.5648430000000  0.4834580000000 1.0
C      1  0.4706590000000  0.3937540000000  0.5070220000000 1.0
C      1  0.5127360000000  0.4381080000000  0.4218230000000 1.0
C      1  0.5659580000000  0.5394160000000  0.3766930000000 1.0
C      1  0.5722650000000  0.5408930000000  0.5584260000000 1.0
C      1  0.5069330000000  0.5047900000000  0.5355940000000 1.0
C      1  0.5553500000000  0.4636710000000  0.4870470000000 1.0
C      1  0.4652600000000  0.5486850000000  0.6017890000000 1.0
C      1  0.4651460000000  0.4378480000000  0.4897550000000 1.0
C      1  0.5914910000000  0.5531970000000  0.5422060000000 1.0
C      1  0.5658640000000  0.4151380000000  0.5999420000000 1.0
C      1  0.4789520000000  0.5288230000000  0.6168880000000 1.0
C      1  0.5150580000000  0.4956880000000  0.5096660000000 1.0
C      1  0.3876450000000  0.5926450000000  0.4969710000000 1.0
C      1  0.5106640000000  0.5599860000000  0.5340060000000 1.0
C      1  0.4992890000000  0.5085400000000  0.6144900000000 1.0
C      1  0.5242800000000  0.4503280000000  0.5452800000000 1.0
C      1  0.5499270000000  0.5228170000000  0.4585100000000 1.0
C      1  0.4247290000000  0.5624820000000  0.4765600000000 1.0
C      1  0.4416500000000  0.4531510000000  0.4102600000000 1.0
C      1  0.5363870000000  0.5513710000000  0.5277880000000 1.0
C      1  0.5061730000000  0.5465370000000  0.4347790000000 1.0
C      1  0.4543700000000  0.5613630000000  0.4718300000000 1.0
C      1  0.6381400000000  0.5294960000000  0.4539580000000 1.0
C      1  0.3964000000000  0.4538460000000  0.5147290000000 1.0
C      1  0.5082620000000  0.5719340000000  0.5845190000000 1.0
C      1  0.4589260000000  0.5276340000000  0.4672550000000 1.0
C      1  0.4269740000000  0.4874090000000  0.4420180000000 1.0
C      1  0.4981000000000  0.5548890000000  0.4872030000000 1.0
C      1  0.5555330000000  0.4961500000000  0.4466160000000 1.0
C      1  0.5318370000000  0.4359340000000  0.4422540000000 1.0
C      1  0.5177090000000  0.5289730000000  0.3870560000000 1.0
C      1  0.6341320000000  0.5314070000000  0.4004760000000 1.0
C      1  0.6232360000000  0.5488100000000  0.5007920000000 1.0
C      1  0.4036130000000  0.4258600000000  0.5127870000000 1.0
C      1  0.3800940000000  0.5526580000000  0.5241420000000 1.0
C      1  0.5363970000000  0.5763020000000  0.4592920000000 1.0
C      1  0.5398940000000  0.4723990000000  0.4012790000000 1.0
C      1  0.6477820000000  0.5181350000000  0.3808880000000 1.0
C      1  0.6140680000000  0.5748610000000  0.4088630000000 1.0
C      1  0.5729910000000  0.5049190000000  0.5921970000000 1.0
C      1  0.5254470000000  0.4414740000000  0.6051250000000 1.0
C      1  0.4960370000000  0.5034390000000  0.4911090000000 1.0
C      1  0.4404340000000  0.5416780000000  0.5901120000000 1.0
C      1  0.4653760000000  0.4089500000000  0.4791740000000 1.0
C      1  0.3975890000000  0.4652950000000  0.5412930000000 1.0
C      1  0.5435870000000  0.5504880000000  0.5005110000000 1.0
C      1  0.4350220000000  0.6132320000000  0.5479420000000 1.0
C      1  0.5430930000000  0.5406440000000  0.3928960000000 1.0
C      1  0.4313400000000  0.4971920000000  0.5142690000000 1.0
C      1  0.4691500000000  0.4765280000000  0.4647270000000 1.0
C      1  0.3644710000000  0.5334710000000  0.4454330000000 1.0
C      1  0.4147670000000  0.4792170000000  0.5594940000000 1.0
C      1  0.4538580000000  0.3871980000000  0.5519490000000 1.0
C      1  0.4914120000000  0.5235900000000  0.3976370000000 1.0
C      1  0.4403110000000  0.3723040000000  0.5701600000000 1.0
C      1  0.4954140000000  0.3966570000000  0.5323090000000 1.0
C      1  0.4375980000000  0.4962950000000  0.6041340000000 1.0
C      1  0.5131920000000  0.4442810000000  0.4923960000000 1.0
C      1  0.5647890000000  0.4749730000000  0.4626770000000 1.0
C      1  0.4483800000000  0.5403750000000  0.5178220000000 1.0
C      1  0.5138080000000  0.4616520000000  0.4048980000000 1.0
C      1  0.5007390000000  0.4461550000000  0.5610280000000 1.0
C      1  0.4833620000000  0.6000660000000  0.4621280000000 1.0
C      1  0.5352780000000  0.4911210000000  0.5700060000000 1.0
C      1  0.5576880000000  0.4283570000000  0.4336250000000 1.0
C      1  0.6329260000000  0.5383610000000  0.4784470000000 1.0
C      1  0.4445780000000  0.4356070000000  0.5323700000000 1.0
C      1  0.3741870000000  0.5771590000000  0.5144880000000 1.0
C      1  0.4857530000000  0.4094070000000  0.4534370000000 1.0
C      1  0.4673170000000  0.5785120000000  0.4495410000000 1.0
C      1  0.6090690000000  0.5549200000000  0.5224140000000 1.0
C      1  0.5316580000000  0.4058880000000  0.5667960000000 1.0
C      1  0.5603060000000  0.4541580000000  0.3933010000000 1.0
C      1  0.5254600000000  0.5672440000000  0.4326490000000 1.0
C      1  0.4574150000000  0.4513620000000  0.5134290000000 1.0
C      1  0.4147180000000  0.5524360000000  0.4487020000000 1.0
C      1  0.5103630000000  0.6053850000000  0.5387330000000 1.0
C      1  0.4732100000000  0.4885300000000  0.4897330000000 1.0
C      1  0.4571480000000  0.4520480000000  0.4664000000000 1.0
C      1  0.5632980000000  0.5448250000000  0.4414990000000 1.0
C      1  0.4154200000000  0.5145790000000  0.5333030000000 1.0
C      1  0.5907200000000  0.4119630000000  0.6071010000000 1.0
C      1  0.4958010000000  0.6098770000000  0.4853730000000 1.0
C      1  0.5874770000000  0.5866820000000  0.4504610000000 1.0
C      1  0.5450940000000  0.4679110000000  0.5554260000000 1.0
C      1  0.4695960000000  0.4495030000000  0.4119240000000 1.0
C      1  0.4881190000000  0.4805660000000  0.6149330000000 1.0
C      1  0.4862920000000  0.4232500000000  0.5725860000000 1.0
C      1  0.4279930000000  0.4145830000000  0.5220360000000 1.0
C      1  0.5783990000000  0.4931670000000  0.5275890000000 1.0
C      1  0.5136470000000  0.5274680000000  0.4531620000000 1.0
C      1  0.4588900000000  0.4825050000000  0.6139610000000 1.0
C      1  0.5799890000000  0.5310060000000  0.5837720000000 1.0
C      1  0.4834760000000  0.5436810000000  0.4176570000000 1.0
C      1  0.4787390000000  0.4009850000000  0.5562610000000 1.0
C      1  0.4492390000000  0.6006610000000  0.5300770000000 1.0
C      1  0.4635520000000  0.5856620000000  0.5134850000000 1.0
C      1  0.4239790000000  0.5475170000000  0.5039310000000 1.0
C      1  0.4419090000000  0.4711060000000  0.5625210000000 1.0
C      1  0.4783700000000  0.5079080000000  0.5433210000000 1.0
C      1  0.4809810000000  0.5705780000000  0.5934240000000 1.0
C      1  0.5336540000000  0.3962390000000  0.4730880000000 1.0
C      1  0.5695370000000  0.4348730000000  0.4101010000000 1.0
C      1  0.5409760000000  0.4847270000000  0.5024220000000 1.0
C      1  0.6054690000000  0.5877540000000  0.4306270000000 1.0
C      1  0.4559630000000  0.4989680000000  0.3768530000000 1.0
C      1  0.4733820000000  0.5677050000000  0.4942470000000 1.0
C      1  0.5234320000000  0.5486450000000  0.5950890000000 1.0
C      1  0.5442040000000  0.5019010000000  0.5948640000000 1.0
C      1  0.5563420000000  0.5270510000000  0.4889290000000 1.0
C      1  0.5211480000000  0.4439290000000  0.4669510000000 1.0
C      1  0.4149120000000  0.5077490000000  0.5612740000000 1.0
C      1  0.4029850000000  0.5371450000000  0.5206330000000 1.0
C      1  0.5050710000000  0.6107490000000  0.5118090000000 1.0
C      1  0.4178620000000  0.4940990000000  0.4885370000000 1.0
C      1  0.4096420000000  0.5878300000000  0.4820710000000 1.0
C      1  0.4941360000000  0.5269330000000  0.4751470000000 1.0
C      1  0.4680410000000  0.5335450000000  0.5366410000000 1.0
C      1  0.5482740000000  0.4917690000000  0.4198500000000 1.0
C      1  0.4377960000000  0.4114900000000  0.4627650000000 1.0
C      1  0.4668090000000  0.4861540000000  0.5586620000000 1.0
C      1  0.4325800000000  0.5044070000000  0.4649260000000 1.0
C      1  0.5852600000000  0.4841970000000  0.5759140000000 1.0
C      1  0.4881370000000  0.4702120000000  0.5673110000000 1.0
C      1  0.5732600000000  0.4762140000000  0.5507150000000 1.0
C      1  0.4457650000000  0.3917290000000  0.5241790000000 1.0
C      1  0.4616880000000  0.5611430000000  0.4259240000000 1.0
C      1  0.5103240000000  0.3952880000000  0.4593590000000 1.0
C      1  0.5653100000000  0.5707220000000  0.4558890000000 1.0
C      1  0.5466540000000  0.5339230000000  0.5473510000000 1.0
C      1  0.4341100000000  0.4398560000000  0.4538870000000 1.0
C      1  0.5244660000000  0.5202720000000  0.6051300000000 1.0
C      1  0.4555130000000  0.4801600000000  0.5106830000000 1.0
C      1  0.5487400000000  0.4086640000000  0.4940150000000 1.0
C      1  0.4280480000000  0.5166530000000  0.5856400000000 1.0
C      1  0.5236870000000  0.3980420000000  0.5396430000000 1.0
C      1  0.5470750000000  0.5529030000000  0.4181820000000 1.0
C      1  0.5283640000000  0.5119290000000  0.5524010000000 1.0
C      1  0.5399950000000  0.4208290000000  0.5904600000000 1.0
C      1  0.3991530000000  0.4722260000000  0.4924220000000 1.0
END
