TITL C-3201375-1262-1814 9658.09495592543 125000 -811.59651075822 0 0 135 (C1) n - 1
REM
REM in /home/nfs/bkarasulu/CARBON/AIRSS/Generating-Clusters/LCBOP/Higher-Symm/SD-CG/FIRE-CG
REM
REM
REM
REM
REM
REM ./C.cell (b20cbc046b6831c77cfcea5457e17084)
REM AIRSS Version 0.9.1 bugfix July 2018 build 013d7b7c2542+ Fri, 06 Jul 2018 19:26:36 +0100
REM compiler GCC version 9.2.1 20190827 (Red Hat 9.2.1-1)
REM options -cpp -mtune=generic -march=x86-64 -g -O0 -fpre-include=/usr/include/finclude/math-vector-fortran.h
REM seed -138310886 -1323650871 401853582 240933941 -61180079 756044268 982025062 -971737866 67774157 253302091 -1195817792 -2022351465 1406663828 1963566416 677643906 -1452481032 -766032583 1295043435 -1034117543 -844448438 1775220102 1191387315 -1982824341 -808909726 1094965353 -1647150389 1227380795 119604652 1407043426 -582136280 913602984 763846373 882582839
REM
CELL 1.54180   50.00000   50.00000   50.00000   90.00000   90.00000   90.00000
LATT -1
SFAC C  
C      1  0.5470370000000  0.5789750000000  0.4755210000000 1.0
C      1  0.5367840000000  0.5750730000000  0.4484240000000 1.0
C      1  0.4804390000000  0.4591240000000  0.5535430000000 1.0
C      1  0.5635080000000  0.6025840000000  0.5663640000000 1.0
C      1  0.5649870000000  0.5008270000000  0.4405480000000 1.0
C      1  0.4846190000000  0.4860710000000  0.4700760000000 1.0
C      1  0.4469640000000  0.4912710000000  0.5876740000000 1.0
C      1  0.4239690000000  0.4815160000000  0.5724330000000 1.0
C      1  0.6051230000000  0.4983320000000  0.5144240000000 1.0
C      1  0.4533340000000  0.4242360000000  0.5263510000000 1.0
C      1  0.5252800000000  0.4336840000000  0.4382660000000 1.0
C      1  0.4572480000000  0.5199060000000  0.5488480000000 1.0
C      1  0.4620640000000  0.5796070000000  0.4268630000000 1.0
C      1  0.4308340000000  0.5483490000000  0.4731320000000 1.0
C      1  0.5838930000000  0.4488620000000  0.4607740000000 1.0
C      1  0.5882160000000  0.5604320000000  0.4998430000000 1.0
C      1  0.5580490000000  0.5846360000000  0.5851900000000 1.0
C      1  0.4277940000000  0.5761380000000  0.5148240000000 1.0
C      1  0.4972390000000  0.4791860000000  0.5926820000000 1.0
C      1  0.4646310000000  0.4175490000000  0.6161240000000 1.0
C      1  0.4646710000000  0.5383060000000  0.5928470000000 1.0
C      1  0.6028840000000  0.4687920000000  0.4487890000000 1.0
C      1  0.3973710000000  0.4510150000000  0.4458050000000 1.0
C      1  0.4442150000000  0.4792420000000  0.4377820000000 1.0
C      1  0.4938680000000  0.4489860000000  0.5082730000000 1.0
C      1  0.4873540000000  0.4549280000000  0.4778980000000 1.0
C      1  0.5278020000000  0.4744480000000  0.4598630000000 1.0
C      1  0.5458480000000  0.5625830000000  0.5934430000000 1.0
C      1  0.5560720000000  0.5105960000000  0.4159450000000 1.0
C      1  0.4832590000000  0.4970000000000  0.4983780000000 1.0
C      1  0.6188120000000  0.4638410000000  0.4265410000000 1.0
C      1  0.3959510000000  0.5369780000000  0.5417280000000 1.0
C      1  0.4597850000000  0.4881020000000  0.5115000000000 1.0
C      1  0.4194240000000  0.4905170000000  0.4270880000000 1.0
C      1  0.5071540000000  0.4936770000000  0.4511890000000 1.0
C      1  0.5304090000000  0.5876850000000  0.5007750000000 1.0
C      1  0.5632730000000  0.5453340000000  0.5371180000000 1.0
C      1  0.4448360000000  0.4687360000000  0.4971810000000 1.0
C      1  0.5368880000000  0.4650240000000  0.5252280000000 1.0
C      1  0.5216170000000  0.4738360000000  0.4084460000000 1.0
C      1  0.5877180000000  0.5450420000000  0.5233690000000 1.0
C      1  0.5052410000000  0.5073800000000  0.5112760000000 1.0
C      1  0.4277530000000  0.5454670000000  0.4428820000000 1.0
C      1  0.5517350000000  0.5531910000000  0.4357940000000 1.0
C      1  0.4572940000000  0.5121030000000  0.4126210000000 1.0
C      1  0.5576770000000  0.3950400000000  0.5095220000000 1.0
C      1  0.5295120000000  0.4304640000000  0.4885850000000 1.0
C      1  0.6043750000000  0.5226200000000  0.5257580000000 1.0
C      1  0.5116070000000  0.5827290000000  0.4384620000000 1.0
C      1  0.5079980000000  0.4495820000000  0.4176350000000 1.0
C      1  0.4072630000000  0.4900660000000  0.5200390000000 1.0
C      1  0.5559920000000  0.3710280000000  0.5235750000000 1.0
C      1  0.4945180000000  0.5999080000000  0.5700330000000 1.0
C      1  0.5098020000000  0.5412460000000  0.4742820000000 1.0
C      1  0.4516010000000  0.5803690000000  0.5581390000000 1.0
C      1  0.4779050000000  0.5775290000000  0.5691190000000 1.0
C      1  0.4438760000000  0.4388090000000  0.4565460000000 1.0
C      1  0.4739820000000  0.5468740000000  0.5042980000000 1.0
C      1  0.5916530000000  0.4853560000000  0.4920250000000 1.0
C      1  0.4663010000000  0.5394190000000  0.5305960000000 1.0
C      1  0.5652630000000  0.4541880000000  0.5656720000000 1.0
C      1  0.5223950000000  0.4050500000000  0.4332770000000 1.0
C      1  0.4506360000000  0.5847180000000  0.4983470000000 1.0
C      1  0.5219630000000  0.4458580000000  0.5119200000000 1.0
C      1  0.5842050000000  0.4399290000000  0.5159010000000 1.0
C      1  0.4744480000000  0.6007420000000  0.4989710000000 1.0
C      1  0.5204880000000  0.3834770000000  0.4490430000000 1.0
C      1  0.5610700000000  0.4383890000000  0.4451500000000 1.0
C      1  0.4365150000000  0.5064270000000  0.4745210000000 1.0
C      1  0.4859230000000  0.5525530000000  0.5808340000000 1.0
C      1  0.4768930000000  0.4888260000000  0.4081680000000 1.0
C      1  0.5255770000000  0.3833290000000  0.4753410000000 1.0
C      1  0.4159800000000  0.4678560000000  0.5020570000000 1.0
C      1  0.5057500000000  0.4974710000000  0.4190240000000 1.0
C      1  0.4900450000000  0.5411530000000  0.4290150000000 1.0
C      1  0.4559960000000  0.5588670000000  0.4848350000000 1.0
C      1  0.4143780000000  0.5472900000000  0.4985650000000 1.0
C      1  0.4675510000000  0.4485650000000  0.5788920000000 1.0
C      1  0.4578770000000  0.4492270000000  0.4791630000000 1.0
C      1  0.4374390000000  0.5687830000000  0.4295110000000 1.0
C      1  0.5043020000000  0.6239850000000  0.5720360000000 1.0
C      1  0.4594810000000  0.4020100000000  0.5707900000000 1.0
C      1  0.4544360000000  0.5173300000000  0.5777720000000 1.0
C      1  0.5079610000000  0.5118400000000  0.5586330000000 1.0
C      1  0.4880520000000  0.5694050000000  0.4305940000000 1.0
C      1  0.4781410000000  0.4579250000000  0.4162550000000 1.0
C      1  0.4113410000000  0.4400800000000  0.4931090000000 1.0
C      1  0.4556510000000  0.4025490000000  0.5443410000000 1.0
C      1  0.5461230000000  0.4596750000000  0.5842940000000 1.0
C      1  0.5372190000000  0.4031200000000  0.4915410000000 1.0
C      1  0.6330260000000  0.4595950000000  0.4051180000000 1.0
C      1  0.6027970000000  0.4946150000000  0.4640840000000 1.0
C      1  0.5421300000000  0.4903320000000  0.5327440000000 1.0
C      1  0.5866450000000  0.5169450000000  0.4521700000000 1.0
C      1  0.5520660000000  0.4872860000000  0.4621910000000 1.0
C      1  0.4095280000000  0.5062910000000  0.4745670000000 1.0
C      1  0.4683100000000  0.4725990000000  0.5958650000000 1.0
C      1  0.4488100000000  0.4968590000000  0.5355110000000 1.0
C      1  0.5791700000000  0.4124230000000  0.5131800000000 1.0
C      1  0.5120310000000  0.5273800000000  0.4163270000000 1.0
C      1  0.4284050000000  0.5175760000000  0.4203870000000 1.0
C      1  0.4967050000000  0.4850200000000  0.5630500000000 1.0
C      1  0.5087950000000  0.5352570000000  0.5764890000000 1.0
C      1  0.5370670000000  0.5200570000000  0.6130750000000 1.0
C      1  0.4750510000000  0.4444350000000  0.5291120000000 1.0
C      1  0.5240920000000  0.5142690000000  0.5332880000000 1.0
C      1  0.5017540000000  0.6007200000000  0.4963380000000 1.0
C      1  0.4696920000000  0.5226710000000  0.4377040000000 1.0
C      1  0.5750150000000  0.5446270000000  0.4539680000000 1.0
C      1  0.5590250000000  0.6102900000000  0.5413110000000 1.0
C      1  0.5310100000000  0.5388790000000  0.5941530000000 1.0
C      1  0.4280620000000  0.5747220000000  0.5432650000000 1.0
C      1  0.5791710000000  0.4501880000000  0.5424990000000 1.0
C      1  0.5399300000000  0.5339090000000  0.4176190000000 1.0
C      1  0.4289780000000  0.4242750000000  0.5105600000000 1.0
C      1  0.5010980000000  0.5502820000000  0.4986440000000 1.0
C      1  0.4597620000000  0.4991130000000  0.4569000000000 1.0
C      1  0.4544740000000  0.4525620000000  0.4331090000000 1.0
C      1  0.4073090000000  0.5584500000000  0.5538240000000 1.0
C      1  0.4638590000000  0.4225940000000  0.5892990000000 1.0
C      1  0.5881300000000  0.4542990000000  0.4910190000000 1.0
C      1  0.5721370000000  0.5628210000000  0.4771180000000 1.0
C      1  0.3962870000000  0.4789120000000  0.4393510000000 1.0
C      1  0.5538450000000  0.3487160000000  0.5368700000000 1.0
C      1  0.5168100000000  0.5197840000000  0.4613590000000 1.0
C      1  0.5467800000000  0.6051620000000  0.5183130000000 1.0
C      1  0.5233310000000  0.4677030000000  0.5971100000000 1.0
C      1  0.5222620000000  0.5610460000000  0.5143270000000 1.0
C      1  0.5163350000000  0.4460310000000  0.4647830000000 1.0
C      1  0.5364020000000  0.5416750000000  0.5300190000000 1.0
C      1  0.4231330000000  0.4870670000000  0.5444710000000 1.0
C      1  0.3887370000000  0.4957580000000  0.4608690000000 1.0
C      1  0.4152070000000  0.4374430000000  0.4636210000000 1.0
C      1  0.5627580000000  0.4930830000000  0.4878840000000 1.0
C      1  0.4036690000000  0.5254570000000  0.5166890000000 1.0
END
