TITL C-3201377-4638-793 -6.53655280573387e-07 125000 -741.540044685682 0 0 122 (C1) n - 1
REM
REM in /home/nfs/bkarasulu/CARBON/AIRSS/Generating-Clusters/LCBOP/Higher-Symm/SD-CG/FIRE-CG
REM
REM
REM
REM
REM
REM ./C.cell (b20cbc046b6831c77cfcea5457e17084)
REM AIRSS Version 0.9.1 bugfix July 2018 build 013d7b7c2542+ Fri, 06 Jul 2018 19:26:36 +0100
REM compiler GCC version 9.2.1 20190827 (Red Hat 9.2.1-1)
REM options -cpp -mtune=generic -march=x86-64 -g -O0 -fpre-include=/usr/include/finclude/math-vector-fortran.h
REM seed -1933973204 1968669551 -1245425002 1935599225 -1977825594 -1178675823 1601558703 -113028860 842114573 559764797 -786668966 859669833 1606459409 -1098931782 1819401623 -1105306290 581481131 -1168053229 1301474517 1537312756 -170197792 1580292520 -761481511 -1418478660 -6937258 46155742 -208347083 -562448498 -1204654319 -1758122170 994628479 -73313558 1461906094
REM
CELL 1.54180   50.00000   50.00000   50.00000   90.00000   90.00000   90.00000
LATT -1
SFAC C  
C      1  0.4189930000000  0.4658110000000  0.4828960000000 1.0
C      1  0.5751410000000  0.5355570000000  0.5184700000000 1.0
C      1  0.4978680000000  0.4707270000000  0.4629260000000 1.0
C      1  0.4986660000000  0.5357910000000  0.5266770000000 1.0
C      1  0.4760500000000  0.4748870000000  0.4007720000000 1.0
C      1  0.5227640000000  0.5181500000000  0.5957070000000 1.0
C      1  0.4536450000000  0.4596770000000  0.5238620000000 1.0
C      1  0.5415130000000  0.5424370000000  0.4732620000000 1.0
C      1  0.5743920000000  0.4725570000000  0.5791720000000 1.0
C      1  0.4269700000000  0.5196780000000  0.4273170000000 1.0
C      1  0.5435840000000  0.5606910000000  0.4505500000000 1.0
C      1  0.4527430000000  0.4433030000000  0.5479940000000 1.0
C      1  0.5261140000000  0.4255290000000  0.5479530000000 1.0
C      1  0.4707850000000  0.5796040000000  0.4380160000000 1.0
C      1  0.4753190000000  0.5892640000000  0.5461360000000 1.0
C      1  0.5280800000000  0.4265150000000  0.4721190000000 1.0
C      1  0.4468150000000  0.5639870000000  0.4419160000000 1.0
C      1  0.5516660000000  0.4375500000000  0.5518530000000 1.0
C      1  0.5073400000000  0.5939760000000  0.5080650000000 1.0
C      1  0.4908990000000  0.4064550000000  0.4963680000000 1.0
C      1  0.4692720000000  0.4531220000000  0.4181660000000 1.0
C      1  0.5366480000000  0.5412780000000  0.5855870000000 1.0
C      1  0.4255560000000  0.5381420000000  0.5252070000000 1.0
C      1  0.5720380000000  0.4726760000000  0.4783550000000 1.0
C      1  0.4463810000000  0.3846660000000  0.4549500000000 1.0
C      1  0.5566240000000  0.6207990000000  0.5597880000000 1.0
C      1  0.5221350000000  0.4953940000000  0.5787220000000 1.0
C      1  0.4751680000000  0.5021540000000  0.4086660000000 1.0
C      1  0.5405920000000  0.5609140000000  0.4952330000000 1.0
C      1  0.4547480000000  0.4398270000000  0.5024960000000 1.0
C      1  0.4196780000000  0.4940620000000  0.4251230000000 1.0
C      1  0.5863490000000  0.4960270000000  0.5830320000000 1.0
C      1  0.5362990000000  0.4974410000000  0.4572950000000 1.0
C      1  0.4622570000000  0.5058920000000  0.5383810000000 1.0
C      1  0.5288190000000  0.4492180000000  0.4902870000000 1.0
C      1  0.4655880000000  0.5545280000000  0.4990390000000 1.0
C      1  0.5883830000000  0.5239520000000  0.5854460000000 1.0
C      1  0.4208100000000  0.4660340000000  0.4223450000000 1.0
C      1  0.5867950000000  0.4439870000000  0.5152290000000 1.0
C      1  0.4105630000000  0.5592890000000  0.4803730000000 1.0
C      1  0.4735900000000  0.5288950000000  0.4184520000000 1.0
C      1  0.5260590000000  0.4671900000000  0.5822150000000 1.0
C      1  0.4479010000000  0.5384540000000  0.4284940000000 1.0
C      1  0.5516850000000  0.4574390000000  0.5727020000000 1.0
C      1  0.4475680000000  0.5126630000000  0.4848420000000 1.0
C      1  0.5449600000000  0.4888600000000  0.5146820000000 1.0
C      1  0.5623510000000  0.5104770000000  0.5190380000000 1.0
C      1  0.4287090000000  0.4922180000000  0.4827760000000 1.0
C      1  0.3876330000000  0.5722520000000  0.5225060000000 1.0
C      1  0.6032420000000  0.4348450000000  0.4687770000000 1.0
C      1  0.5029450000000  0.4122750000000  0.4712830000000 1.0
C      1  0.5018300000000  0.5913960000000  0.5362630000000 1.0
C      1  0.5193750000000  0.4898060000000  0.5265090000000 1.0
C      1  0.4726300000000  0.5100560000000  0.4714070000000 1.0
C      1  0.5035080000000  0.4634000000000  0.4899490000000 1.0
C      1  0.4913010000000  0.5426460000000  0.5004840000000 1.0
C      1  0.4704670000000  0.4823820000000  0.5242690000000 1.0
C      1  0.5242760000000  0.5200980000000  0.4701430000000 1.0
C      1  0.5651720000000  0.4924490000000  0.4581050000000 1.0
C      1  0.4337780000000  0.5128180000000  0.5429060000000 1.0
C      1  0.5416370000000  0.4298510000000  0.4471300000000 1.0
C      1  0.4582740000000  0.5686100000000  0.5551890000000 1.0
C      1  0.4719030000000  0.5456960000000  0.5651500000000 1.0
C      1  0.5346070000000  0.4542830000000  0.4345770000000 1.0
C      1  0.5182310000000  0.5008550000000  0.5517520000000 1.0
C      1  0.4759130000000  0.4863230000000  0.4575740000000 1.0
C      1  0.4434830000000  0.4512570000000  0.4312690000000 1.0
C      1  0.5647110000000  0.5390800000000  0.5856400000000 1.0
C      1  0.5603950000000  0.5596460000000  0.5151430000000 1.0
C      1  0.4377850000000  0.4445900000000  0.4803140000000 1.0
C      1  0.4805750000000  0.5263900000000  0.5464360000000 1.0
C      1  0.5211820000000  0.4756880000000  0.4472800000000 1.0
C      1  0.5002910000000  0.4320750000000  0.5582870000000 1.0
C      1  0.4971530000000  0.5690690000000  0.4370130000000 1.0
C      1  0.4005170000000  0.5484070000000  0.5083180000000 1.0
C      1  0.5961350000000  0.4567370000000  0.4883360000000 1.0
C      1  0.3801760000000  0.5269430000000  0.5048960000000 1.0
C      1  0.6194930000000  0.4743690000000  0.4930990000000 1.0
C      1  0.4762300000000  0.4259020000000  0.5435620000000 1.0
C      1  0.5188100000000  0.5767760000000  0.4551460000000 1.0
C      1  0.5650600000000  0.5549560000000  0.4335550000000 1.0
C      1  0.4328720000000  0.4505510000000  0.5661790000000 1.0
C      1  0.5015920000000  0.4515660000000  0.5802450000000 1.0
C      1  0.4978860000000  0.5447650000000  0.4203320000000 1.0
C      1  0.5241470000000  0.5634570000000  0.5730540000000 1.0
C      1  0.4878920000000  0.4327010000000  0.4262560000000 1.0
C      1  0.4568230000000  0.4766780000000  0.5960190000000 1.0
C      1  0.5451570000000  0.5243280000000  0.4048060000000 1.0
C      1  0.6243450000000  0.5212140000000  0.5114760000000 1.0
C      1  0.3714460000000  0.4777750000000  0.4949890000000 1.0
C      1  0.5488190000000  0.5970430000000  0.5490290000000 1.0
C      1  0.4573850000000  0.4094700000000  0.4531020000000 1.0
C      1  0.4232860000000  0.4982970000000  0.5649960000000 1.0
C      1  0.5782980000000  0.5078590000000  0.4381330000000 1.0
C      1  0.4967560000000  0.5241720000000  0.4791560000000 1.0
C      1  0.4968100000000  0.4786780000000  0.5132620000000 1.0
C      1  0.5646930000000  0.5818680000000  0.5316060000000 1.0
C      1  0.4426030000000  0.4339320000000  0.4545350000000 1.0
C      1  0.5582470000000  0.4112950000000  0.4362190000000 1.0
C      1  0.4335270000000  0.5618140000000  0.5431250000000 1.0
C      1  0.4852630000000  0.4146910000000  0.4484230000000 1.0
C      1  0.5234620000000  0.5850510000000  0.5545040000000 1.0
C      1  0.5672730000000  0.5289290000000  0.4220520000000 1.0
C      1  0.4339280000000  0.4758280000000  0.5792250000000 1.0
C      1  0.5109180000000  0.5182940000000  0.6203100000000 1.0
C      1  0.4836940000000  0.4690560000000  0.3750450000000 1.0
C      1  0.4455290000000  0.5343590000000  0.5025770000000 1.0
C      1  0.5499470000000  0.4676730000000  0.4962650000000 1.0
C      1  0.6031450000000  0.5359090000000  0.5181640000000 1.0
C      1  0.3916600000000  0.4619920000000  0.4874200000000 1.0
C      1  0.6301800000000  0.4971870000000  0.5015510000000 1.0
C      1  0.3683060000000  0.5034450000000  0.5015080000000 1.0
C      1  0.6127690000000  0.5361000000000  0.5874920000000 1.0
C      1  0.3998250000000  0.4527350000000  0.4107900000000 1.0
C      1  0.5752660000000  0.4299460000000  0.5371820000000 1.0
C      1  0.4339330000000  0.5696610000000  0.4671790000000 1.0
C      1  0.5879520000000  0.4068500000000  0.5452230000000 1.0
C      1  0.4544750000000  0.5767860000000  0.4862350000000 1.0
C      1  0.5206230000000  0.5814590000000  0.4861710000000 1.0
C      1  0.4737870000000  0.4199890000000  0.5140330000000 1.0
C      1  0.4795340000000  0.4620400000000  0.5945810000000 1.0
C      1  0.5203570000000  0.5348850000000  0.4063350000000 1.0
END
