TITL C-3201379-3821-1477 -1.85190325125901e-07 125000 -219.886058054839 0 0 37 (C1) n - 1
REM
REM in /home/nfs/bkarasulu/CARBON/AIRSS/Generating-Clusters/LCBOP/Higher-Symm/SD-CG/FIRE-CG
REM
REM
REM
REM
REM
REM ./C.cell (b20cbc046b6831c77cfcea5457e17084)
REM AIRSS Version 0.9.1 bugfix July 2018 build 013d7b7c2542+ Fri, 06 Jul 2018 19:26:36 +0100
REM compiler GCC version 9.2.1 20190827 (Red Hat 9.2.1-1)
REM options -cpp -mtune=generic -march=x86-64 -g -O0 -fpre-include=/usr/include/finclude/math-vector-fortran.h
REM seed 180205272 581673689 1062376523 1893051265 1622993024 -1796524029 -934667128 1919005475 629693662 -1462790829 -1905262340 -526832864 -595887185 -2082677358 -547857931 1927141517 -1851150417 -1653183444 -1437588383 1576073029 1462212117 111985960 849791029 1102273644 986491426 246690098 -2108353095 -2127875064 -1709064255 1587642461 -251654468 -789827275 -1155967661
REM
CELL 1.54180   50.00000   50.00000   50.00000   90.00000   90.00000   90.00000
LATT -1
SFAC C  
C      1  0.5032040000000  0.5448640000000  0.4586640000000 1.0
C      1  0.5011870000000  0.4911740000000  0.4454020000000 1.0
C      1  0.4918170000000  0.4542460000000  0.4842220000000 1.0
C      1  0.5077740000000  0.4636470000000  0.5357340000000 1.0
C      1  0.4841870000000  0.5046180000000  0.5624420000000 1.0
C      1  0.4985280000000  0.5512840000000  0.5254170000000 1.0
C      1  0.4394620000000  0.4820010000000  0.5236180000000 1.0
C      1  0.5492090000000  0.5149250000000  0.5099710000000 1.0
C      1  0.4460440000000  0.5169420000000  0.4869730000000 1.0
C      1  0.5580260000000  0.4903400000000  0.4685250000000 1.0
C      1  0.4419380000000  0.4897020000000  0.4958090000000 1.0
C      1  0.5557740000000  0.4891120000000  0.4977680000000 1.0
C      1  0.5258280000000  0.4494720000000  0.5182000000000 1.0
C      1  0.4724270000000  0.4781140000000  0.5654490000000 1.0
C      1  0.5176560000000  0.5385870000000  0.5452340000000 1.0
C      1  0.4829250000000  0.5558440000000  0.4762790000000 1.0
C      1  0.5222100000000  0.5070610000000  0.4330470000000 1.0
C      1  0.4708760000000  0.4580010000000  0.4647090000000 1.0
C      1  0.4766490000000  0.5324320000000  0.5251760000000 1.0
C      1  0.5152090000000  0.5252710000000  0.4764980000000 1.0
C      1  0.5034880000000  0.4997710000000  0.4733910000000 1.0
C      1  0.4967030000000  0.4816720000000  0.4931110000000 1.0
C      1  0.4961830000000  0.4857890000000  0.5205370000000 1.0
C      1  0.4826030000000  0.5066960000000  0.5332900000000 1.0
C      1  0.4945720000000  0.5664920000000  0.5011980000000 1.0
C      1  0.5132240000000  0.5353080000000  0.4330360000000 1.0
C      1  0.4817460000000  0.4710150000000  0.4413920000000 1.0
C      1  0.5106400000000  0.4370550000000  0.4967130000000 1.0
C      1  0.4929700000000  0.4585510000000  0.5595170000000 1.0
C      1  0.5040300000000  0.5250050000000  0.5679770000000 1.0
C      1  0.5490780000000  0.4644990000000  0.5105850000000 1.0
C      1  0.4483520000000  0.4757660000000  0.5488380000000 1.0
C      1  0.5412050000000  0.5248300000000  0.5354380000000 1.0
C      1  0.4589250000000  0.5396130000000  0.4789180000000 1.0
C      1  0.5479120000000  0.4991310000000  0.4444340000000 1.0
C      1  0.4471510000000  0.4690410000000  0.4764350000000 1.0
C      1  0.5386390000000  0.5316820000000  0.4898180000000 1.0
END
