TITL C-3201373-1215-484 3325.54716091083 125000 -1066.85650165808 0 0 173 (C1) n - 1
REM
REM in /home/nfs/bkarasulu/CARBON/AIRSS/Generating-Clusters/LCBOP/Higher-Symm/SD-CG/FIRE-CG
REM
REM
REM
REM
REM
REM ./C.cell (b20cbc046b6831c77cfcea5457e17084)
REM AIRSS Version 0.9.1 bugfix July 2018 build 013d7b7c2542+ Fri, 06 Jul 2018 19:26:36 +0100
REM compiler GCC version 9.2.1 20190827 (Red Hat 9.2.1-1)
REM options -cpp -mtune=generic -march=x86-64 -g -O0 -fpre-include=/usr/include/finclude/math-vector-fortran.h
REM seed 282386520 -1893210745 1738045026 1746917969 1230426284 1118816648 -506813796 880948903 -2091286885 2009440742 -2082016382 -1859928948 -1958402585 685404151 473751532 1471489590 -770311439 1365883861 917266182 -1007359552 1061584795 13191461 324538969 -1547502412 1227495886 -1445375908 2060600577 937802263 1790143657 761492282 529486504 -1904435398 -1702755566
REM
CELL 1.54180   50.00000   50.00000   50.00000   90.00000   90.00000   90.00000
LATT -1
SFAC C  
C      1  0.4751350000000  0.5610380000000  0.4227840000000 1.0
C      1  0.4198110000000  0.4598140000000  0.5905500000000 1.0
C      1  0.5524790000000  0.3660990000000  0.4893260000000 1.0
C      1  0.5287770000000  0.4650170000000  0.3647380000000 1.0
C      1  0.5191520000000  0.5684500000000  0.5842650000000 1.0
C      1  0.4977840000000  0.3287230000000  0.5378360000000 1.0
C      1  0.6350720000000  0.5276170000000  0.5282190000000 1.0
C      1  0.5868850000000  0.4878530000000  0.4299110000000 1.0
C      1  0.4117320000000  0.5283950000000  0.4245500000000 1.0
C      1  0.4591990000000  0.6334760000000  0.4775210000000 1.0
C      1  0.3269760000000  0.4645310000000  0.5117180000000 1.0
C      1  0.5612860000000  0.5813370000000  0.5218610000000 1.0
C      1  0.5663920000000  0.4911110000000  0.4107590000000 1.0
C      1  0.4989400000000  0.3547550000000  0.5380180000000 1.0
C      1  0.4485820000000  0.6565270000000  0.4716030000000 1.0
C      1  0.4390750000000  0.5228360000000  0.4128910000000 1.0
C      1  0.6594560000000  0.5353140000000  0.5332450000000 1.0
C      1  0.4333930000000  0.4786040000000  0.6066990000000 1.0
C      1  0.5217730000000  0.5824700000000  0.5608680000000 1.0
C      1  0.4754380000000  0.5861810000000  0.4372140000000 1.0
C      1  0.5359200000000  0.4499220000000  0.3447320000000 1.0
C      1  0.5624130000000  0.3430950000000  0.4821720000000 1.0
C      1  0.3504990000000  0.4743890000000  0.5063670000000 1.0
C      1  0.5697400000000  0.5539910000000  0.5236910000000 1.0
C      1  0.5489780000000  0.5819900000000  0.4035160000000 1.0
C      1  0.4024840000000  0.5622180000000  0.5675660000000 1.0
C      1  0.5771120000000  0.4174250000000  0.5613080000000 1.0
C      1  0.4653910000000  0.4418200000000  0.4215410000000 1.0
C      1  0.4428250000000  0.5806390000000  0.5879570000000 1.0
C      1  0.5520170000000  0.4405370000000  0.5975890000000 1.0
C      1  0.5895500000000  0.4645950000000  0.5727230000000 1.0
C      1  0.5810420000000  0.5552770000000  0.4263320000000 1.0
C      1  0.4191480000000  0.4554880000000  0.4301220000000 1.0
C      1  0.4255730000000  0.5999800000000  0.5448660000000 1.0
C      1  0.4406560000000  0.4206810000000  0.4599090000000 1.0
C      1  0.5695720000000  0.5998160000000  0.4446040000000 1.0
C      1  0.5685130000000  0.5615060000000  0.4014920000000 1.0
C      1  0.5558320000000  0.4165420000000  0.5808080000000 1.0
C      1  0.4014540000000  0.5861980000000  0.5527090000000 1.0
C      1  0.4416610000000  0.4558680000000  0.4130540000000 1.0
C      1  0.5697260000000  0.4642380000000  0.5938910000000 1.0
C      1  0.4231120000000  0.5606740000000  0.5885940000000 1.0
C      1  0.4453040000000  0.5996440000000  0.5655710000000 1.0
C      1  0.5492610000000  0.6006120000000  0.4257330000000 1.0
C      1  0.4634900000000  0.4217960000000  0.4417490000000 1.0
C      1  0.5944960000000  0.4403500000000  0.5593940000000 1.0
C      1  0.4188220000000  0.4392050000000  0.4544190000000 1.0
C      1  0.5892580000000  0.5773450000000  0.4423200000000 1.0
C      1  0.5208260000000  0.4505110000000  0.4543770000000 1.0
C      1  0.4444810000000  0.5053260000000  0.4597330000000 1.0
C      1  0.4641380000000  0.4136140000000  0.5501200000000 1.0
C      1  0.4698540000000  0.5412890000000  0.4422590000000 1.0
C      1  0.4772800000000  0.4529540000000  0.5845910000000 1.0
C      1  0.5016450000000  0.5235330000000  0.5570070000000 1.0
C      1  0.5577650000000  0.4783220000000  0.4642380000000 1.0
C      1  0.5474590000000  0.5171680000000  0.5492180000000 1.0
C      1  0.4335090000000  0.4507330000000  0.5665110000000 1.0
C      1  0.5222000000000  0.5417710000000  0.5176270000000 1.0
C      1  0.5545590000000  0.4399440000000  0.4849820000000 1.0
C      1  0.4572550000000  0.5400460000000  0.4859710000000 1.0
C      1  0.4541800000000  0.5184180000000  0.4369340000000 1.0
C      1  0.5351360000000  0.4273970000000  0.4671330000000 1.0
C      1  0.4427570000000  0.4335850000000  0.5440120000000 1.0
C      1  0.5361400000000  0.4741650000000  0.4464300000000 1.0
C      1  0.4572210000000  0.4666020000000  0.5693880000000 1.0
C      1  0.5271050000000  0.5200170000000  0.5689310000000 1.0
C      1  0.4782350000000  0.5445390000000  0.4683780000000 1.0
C      1  0.4990750000000  0.5404790000000  0.5346370000000 1.0
C      1  0.4835180000000  0.4301380000000  0.5666070000000 1.0
C      1  0.5475790000000  0.5387230000000  0.5314070000000 1.0
C      1  0.4349190000000  0.5279940000000  0.4747160000000 1.0
C      1  0.5743730000000  0.4564910000000  0.4727610000000 1.0
C      1  0.5352460000000  0.5920250000000  0.5129080000000 1.0
C      1  0.5078730000000  0.5456270000000  0.5997150000000 1.0
C      1  0.6087980000000  0.5193410000000  0.5226660000000 1.0
C      1  0.4775850000000  0.3976090000000  0.5279690000000 1.0
C      1  0.4703150000000  0.6084030000000  0.4839820000000 1.0
C      1  0.5410810000000  0.3902010000000  0.4977140000000 1.0
C      1  0.4843800000000  0.4741360000000  0.6044790000000 1.0
C      1  0.4836400000000  0.5440840000000  0.3994720000000 1.0
C      1  0.5211400000000  0.4810150000000  0.3864660000000 1.0
C      1  0.3882360000000  0.5019030000000  0.5187920000000 1.0
C      1  0.3973580000000  0.5218420000000  0.4514650000000 1.0
C      1  0.5990460000000  0.4942280000000  0.4585630000000 1.0
C      1  0.5913320000000  0.5389720000000  0.5110930000000 1.0
C      1  0.5240920000000  0.5212930000000  0.5972500000000 1.0
C      1  0.5138610000000  0.5921030000000  0.5339180000000 1.0
C      1  0.3760170000000  0.4843040000000  0.5006140000000 1.0
C      1  0.5982250000000  0.4718680000000  0.4810680000000 1.0
C      1  0.4074760000000  0.5346300000000  0.4774120000000 1.0
C      1  0.4596410000000  0.4937910000000  0.6069100000000 1.0
C      1  0.5406760000000  0.4992160000000  0.3970050000000 1.0
C      1  0.4629240000000  0.5219600000000  0.3935640000000 1.0
C      1  0.5012830000000  0.3827040000000  0.5368070000000 1.0
C      1  0.5233340000000  0.4042460000000  0.4799270000000 1.0
C      1  0.4858380000000  0.5960570000000  0.4631010000000 1.0
C      1  0.4878580000000  0.4449760000000  0.5196110000000 1.0
C      1  0.4998430000000  0.4588400000000  0.4725190000000 1.0
C      1  0.4606970000000  0.4889830000000  0.4761930000000 1.0
C      1  0.5228280000000  0.5348550000000  0.4902500000000 1.0
C      1  0.5373290000000  0.4555790000000  0.5038130000000 1.0
C      1  0.4648780000000  0.5242970000000  0.5076960000000 1.0
C      1  0.5023670000000  0.5053190000000  0.4582750000000 1.0
C      1  0.5207350000000  0.4569900000000  0.5513890000000 1.0
C      1  0.4795450000000  0.5071420000000  0.5611550000000 1.0
C      1  0.5537410000000  0.4966300000000  0.4864680000000 1.0
C      1  0.5445310000000  0.4930150000000  0.5353560000000 1.0
C      1  0.4559320000000  0.4805030000000  0.5258830000000 1.0
C      1  0.4565100000000  0.4505640000000  0.5210270000000 1.0
C      1  0.4864700000000  0.4828510000000  0.4665910000000 1.0
C      1  0.5073280000000  0.4523420000000  0.4995680000000 1.0
C      1  0.5456220000000  0.5225960000000  0.4789350000000 1.0
C      1  0.4595240000000  0.4969790000000  0.5039080000000 1.0
C      1  0.5491100000000  0.4819990000000  0.5098730000000 1.0
C      1  0.5262640000000  0.5016570000000  0.4430450000000 1.0
C      1  0.4618390000000  0.4876890000000  0.5524140000000 1.0
C      1  0.5187210000000  0.4823730000000  0.5410000000000 1.0
C      1  0.5011050000000  0.5298610000000  0.4734980000000 1.0
C      1  0.4719260000000  0.5410370000000  0.5284790000000 1.0
C      1  0.4998610000000  0.4403280000000  0.5454560000000 1.0
C      1  0.5931340000000  0.5234470000000  0.4621680000000 1.0
C      1  0.4647570000000  0.5990160000000  0.5108040000000 1.0
C      1  0.5125760000000  0.4740170000000  0.6112510000000 1.0
C      1  0.3916200000000  0.4928810000000  0.4529630000000 1.0
C      1  0.4005530000000  0.5255560000000  0.5277450000000 1.0
C      1  0.6022910000000  0.4920690000000  0.5290960000000 1.0
C      1  0.5472960000000  0.4002430000000  0.5240040000000 1.0
C      1  0.5357230000000  0.5957470000000  0.4836560000000 1.0
C      1  0.4732040000000  0.3998270000000  0.4979940000000 1.0
C      1  0.4784960000000  0.5455440000000  0.5989280000000 1.0
C      1  0.4943980000000  0.4782460000000  0.3962660000000 1.0
C      1  0.5127770000000  0.5460940000000  0.3960820000000 1.0
C      1  0.5145870000000  0.5968700000000  0.4629680000000 1.0
C      1  0.6009540000000  0.4688830000000  0.5107600000000 1.0
C      1  0.4571450000000  0.5234220000000  0.5978590000000 1.0
C      1  0.4950390000000  0.4005010000000  0.4775810000000 1.0
C      1  0.5268160000000  0.3942600000000  0.5443300000000 1.0
C      1  0.4847930000000  0.5972600000000  0.5328560000000 1.0
C      1  0.4077130000000  0.5449080000000  0.5064560000000 1.0
C      1  0.5943650000000  0.5436990000000  0.4830990000000 1.0
C      1  0.3887060000000  0.4763340000000  0.4765350000000 1.0
C      1  0.5310870000000  0.4965820000000  0.6094650000000 1.0
C      1  0.4698970000000  0.4932730000000  0.3901100000000 1.0
C      1  0.5354810000000  0.5271360000000  0.3907510000000 1.0
C      1  0.5342230000000  0.4002290000000  0.5714150000000 1.0
C      1  0.5599870000000  0.5407890000000  0.3845110000000 1.0
C      1  0.4285810000000  0.5640760000000  0.5163380000000 1.0
C      1  0.4724110000000  0.5969020000000  0.5590650000000 1.0
C      1  0.4850010000000  0.4058280000000  0.4510210000000 1.0
C      1  0.5237390000000  0.5974180000000  0.4358630000000 1.0
C      1  0.4467830000000  0.4757070000000  0.3930980000000 1.0
C      1  0.4314250000000  0.5327580000000  0.5839650000000 1.0
C      1  0.5585540000000  0.4878280000000  0.6059520000000 1.0
C      1  0.5932800000000  0.4432110000000  0.5233980000000 1.0
C      1  0.5884120000000  0.5699400000000  0.4751730000000 1.0
C      1  0.4001390000000  0.4499910000000  0.4734520000000 1.0
C      1  0.4083100000000  0.5297960000000  0.5548930000000 1.0
C      1  0.5225280000000  0.5725600000000  0.4037670000000 1.0
C      1  0.5713760000000  0.4145320000000  0.5322630000000 1.0
C      1  0.5970710000000  0.4867810000000  0.5568560000000 1.0
C      1  0.4004650000000  0.4770870000000  0.4305320000000 1.0
C      1  0.5731860000000  0.5323050000000  0.4416950000000 1.0
C      1  0.4889110000000  0.4541110000000  0.4112820000000 1.0
C      1  0.5268770000000  0.4484250000000  0.6097260000000 1.0
C      1  0.4689700000000  0.5715970000000  0.5906390000000 1.0
C      1  0.4362260000000  0.5924570000000  0.5182570000000 1.0
C      1  0.5628960000000  0.5946160000000  0.4726130000000 1.0
C      1  0.4475410000000  0.4057440000000  0.4845200000000 1.0
C      1  0.4476640000000  0.5528770000000  0.5355820000000 1.0
C      1  0.5458380000000  0.4483610000000  0.5535170000000 1.0
C      1  0.5468390000000  0.5231010000000  0.4492470000000 1.0
C      1  0.4407070000000  0.4476310000000  0.4962980000000 1.0
C      1  0.5002160000000  0.4911550000000  0.5232990000000 1.0
END
