TITL C-3201377-4638-2272 1.90282596969734e-06 125000 -226.146055843829 0 0 40 (C1) n - 1
REM
REM in /home/nfs/bkarasulu/CARBON/AIRSS/Generating-Clusters/LCBOP/Higher-Symm/SD-CG/FIRE-CG
REM
REM
REM
REM
REM
REM ./C.cell (b20cbc046b6831c77cfcea5457e17084)
REM AIRSS Version 0.9.1 bugfix July 2018 build 013d7b7c2542+ Fri, 06 Jul 2018 19:26:36 +0100
REM compiler GCC version 9.2.1 20190827 (Red Hat 9.2.1-1)
REM options -cpp -mtune=generic -march=x86-64 -g -O0 -fpre-include=/usr/include/finclude/math-vector-fortran.h
REM seed -166444183 -2034015094 891931603 -1523597518 424952618 -1258585105 -1801176986 1280532755 -1107360687 -522515221 1655016353 322397507 -51681964 -1827536477 1660146761 -1717505366 1426710541 2038990265 -2059576587 1568241158 554271356 -163880994 -1391263309 1188310768 629518687 -1806137094 -10816596 1731740478 -1135372550 2078939450 -1013562381 -363459410 -967628401
REM
CELL 1.54180   50.00000   50.00000   50.00000   90.00000   90.00000   90.00000
LATT -1
SFAC C  
C      1  0.5029300000000  0.4428370000000  0.4685780000000 1.0
C      1  0.5267230000000  0.5609700000000  0.5031500000000 1.0
C      1  0.4941250000000  0.4380760000000  0.5261140000000 1.0
C      1  0.4692670000000  0.5597700000000  0.4944980000000 1.0
C      1  0.5040500000000  0.5095310000000  0.4610820000000 1.0
C      1  0.5468580000000  0.4862710000000  0.5032590000000 1.0
C      1  0.4991260000000  0.5089590000000  0.5488280000000 1.0
C      1  0.4555940000000  0.4941210000000  0.4993430000000 1.0
C      1  0.4825060000000  0.5286320000000  0.4568710000000 1.0
C      1  0.5458410000000  0.4672110000000  0.4811700000000 1.0
C      1  0.5184590000000  0.5302410000000  0.5424830000000 1.0
C      1  0.4564820000000  0.4726470000000  0.5188510000000 1.0
C      1  0.5635340000000  0.5326890000000  0.5616430000000 1.0
C      1  0.4350870000000  0.4711430000000  0.5630070000000 1.0
C      1  0.4416690000000  0.5226920000000  0.4303820000000 1.0
C      1  0.5666130000000  0.4728380000000  0.4370680000000 1.0
C      1  0.4723410000000  0.5023170000000  0.5568790000000 1.0
C      1  0.4446780000000  0.5012380000000  0.4742310000000 1.0
C      1  0.5255020000000  0.4970230000000  0.4478600000000 1.0
C      1  0.5584710000000  0.5044610000000  0.5222070000000 1.0
C      1  0.5470490000000  0.5225300000000  0.5420710000000 1.0
C      1  0.4543200000000  0.4818360000000  0.5466100000000 1.0
C      1  0.4558430000000  0.5176280000000  0.4532410000000 1.0
C      1  0.5466100000000  0.4788610000000  0.4546730000000 1.0
C      1  0.5046040000000  0.4360390000000  0.4422360000000 1.0
C      1  0.5520240000000  0.5704880000000  0.5066530000000 1.0
C      1  0.4902640000000  0.4279590000000  0.5511370000000 1.0
C      1  0.4435290000000  0.5681700000000  0.4915100000000 1.0
C      1  0.4797990000000  0.5075370000000  0.5030900000000 1.0
C      1  0.5027680000000  0.5034080000000  0.4884800000000 1.0
C      1  0.5193800000000  0.4905020000000  0.5071120000000 1.0
C      1  0.5049480000000  0.4893320000000  0.5297900000000 1.0
C      1  0.4730090000000  0.4500820000000  0.5103050000000 1.0
C      1  0.4866360000000  0.5529240000000  0.4723830000000 1.0
C      1  0.5259840000000  0.4458070000000  0.4859380000000 1.0
C      1  0.5099000000000  0.5515010000000  0.5247730000000 1.0
C      1  0.5136460000000  0.5610150000000  0.4777070000000 1.0
C      1  0.5195400000000  0.4370130000000  0.5125960000000 1.0
C      1  0.4823350000000  0.5576150000000  0.5199430000000 1.0
C      1  0.4779570000000  0.4460860000000  0.4822460000000 1.0
END
