TITL C-3201379-3821-1262 -5.33662824418153e-07 125000 -703.564804677243 0 0 113 (C1) n - 1
REM
REM in /home/nfs/bkarasulu/CARBON/AIRSS/Generating-Clusters/LCBOP/Higher-Symm/SD-CG/FIRE-CG
REM
REM
REM
REM
REM
REM ./C.cell (b20cbc046b6831c77cfcea5457e17084)
REM AIRSS Version 0.9.1 bugfix July 2018 build 013d7b7c2542+ Fri, 06 Jul 2018 19:26:36 +0100
REM compiler GCC version 9.2.1 20190827 (Red Hat 9.2.1-1)
REM options -cpp -mtune=generic -march=x86-64 -g -O0 -fpre-include=/usr/include/finclude/math-vector-fortran.h
REM seed 261827239 -2028277488 663675843 -1454747642 2003909189 -1578176695 518626833 -1749350076 -316569462 -1476697291 -1447933828 76125773 -688664317 947288700 1743684833 -1541441615 -1569621682 998711050 1399691348 810602515 699057871 -231154394 908404824 1217867877 -1671002219 374991489 -1960589372 -209938288 -920946122 1945676115 -1489983872 -615008035 1341271326
REM
CELL 1.54180   50.00000   50.00000   50.00000   90.00000   90.00000   90.00000
LATT -1
SFAC C  
C      1  0.5468660000000  0.5754700000000  0.5475390000000 1.0
C      1  0.5532410000000  0.4099160000000  0.5356820000000 1.0
C      1  0.5519060000000  0.5258740000000  0.3963130000000 1.0
C      1  0.4727920000000  0.5980850000000  0.5155900000000 1.0
C      1  0.4698690000000  0.4426530000000  0.5836630000000 1.0
C      1  0.4730620000000  0.4653030000000  0.4034120000000 1.0
C      1  0.5002170000000  0.4837000000000  0.5827550000000 1.0
C      1  0.5133270000000  0.4508310000000  0.4311050000000 1.0
C      1  0.5098890000000  0.5812170000000  0.4887340000000 1.0
C      1  0.5561950000000  0.4238220000000  0.5098300000000 1.0
C      1  0.5444950000000  0.5503310000000  0.4047640000000 1.0
C      1  0.5518520000000  0.5457830000000  0.5595270000000 1.0
C      1  0.4784800000000  0.5393470000000  0.5878190000000 1.0
C      1  0.4811680000000  0.4088370000000  0.4879920000000 1.0
C      1  0.4731900000000  0.5566240000000  0.4296060000000 1.0
C      1  0.5688150000000  0.4516050000000  0.5128060000000 1.0
C      1  0.5781120000000  0.5064490000000  0.4714970000000 1.0
C      1  0.5736460000000  0.5233860000000  0.5422450000000 1.0
C      1  0.5813310000000  0.5317080000000  0.5151110000000 1.0
C      1  0.5717230000000  0.4674440000000  0.5386130000000 1.0
C      1  0.5754220000000  0.4777920000000  0.4649560000000 1.0
C      1  0.5443560000000  0.4988910000000  0.4006280000000 1.0
C      1  0.5666370000000  0.5881660000000  0.5317530000000 1.0
C      1  0.5724070000000  0.4099380000000  0.5566070000000 1.0
C      1  0.5279550000000  0.5182030000000  0.4609420000000 1.0
C      1  0.5161700000000  0.4970760000000  0.5393590000000 1.0
C      1  0.5198800000000  0.4693070000000  0.5023770000000 1.0
C      1  0.5013640000000  0.4573590000000  0.4853090000000 1.0
C      1  0.5099030000000  0.5374340000000  0.4703610000000 1.0
C      1  0.4947200000000  0.4985830000000  0.5583030000000 1.0
C      1  0.5649400000000  0.4688860000000  0.4908780000000 1.0
C      1  0.5934610000000  0.5173520000000  0.4932220000000 1.0
C      1  0.5769200000000  0.4950760000000  0.5449470000000 1.0
C      1  0.4477570000000  0.4667460000000  0.4179280000000 1.0
C      1  0.4472620000000  0.5830640000000  0.5116350000000 1.0
C      1  0.4451550000000  0.4524550000000  0.5722120000000 1.0
C      1  0.4681260000000  0.5017450000000  0.5472660000000 1.0
C      1  0.4764610000000  0.4584440000000  0.4723650000000 1.0
C      1  0.4833210000000  0.5281390000000  0.4675520000000 1.0
C      1  0.4349560000000  0.4791760000000  0.5178560000000 1.0
C      1  0.4359450000000  0.4878510000000  0.4718840000000 1.0
C      1  0.4392930000000  0.5332190000000  0.4925670000000 1.0
C      1  0.4315830000000  0.4332090000000  0.4992030000000 1.0
C      1  0.4326900000000  0.5301920000000  0.4563280000000 1.0
C      1  0.4480260000000  0.5221860000000  0.5499750000000 1.0
C      1  0.4976210000000  0.5463760000000  0.4149410000000 1.0
C      1  0.5045300000000  0.5505340000000  0.5774460000000 1.0
C      1  0.5071330000000  0.4084130000000  0.5028300000000 1.0
C      1  0.4571340000000  0.5653040000000  0.5532950000000 1.0
C      1  0.4569420000000  0.4204680000000  0.5342320000000 1.0
C      1  0.4512260000000  0.5150980000000  0.4164510000000 1.0
C      1  0.4827740000000  0.4310180000000  0.5368470000000 1.0
C      1  0.4773830000000  0.5068110000000  0.4235470000000 1.0
C      1  0.4811730000000  0.5582940000000  0.5375090000000 1.0
C      1  0.4373090000000  0.5670010000000  0.5331270000000 1.0
C      1  0.4373140000000  0.4396990000000  0.5464370000000 1.0
C      1  0.4345750000000  0.4926660000000  0.4236070000000 1.0
C      1  0.4646630000000  0.4825730000000  0.5244830000000 1.0
C      1  0.4660270000000  0.4850400000000  0.4713560000000 1.0
C      1  0.4691360000000  0.5271740000000  0.4942520000000 1.0
C      1  0.4989980000000  0.5173250000000  0.4084350000000 1.0
C      1  0.5023810000000  0.5659910000000  0.5539320000000 1.0
C      1  0.5045320000000  0.4144940000000  0.5306400000000 1.0
C      1  0.4763890000000  0.5771380000000  0.4499410000000 1.0
C      1  0.4778080000000  0.5155710000000  0.6041540000000 1.0
C      1  0.4838960000000  0.4172450000000  0.4590840000000 1.0
C      1  0.5030460000000  0.5840970000000  0.4600260000000 1.0
C      1  0.5042640000000  0.5025690000000  0.6038250000000 1.0
C      1  0.5100070000000  0.4251850000000  0.4465760000000 1.0
C      1  0.5222760000000  0.5611480000000  0.4182080000000 1.0
C      1  0.5310340000000  0.5382000000000  0.5807580000000 1.0
C      1  0.5338540000000  0.4152710000000  0.4910480000000 1.0
C      1  0.5615930000000  0.5500330000000  0.5059260000000 1.0
C      1  0.5573780000000  0.4544800000000  0.5597140000000 1.0
C      1  0.5576650000000  0.4730900000000  0.4419750000000 1.0
C      1  0.4530430000000  0.5813570000000  0.4647250000000 1.0
C      1  0.4544380000000  0.4976490000000  0.6005910000000 1.0
C      1  0.4650080000000  0.4385100000000  0.4556320000000 1.0
C      1  0.5695620000000  0.5770300000000  0.5071870000000 1.0
C      1  0.5719080000000  0.4328710000000  0.5717290000000 1.0
C      1  0.5623890000000  0.4823990000000  0.4154530000000 1.0
C      1  0.4923690000000  0.4571630000000  0.5875360000000 1.0
C      1  0.5018040000000  0.4668300000000  0.4080120000000 1.0
C      1  0.5028360000000  0.5942300000000  0.5144910000000 1.0
C      1  0.4264410000000  0.4521430000000  0.5216960000000 1.0
C      1  0.4252630000000  0.5017850000000  0.4497560000000 1.0
C      1  0.4337590000000  0.5379390000000  0.5270060000000 1.0
C      1  0.4545770000000  0.4155140000000  0.5044330000000 1.0
C      1  0.4485520000000  0.5399400000000  0.4323580000000 1.0
C      1  0.4556040000000  0.5425830000000  0.5704740000000 1.0
C      1  0.5143760000000  0.4674690000000  0.5321100000000 1.0
C      1  0.5135450000000  0.4947370000000  0.4521440000000 1.0
C      1  0.5122960000000  0.5515660000000  0.4965290000000 1.0
C      1  0.5352400000000  0.5392340000000  0.5104210000000 1.0
C      1  0.5305690000000  0.4488340000000  0.5506510000000 1.0
C      1  0.5286520000000  0.4710280000000  0.4457540000000 1.0
C      1  0.5318580000000  0.5111230000000  0.5194790000000 1.0
C      1  0.5417260000000  0.4902560000000  0.4975700000000 1.0
C      1  0.5498330000000  0.5115240000000  0.4759000000000 1.0
C      1  0.5276870000000  0.4205210000000  0.5447390000000 1.0
C      1  0.5156590000000  0.4937560000000  0.4014430000000 1.0
C      1  0.5193650000000  0.5836270000000  0.5399440000000 1.0
C      1  0.4859270000000  0.5453860000000  0.5121910000000 1.0
C      1  0.4848820000000  0.4592430000000  0.5319600000000 1.0
C      1  0.4830340000000  0.5015470000000  0.4523060000000 1.0
C      1  0.4409040000000  0.4781130000000  0.5862230000000 1.0
C      1  0.4457170000000  0.4453980000000  0.4366130000000 1.0
C      1  0.4424700000000  0.5699890000000  0.4873910000000 1.0
C      1  0.5326970000000  0.4172880000000  0.4626080000000 1.0
C      1  0.5227390000000  0.5801420000000  0.4395040000000 1.0
C      1  0.5285780000000  0.5177080000000  0.6007140000000 1.0
C      1  0.4729590000000  0.4975340000000  0.4995640000000 1.0
C      1  0.4277980000000  0.4972740000000  0.4968360000000 1.0
END
