TITL C-3201379-3821-704 -2183.12083293023 125000 -952.604094847566 0 0 167 (C1) n - 1
REM
REM in /home/nfs/bkarasulu/CARBON/AIRSS/Generating-Clusters/LCBOP/Higher-Symm/SD-CG/FIRE-CG
REM
REM
REM
REM
REM
REM ./C.cell (b20cbc046b6831c77cfcea5457e17084)
REM AIRSS Version 0.9.1 bugfix July 2018 build 013d7b7c2542+ Fri, 06 Jul 2018 19:26:36 +0100
REM compiler GCC version 9.2.1 20190827 (Red Hat 9.2.1-1)
REM options -cpp -mtune=generic -march=x86-64 -g -O0 -fpre-include=/usr/include/finclude/math-vector-fortran.h
REM seed 2007608834 -1046316769 416505723 130932650 -1069382592 -19494372 124525097 1659030789 564532958 -836187897 -270039308 -395377667 -2103289370 -648557010 1561263754 253437734 -1938470692 268799012 -964762891 1027148692 401609826 470366000 971425284 -1422749206 -946632381 -1505072743 961724314 1855803166 1248247172 1267870793 2047235059 2070760571 1358067314
REM
CELL 1.54180   50.00000   50.00000   50.00000   90.00000   90.00000   90.00000
LATT -1
SFAC C  
C      1  0.5411730000000  0.5120160000000  0.4536720000000 1.0
C      1  0.5456580000000  0.4800120000000  0.5437940000000 1.0
C      1  0.4649360000000  0.5167440000000  0.5522140000000 1.0
C      1  0.4499580000000  0.4843370000000  0.4668670000000 1.0
C      1  0.5385310000000  0.4425650000000  0.6040550000000 1.0
C      1  0.4014760000000  0.5553890000000  0.5450610000000 1.0
C      1  0.4575970000000  0.4485600000000  0.4016530000000 1.0
C      1  0.5976730000000  0.5807320000000  0.4125180000000 1.0
C      1  0.5432190000000  0.4695640000000  0.5160200000000 1.0
C      1  0.4926750000000  0.5261600000000  0.5472610000000 1.0
C      1  0.4541250000000  0.4729870000000  0.4939070000000 1.0
C      1  0.5142230000000  0.5232640000000  0.4574690000000 1.0
C      1  0.5216730000000  0.4305240000000  0.5329730000000 1.0
C      1  0.4739940000000  0.5665320000000  0.5295800000000 1.0
C      1  0.4704960000000  0.4328620000000  0.4728950000000 1.0
C      1  0.5339670000000  0.5629040000000  0.4767060000000 1.0
C      1  0.5136240000000  0.4438380000000  0.5567650000000 1.0
C      1  0.4497060000000  0.5535090000000  0.5221330000000 1.0
C      1  0.4788130000000  0.4473450000000  0.4496950000000 1.0
C      1  0.5579030000000  0.5486720000000  0.4838370000000 1.0
C      1  0.4348770000000  0.4878390000000  0.5099080000000 1.0
C      1  0.4975650000000  0.5107870000000  0.4374720000000 1.0
C      1  0.5638060000000  0.4834970000000  0.5012450000000 1.0
C      1  0.5077200000000  0.5112600000000  0.5673550000000 1.0
C      1  0.5821980000000  0.5206210000000  0.4325490000000 1.0
C      1  0.5700240000000  0.4773700000000  0.5855400000000 1.0
C      1  0.4200930000000  0.5183010000000  0.5735760000000 1.0
C      1  0.4277700000000  0.4836700000000  0.4218290000000 1.0
C      1  0.4723660000000  0.6034980000000  0.4493920000000 1.0
C      1  0.5511460000000  0.3949070000000  0.4694910000000 1.0
C      1  0.5363050000000  0.6012090000000  0.5565610000000 1.0
C      1  0.4407990000000  0.3944930000000  0.5315010000000 1.0
C      1  0.4387450000000  0.4410080000000  0.5287440000000 1.0
C      1  0.4689990000000  0.5547680000000  0.4448270000000 1.0
C      1  0.5549100000000  0.4401510000000  0.4779490000000 1.0
C      1  0.5293790000000  0.5555000000000  0.5607340000000 1.0
C      1  0.5030350000000  0.4789610000000  0.3962610000000 1.0
C      1  0.6356670000000  0.5949310000000  0.3784180000000 1.0
C      1  0.4979660000000  0.4790250000000  0.6086440000000 1.0
C      1  0.3947870000000  0.5217150000000  0.5024130000000 1.0
C      1  0.6068860000000  0.5501460000000  0.5749520000000 1.0
C      1  0.4255770000000  0.4445280000000  0.6067410000000 1.0
C      1  0.3910950000000  0.5586770000000  0.4316340000000 1.0
C      1  0.5725880000000  0.4430900000000  0.4014280000000 1.0
C      1  0.4167370000000  0.5562070000000  0.4355930000000 1.0
C      1  0.5659940000000  0.4455500000000  0.4265240000000 1.0
C      1  0.5812450000000  0.5499990000000  0.5702820000000 1.0
C      1  0.4290010000000  0.4446010000000  0.5809030000000 1.0
C      1  0.4105380000000  0.4496310000000  0.4645960000000 1.0
C      1  0.5348690000000  0.5500040000000  0.4150440000000 1.0
C      1  0.5852580000000  0.4440700000000  0.5406700000000 1.0
C      1  0.4655980000000  0.5516190000000  0.5907880000000 1.0
C      1  0.4226270000000  0.4556020000000  0.4358730000000 1.0
C      1  0.5645190000000  0.5463660000000  0.4245380000000 1.0
C      1  0.5734220000000  0.4494960000000  0.5698130000000 1.0
C      1  0.4361330000000  0.5463960000000  0.5790880000000 1.0
C      1  0.4426490000000  0.5532800000000  0.4404810000000 1.0
C      1  0.5592940000000  0.4464340000000  0.4522340000000 1.0
C      1  0.5552760000000  0.5498050000000  0.5647190000000 1.0
C      1  0.4342340000000  0.4451860000000  0.5548730000000 1.0
C      1  0.5194760000000  0.5441480000000  0.6078250000000 1.0
C      1  0.3933140000000  0.4554600000000  0.5187750000000 1.0
C      1  0.4824320000000  0.5459890000000  0.3976720000000 1.0
C      1  0.6022410000000  0.4527530000000  0.4858620000000 1.0
C      1  0.5189720000000  0.6004270000000  0.5032780000000 1.0
C      1  0.4952040000000  0.3944180000000  0.5162070000000 1.0
C      1  0.4889900000000  0.6024380000000  0.5026400000000 1.0
C      1  0.4969550000000  0.3953690000000  0.4860380000000 1.0
C      1  0.4826550000000  0.4828390000000  0.6311670000000 1.0
C      1  0.3718210000000  0.5199980000000  0.4874160000000 1.0
C      1  0.5180800000000  0.4797510000000  0.3732840000000 1.0
C      1  0.6544780000000  0.6018220000000  0.3617360000000 1.0
C      1  0.4715880000000  0.5951670000000  0.4226430000000 1.0
C      1  0.5780320000000  0.4037230000000  0.4697980000000 1.0
C      1  0.5354820000000  0.5927580000000  0.5834610000000 1.0
C      1  0.4143400000000  0.4043450000000  0.5314150000000 1.0
C      1  0.5129440000000  0.5449430000000  0.4762330000000 1.0
C      1  0.5237110000000  0.4490130000000  0.5126690000000 1.0
C      1  0.4947050000000  0.5474970000000  0.5271310000000 1.0
C      1  0.4728210000000  0.4504650000000  0.4948920000000 1.0
C      1  0.5144550000000  0.4162700000000  0.4434540000000 1.0
C      1  0.5619240000000  0.5798550000000  0.5191610000000 1.0
C      1  0.4774050000000  0.4135680000000  0.5592200000000 1.0
C      1  0.4448910000000  0.5842280000000  0.4861390000000 1.0
C      1  0.5217960000000  0.4001910000000  0.4676410000000 1.0
C      1  0.5380470000000  0.5959950000000  0.5273240000000 1.0
C      1  0.4701550000000  0.3987390000000  0.5342830000000 1.0
C      1  0.4700290000000  0.5985040000000  0.4784340000000 1.0
C      1  0.4536540000000  0.3949620000000  0.4534660000000 1.0
C      1  0.5480990000000  0.6031690000000  0.4587950000000 1.0
C      1  0.5386100000000  0.3913950000000  0.5490210000000 1.0
C      1  0.4571420000000  0.6055400000000  0.5464650000000 1.0
C      1  0.5780590000000  0.5725150000000  0.4310470000000 1.0
C      1  0.5538550000000  0.4293010000000  0.5829880000000 1.0
C      1  0.4227840000000  0.5677100000000  0.5607450000000 1.0
C      1  0.4409380000000  0.4351320000000  0.4215990000000 1.0
C      1  0.5053490000000  0.5673240000000  0.5647550000000 1.0
C      1  0.4350360000000  0.4309560000000  0.5038780000000 1.0
C      1  0.4942720000000  0.5637190000000  0.4423320000000 1.0
C      1  0.5594430000000  0.4273150000000  0.5014090000000 1.0
C      1  0.4760670000000  0.4646590000000  0.5437280000000 1.0
C      1  0.4567460000000  0.5321230000000  0.4829870000000 1.0
C      1  0.5179440000000  0.4674700000000  0.4589990000000 1.0
C      1  0.5418890000000  0.5308240000000  0.5223140000000 1.0
C      1  0.5561480000000  0.4994480000000  0.5969160000000 1.0
C      1  0.4077190000000  0.4975070000000  0.5583620000000 1.0
C      1  0.4433530000000  0.5043860000000  0.4103930000000 1.0
C      1  0.5933760000000  0.4987020000000  0.4478480000000 1.0
C      1  0.5897540000000  0.5915420000000  0.4772880000000 1.0
C      1  0.5159380000000  0.3976890000000  0.5892900000000 1.0
C      1  0.4160070000000  0.6010280000000  0.5247390000000 1.0
C      1  0.4761720000000  0.4015480000000  0.4130040000000 1.0
C      1  0.4793600000000  0.4633300000000  0.3959730000000 1.0
C      1  0.6165870000000  0.5878930000000  0.3954180000000 1.0
C      1  0.5186500000000  0.4596600000000  0.6101180000000 1.0
C      1  0.3948220000000  0.5396740000000  0.5243100000000 1.0
C      1  0.4743690000000  0.5745580000000  0.4036860000000 1.0
C      1  0.5966460000000  0.4245240000000  0.4750670000000 1.0
C      1  0.5299440000000  0.5722820000000  0.6022360000000 1.0
C      1  0.3968340000000  0.4262910000000  0.5274270000000 1.0
C      1  0.5192910000000  0.5670240000000  0.4326150000000 1.0
C      1  0.5699330000000  0.4241900000000  0.5260890000000 1.0
C      1  0.4806080000000  0.5707350000000  0.5750830000000 1.0
C      1  0.4250260000000  0.4289870000000  0.4788440000000 1.0
C      1  0.6023320000000  0.4547940000000  0.5173360000000 1.0
C      1  0.4884530000000  0.5412150000000  0.6082030000000 1.0
C      1  0.3935150000000  0.4599950000000  0.4878420000000 1.0
C      1  0.5127400000000  0.5413460000000  0.3963320000000 1.0
C      1  0.5072720000000  0.4781840000000  0.4830550000000 1.0
C      1  0.5239550000000  0.5119940000000  0.5149630000000 1.0
C      1  0.4847780000000  0.4839660000000  0.5269630000000 1.0
C      1  0.4804900000000  0.5200240000000  0.4927370000000 1.0
C      1  0.4759970000000  0.5946680000000  0.5278350000000 1.0
C      1  0.4720490000000  0.4045940000000  0.4731560000000 1.0
C      1  0.5311880000000  0.5911400000000  0.4782150000000 1.0
C      1  0.5199330000000  0.4023340000000  0.5301640000000 1.0
C      1  0.5406630000000  0.4036370000000  0.5752330000000 1.0
C      1  0.4307410000000  0.5938170000000  0.5486310000000 1.0
C      1  0.4521990000000  0.4082310000000  0.4278130000000 1.0
C      1  0.5734950000000  0.5904450000000  0.4536700000000 1.0
C      1  0.5794360000000  0.4990710000000  0.5181170000000 1.0
C      1  0.4918500000000  0.4944810000000  0.5855650000000 1.0
C      1  0.4169250000000  0.5055950000000  0.4949950000000 1.0
C      1  0.5120600000000  0.4937170000000  0.4187370000000 1.0
C      1  0.5280590000000  0.4674460000000  0.5614850000000 1.0
C      1  0.4459880000000  0.5291930000000  0.5357900000000 1.0
C      1  0.4661380000000  0.4724570000000  0.4473720000000 1.0
C      1  0.5603950000000  0.5241690000000  0.4704230000000 1.0
C      1  0.4651530000000  0.4990470000000  0.5749650000000 1.0
C      1  0.4270950000000  0.5018660000000  0.4679290000000 1.0
C      1  0.5392890000000  0.4958000000000  0.4294990000000 1.0
C      1  0.5688240000000  0.4974740000000  0.5436210000000 1.0
C      1  0.5071170000000  0.4441670000000  0.4461320000000 1.0
C      1  0.5582120000000  0.5518510000000  0.5124980000000 1.0
C      1  0.4851400000000  0.4414750000000  0.5574110000000 1.0
C      1  0.4457490000000  0.5562840000000  0.4938970000000 1.0
C      1  0.6001070000000  0.4774820000000  0.4659140000000 1.0
C      1  0.5390560000000  0.5204660000000  0.6051800000000 1.0
C      1  0.3977090000000  0.4780060000000  0.5401150000000 1.0
C      1  0.4618700000000  0.5236690000000  0.4013570000000 1.0
C      1  0.4901130000000  0.3997260000000  0.5808130000000 1.0
C      1  0.4237840000000  0.5988090000000  0.4987390000000 1.0
C      1  0.5020570000000  0.4032290000000  0.4212610000000 1.0
C      1  0.5831190000000  0.5916980000000  0.5037940000000 1.0
C      1  0.4976070000000  0.5424580000000  0.4992660000000 1.0
C      1  0.5006690000000  0.4545060000000  0.4983220000000 1.0
C      1  0.4984110000000  0.4984500000000  0.5032590000000 1.0
END
