TITL C-3201377-4638-140 0.0335662336263077 125000 -528.712110811236 0 0 87 (C1) n - 1
REM
REM in /home/nfs/bkarasulu/CARBON/AIRSS/Generating-Clusters/LCBOP/Higher-Symm/SD-CG/FIRE-CG
REM
REM
REM
REM
REM
REM ./C.cell (b20cbc046b6831c77cfcea5457e17084)
REM AIRSS Version 0.9.1 bugfix July 2018 build 013d7b7c2542+ Fri, 06 Jul 2018 19:26:36 +0100
REM compiler GCC version 9.2.1 20190827 (Red Hat 9.2.1-1)
REM options -cpp -mtune=generic -march=x86-64 -g -O0 -fpre-include=/usr/include/finclude/math-vector-fortran.h
REM seed 623812981 -676641047 -1583987498 1889525106 203251428 -152928319 -1730811492 1911199607 1493430192 549759059 -724240153 1784028030 -1804656729 1912069539 1556487730 66180473 -1635351010 2081044972 -562706388 2001304123 -1785928910 1710968146 1027894495 327396215 -1475302079 -722027371 128584660 632746570 -1047082671 401372040 805970327 -1339931394 -1346897998
REM
CELL 1.54180   50.00000   50.00000   50.00000   90.00000   90.00000   90.00000
LATT -1
SFAC C  
C      1  0.5498190000000  0.5578190000000  0.4640180000000 1.0
C      1  0.5506330000000  0.4868540000000  0.4348040000000 1.0
C      1  0.5532150000000  0.4323530000000  0.4962470000000 1.0
C      1  0.5488030000000  0.4731470000000  0.5602940000000 1.0
C      1  0.5484910000000  0.5463410000000  0.5408270000000 1.0
C      1  0.4549690000000  0.5638480000000  0.4611520000000 1.0
C      1  0.4539930000000  0.4848430000000  0.4334830000000 1.0
C      1  0.4555280000000  0.4327120000000  0.4960350000000 1.0
C      1  0.4522120000000  0.4723200000000  0.5700140000000 1.0
C      1  0.4534650000000  0.5540360000000  0.5449640000000 1.0
C      1  0.4373730000000  0.5608170000000  0.5193890000000 1.0
C      1  0.4403260000000  0.5388670000000  0.4513980000000 1.0
C      1  0.4394250000000  0.4673040000000  0.4537670000000 1.0
C      1  0.4400290000000  0.4427830000000  0.5203240000000 1.0
C      1  0.4394890000000  0.4987250000000  0.5594400000000 1.0
C      1  0.5618890000000  0.5473330000000  0.5143180000000 1.0
C      1  0.5635180000000  0.5328520000000  0.4551280000000 1.0
C      1  0.5661820000000  0.4699920000000  0.4541210000000 1.0
C      1  0.5670260000000  0.4454350000000  0.5192430000000 1.0
C      1  0.5617180000000  0.4982450000000  0.5518860000000 1.0
C      1  0.5304210000000  0.4429950000000  0.4431600000000 1.0
C      1  0.5298710000000  0.4273180000000  0.5399230000000 1.0
C      1  0.5288880000000  0.5132960000000  0.5811650000000 1.0
C      1  0.5287800000000  0.5795460000000  0.5105190000000 1.0
C      1  0.5297230000000  0.5376600000000  0.4232840000000 1.0
C      1  0.4783600000000  0.4428000000000  0.4457120000000 1.0
C      1  0.4776310000000  0.4245220000000  0.5401400000000 1.0
C      1  0.4756090000000  0.5140770000000  0.5873310000000 1.0
C      1  0.4778980000000  0.5845710000000  0.5116820000000 1.0
C      1  0.4770650000000  0.5396680000000  0.4225360000000 1.0
C      1  0.4854260000000  0.5383700000000  0.4984570000000 1.0
C      1  0.4591900000000  0.5320030000000  0.4945640000000 1.0
C      1  0.4374640000000  0.5168010000000  0.4930560000000 1.0
C      1  0.4677110000000  0.4809580000000  0.4927730000000 1.0
C      1  0.4496170000000  0.4976330000000  0.5326620000000 1.0
C      1  0.4952570000000  0.5196320000000  0.5388100000000 1.0
C      1  0.5009960000000  0.5463720000000  0.4765790000000 1.0
C      1  0.4985890000000  0.5040950000000  0.4559050000000 1.0
C      1  0.5135710000000  0.4645180000000  0.4937910000000 1.0
C      1  0.4904970000000  0.4739920000000  0.5345700000000 1.0
C      1  0.5500200000000  0.5168090000000  0.4341400000000 1.0
C      1  0.5529630000000  0.4450120000000  0.4639430000000 1.0
C      1  0.5507910000000  0.4486590000000  0.5440530000000 1.0
C      1  0.5482170000000  0.5234050000000  0.5593380000000 1.0
C      1  0.5490690000000  0.5642530000000  0.4933820000000 1.0
C      1  0.4547870000000  0.5202220000000  0.4327400000000 1.0
C      1  0.4553830000000  0.4439660000000  0.4659160000000 1.0
C      1  0.4542310000000  0.4443990000000  0.5468110000000 1.0
C      1  0.4525050000000  0.5259300000000  0.5685070000000 1.0
C      1  0.4534900000000  0.5748180000000  0.4954910000000 1.0
C      1  0.4776090000000  0.5731140000000  0.5394990000000 1.0
C      1  0.4772250000000  0.5653490000000  0.4382890000000 1.0
C      1  0.4771540000000  0.4652350000000  0.4261260000000 1.0
C      1  0.4784110000000  0.4183370000000  0.5106530000000 1.0
C      1  0.4757730000000  0.4838330000000  0.5866610000000 1.0
C      1  0.5281920000000  0.5685160000000  0.5377960000000 1.0
C      1  0.5303490000000  0.5625360000000  0.4398550000000 1.0
C      1  0.5295920000000  0.4667080000000  0.4257640000000 1.0
C      1  0.5308530000000  0.4175290000000  0.5119620000000 1.0
C      1  0.5284550000000  0.4837360000000  0.5805950000000 1.0
C      1  0.5019160000000  0.4723640000000  0.5804550000000 1.0
C      1  0.5032310000000  0.4762890000000  0.4190020000000 1.0
C      1  0.5048560000000  0.4180050000000  0.4992700000000 1.0
C      1  0.5027380000000  0.5645690000000  0.5501270000000 1.0
C      1  0.5042410000000  0.5759480000000  0.4448040000000 1.0
C      1  0.4778890000000  0.4983940000000  0.5383230000000 1.0
C      1  0.5144710000000  0.5217810000000  0.4705010000000 1.0
C      1  0.4771000000000  0.4928890000000  0.4694210000000 1.0
C      1  0.4892910000000  0.4696310000000  0.5074560000000 1.0
C      1  0.5047730000000  0.5243560000000  0.5139270000000 1.0
C      1  0.5031610000000  0.5280910000000  0.4165070000000 1.0
C      1  0.5037520000000  0.4317880000000  0.5506500000000 1.0
C      1  0.5025660000000  0.5257750000000  0.5840050000000 1.0
C      1  0.5036290000000  0.5869740000000  0.4982260000000 1.0
C      1  0.5048100000000  0.4362310000000  0.4540300000000 1.0
C      1  0.5031430000000  0.5744920000000  0.4731960000000 1.0
C      1  0.5014740000000  0.5025880000000  0.4280900000000 1.0
C      1  0.5084430000000  0.4393400000000  0.4813010000000 1.0
C      1  0.4999050000000  0.4589530000000  0.5559800000000 1.0
C      1  0.4999130000000  0.5384300000000  0.5589910000000 1.0
C      1  0.5333930000000  0.4852960000000  0.4965920000000 1.0
C      1  0.4406120000000  0.4902220000000  0.5051410000000 1.0
C      1  0.5863000000000  0.4927490000000  0.4999860000000 1.0
C      1  0.3907940000000  0.4677210000000  0.4998860000000 1.0
C      1  0.4155120000000  0.4754830000000  0.5028490000000 1.0
C      1  0.5612490000000  0.4853170000000  0.4990100000000 1.0
C      1  0.5226950000000  0.5111700000000  0.4962280000000 1.0
END
