TITL C-3201378-2706-588 -2.17779090218357e-07 125000 -682.693822946738 0 0 111 (C1) n - 1
REM
REM in /home/nfs/bkarasulu/CARBON/AIRSS/Generating-Clusters/LCBOP/Higher-Symm/SD-CG/FIRE-CG
REM
REM
REM
REM
REM
REM ./C.cell (b20cbc046b6831c77cfcea5457e17084)
REM AIRSS Version 0.9.1 bugfix July 2018 build 013d7b7c2542+ Fri, 06 Jul 2018 19:26:36 +0100
REM compiler GCC version 9.2.1 20190827 (Red Hat 9.2.1-1)
REM options -cpp -mtune=generic -march=x86-64 -g -O0 -fpre-include=/usr/include/finclude/math-vector-fortran.h
REM seed -164344185 527645912 -316402703 -1731704577 -332770851 -1484016313 1215869066 -842764871 -159031447 255010258 494182756 -1695551413 -1224105491 -573378226 -240590830 1182729323 584225335 -1943000382 -779973461 752122985 67110791 -1073023495 -1063553630 -1265185024 -726806619 -1131402566 355544212 1793895272 -516721037 1370086782 634519345 21482979 -991863528
REM
CELL 1.54180   50.00000   50.00000   50.00000   90.00000   90.00000   90.00000
LATT -1
SFAC C  
C      1  0.4730140000000  0.5243630000000  0.4247970000000 1.0
C      1  0.5199840000000  0.5198620000000  0.5912380000000 1.0
C      1  0.5171500000000  0.4825040000000  0.4152270000000 1.0
C      1  0.4793120000000  0.4801570000000  0.5909790000000 1.0
C      1  0.5376950000000  0.5418050000000  0.5906710000000 1.0
C      1  0.4615110000000  0.5485790000000  0.4093740000000 1.0
C      1  0.4616250000000  0.4581960000000  0.5913600000000 1.0
C      1  0.5337140000000  0.4600770000000  0.4104790000000 1.0
C      1  0.4555680000000  0.5145620000000  0.5605450000000 1.0
C      1  0.5468210000000  0.5168810000000  0.4368190000000 1.0
C      1  0.5452250000000  0.4843130000000  0.5646290000000 1.0
C      1  0.4462950000000  0.4833600000000  0.4382500000000 1.0
C      1  0.4700080000000  0.4195650000000  0.4616060000000 1.0
C      1  0.5286350000000  0.4227160000000  0.5393390000000 1.0
C      1  0.5297910000000  0.5839850000000  0.4591070000000 1.0
C      1  0.4721140000000  0.5768970000000  0.5365420000000 1.0
C      1  0.4324990000000  0.5299150000000  0.5651730000000 1.0
C      1  0.5665680000000  0.5346730000000  0.4271710000000 1.0
C      1  0.5678770000000  0.4685220000000  0.5697500000000 1.0
C      1  0.4268190000000  0.4644600000000  0.4314700000000 1.0
C      1  0.4266780000000  0.4391640000000  0.4408450000000 1.0
C      1  0.5713650000000  0.4438140000000  0.5595330000000 1.0
C      1  0.5698790000000  0.5596850000000  0.4370320000000 1.0
C      1  0.4292300000000  0.5548520000000  0.5555340000000 1.0
C      1  0.5122340000000  0.5566070000000  0.4225800000000 1.0
C      1  0.4862800000000  0.5534010000000  0.5778540000000 1.0
C      1  0.4836580000000  0.4456180000000  0.4223830000000 1.0
C      1  0.5134230000000  0.4460770000000  0.5805950000000 1.0
C      1  0.4353230000000  0.5631690000000  0.5067080000000 1.0
C      1  0.5668980000000  0.5659030000000  0.4872230000000 1.0
C      1  0.5663730000000  0.4365610000000  0.5101840000000 1.0
C      1  0.4326090000000  0.4342820000000  0.4902490000000 1.0
C      1  0.5861820000000  0.4575210000000  0.5000660000000 1.0
C      1  0.4127440000000  0.4550830000000  0.4999270000000 1.0
C      1  0.4177900000000  0.5412990000000  0.4956040000000 1.0
C      1  0.5867910000000  0.5448440000000  0.4973160000000 1.0
C      1  0.4542200000000  0.4205660000000  0.5066200000000 1.0
C      1  0.5448820000000  0.4217120000000  0.4940820000000 1.0
C      1  0.5457640000000  0.5794640000000  0.5040100000000 1.0
C      1  0.4555700000000  0.5802560000000  0.4916830000000 1.0
C      1  0.5337050000000  0.4354910000000  0.4219010000000 1.0
C      1  0.4634910000000  0.4344190000000  0.5786960000000 1.0
C      1  0.4647070000000  0.5742410000000  0.4182580000000 1.0
C      1  0.5364530000000  0.5647780000000  0.5765660000000 1.0
C      1  0.4903670000000  0.4750170000000  0.4255550000000 1.0
C      1  0.5072650000000  0.4723430000000  0.5904170000000 1.0
C      1  0.5034050000000  0.5294410000000  0.4207750000000 1.0
C      1  0.4921580000000  0.5273890000000  0.5881870000000 1.0
C      1  0.4941300000000  0.5428330000000  0.4782900000000 1.0
C      1  0.5114350000000  0.5171070000000  0.5128090000000 1.0
C      1  0.5093960000000  0.4805050000000  0.4757100000000 1.0
C      1  0.4889410000000  0.4754220000000  0.5188650000000 1.0
C      1  0.4304330000000  0.5371350000000  0.4496860000000 1.0
C      1  0.5772720000000  0.5399710000000  0.5432690000000 1.0
C      1  0.5775290000000  0.4573480000000  0.4539790000000 1.0
C      1  0.4211080000000  0.4581360000000  0.5460830000000 1.0
C      1  0.5530240000000  0.5163640000000  0.4886100000000 1.0
C      1  0.4616520000000  0.5240190000000  0.5074660000000 1.0
C      1  0.4536100000000  0.4755150000000  0.4893610000000 1.0
C      1  0.5399720000000  0.4726030000000  0.5121770000000 1.0
C      1  0.4450590000000  0.4681780000000  0.5385780000000 1.0
C      1  0.5533400000000  0.4667050000000  0.4615100000000 1.0
C      1  0.5533800000000  0.5293380000000  0.5361130000000 1.0
C      1  0.4573710000000  0.5291440000000  0.4531280000000 1.0
C      1  0.5381850000000  0.5793980000000  0.5311030000000 1.0
C      1  0.4620470000000  0.5861970000000  0.4647690000000 1.0
C      1  0.4619310000000  0.4186300000000  0.5337060000000 1.0
C      1  0.5369730000000  0.4185440000000  0.4669170000000 1.0
C      1  0.4908620000000  0.4261360000000  0.4426490000000 1.0
C      1  0.5073020000000  0.4288490000000  0.5582920000000 1.0
C      1  0.5076290000000  0.5782460000000  0.4408500000000 1.0
C      1  0.4929900000000  0.5702410000000  0.5555470000000 1.0
C      1  0.4614300000000  0.4788140000000  0.4629290000000 1.0
C      1  0.5315520000000  0.4792800000000  0.5396090000000 1.0
C      1  0.5402400000000  0.5213960000000  0.4643190000000 1.0
C      1  0.4695440000000  0.5192790000000  0.5354240000000 1.0
C      1  0.4728150000000  0.5067960000000  0.5825540000000 1.0
C      1  0.5241420000000  0.5093160000000  0.4208750000000 1.0
C      1  0.5271420000000  0.4926950000000  0.5856010000000 1.0
C      1  0.4667610000000  0.4946180000000  0.4200860000000 1.0
C      1  0.5202850000000  0.4233720000000  0.4442760000000 1.0
C      1  0.4781460000000  0.4243650000000  0.5562290000000 1.0
C      1  0.4785610000000  0.5839330000000  0.4416750000000 1.0
C      1  0.5220740000000  0.5742180000000  0.5537100000000 1.0
C      1  0.5032980000000  0.4850110000000  0.5416530000000 1.0
C      1  0.4898930000000  0.4768210000000  0.4565030000000 1.0
C      1  0.4976660000000  0.5139520000000  0.5379300000000 1.0
C      1  0.5175420000000  0.5370400000000  0.4679930000000 1.0
C      1  0.5576480000000  0.5721180000000  0.4592370000000 1.0
C      1  0.4439700000000  0.5667550000000  0.5348740000000 1.0
C      1  0.4415340000000  0.4288220000000  0.4623230000000 1.0
C      1  0.5571850000000  0.4321410000000  0.5382730000000 1.0
C      1  0.4616830000000  0.4712940000000  0.5160630000000 1.0
C      1  0.5353440000000  0.4710950000000  0.4827490000000 1.0
C      1  0.5387290000000  0.5225960000000  0.5127730000000 1.0
C      1  0.4689310000000  0.5309410000000  0.4798490000000 1.0
C      1  0.4126650000000  0.5122970000000  0.5014300000000 1.0
C      1  0.5812790000000  0.5152150000000  0.4929360000000 1.0
C      1  0.5891760000000  0.4878810000000  0.5024600000000 1.0
C      1  0.4102010000000  0.4849980000000  0.4954540000000 1.0
C      1  0.5234690000000  0.4135620000000  0.5123770000000 1.0
C      1  0.4756810000000  0.4119650000000  0.4888060000000 1.0
C      1  0.4770830000000  0.5878030000000  0.5101800000000 1.0
C      1  0.5249580000000  0.5906710000000  0.4868860000000 1.0
C      1  0.5952500000000  0.4505730000000  0.4734560000000 1.0
C      1  0.4040400000000  0.4493290000000  0.5268260000000 1.0
C      1  0.4125250000000  0.5456790000000  0.4678220000000 1.0
C      1  0.5948280000000  0.5492270000000  0.5245780000000 1.0
C      1  0.5008180000000  0.5977110000000  0.4991760000000 1.0
C      1  0.4997590000000  0.4045790000000  0.5007520000000 1.0
C      1  0.5002920000000  0.4936920000000  0.4985010000000 1.0
END
