TITL C-3201376-6384-1060 8761.76230828002 125000 -856.205500564175 0 0 147 (C1) n - 1
REM
REM in /home/nfs/bkarasulu/CARBON/AIRSS/Generating-Clusters/LCBOP/Higher-Symm/SD-CG/FIRE-CG
REM
REM
REM
REM
REM
REM ./C.cell (b20cbc046b6831c77cfcea5457e17084)
REM AIRSS Version 0.9.1 bugfix July 2018 build 013d7b7c2542+ Fri, 06 Jul 2018 19:26:36 +0100
REM compiler GCC version 9.2.1 20190827 (Red Hat 9.2.1-1)
REM options -cpp -mtune=generic -march=x86-64 -g -O0 -fpre-include=/usr/include/finclude/math-vector-fortran.h
REM seed -1837256512 -916702108 2002575371 -1593488341 869390900 1684578107 1219679332 772233139 -846492494 -509925904 -14384652 1893897044 -1933917395 -206239808 626359703 2091673127 1559129963 -619041892 698576712 -1804464770 381473264 1314743875 22455142 1663427838 130053062 -610264812 959293360 1877851613 -496718377 -357778561 -1939998507 -693124683 429271028
REM
CELL 1.54180   50.00000   50.00000   50.00000   90.00000   90.00000   90.00000
LATT -1
SFAC C  
C      1  0.5076190000000  0.5089050000000  0.4303210000000 1.0
C      1  0.5209690000000  0.4844350000000  0.4339770000000 1.0
C      1  0.4798310000000  0.5071360000000  0.4285510000000 1.0
C      1  0.5133870000000  0.5149700000000  0.5686970000000 1.0
C      1  0.5062730000000  0.4806490000000  0.5681690000000 1.0
C      1  0.4789550000000  0.5029700000000  0.5678890000000 1.0
C      1  0.4635520000000  0.5459710000000  0.4511600000000 1.0
C      1  0.5568020000000  0.5064540000000  0.4524790000000 1.0
C      1  0.4797920000000  0.4531220000000  0.4417610000000 1.0
C      1  0.4641570000000  0.5513900000000  0.5466520000000 1.0
C      1  0.5614930000000  0.5031710000000  0.5470950000000 1.0
C      1  0.4736390000000  0.4440490000000  0.5442970000000 1.0
C      1  0.5185210000000  0.5094080000000  0.6439520000000 1.0
C      1  0.5009690000000  0.4779420000000  0.6432810000000 1.0
C      1  0.4812650000000  0.5081440000000  0.6441540000000 1.0
C      1  0.5095940000000  0.5074520000000  0.3566930000000 1.0
C      1  0.4945810000000  0.4738260000000  0.3646490000000 1.0
C      1  0.4743210000000  0.5021530000000  0.3556680000000 1.0
C      1  0.4692070000000  0.4855490000000  0.4804690000000 1.0
C      1  0.5034070000000  0.5343910000000  0.4754630000000 1.0
C      1  0.5320750000000  0.4784250000000  0.4810290000000 1.0
C      1  0.4681540000000  0.4857960000000  0.5208820000000 1.0
C      1  0.5051410000000  0.5350680000000  0.5282570000000 1.0
C      1  0.5296180000000  0.4783520000000  0.5211870000000 1.0
C      1  0.5228520000000  0.5842480000000  0.5750360000000 1.0
C      1  0.5630360000000  0.4577410000000  0.5624960000000 1.0
C      1  0.4137450000000  0.4785130000000  0.5738630000000 1.0
C      1  0.4937500000000  0.5780370000000  0.4387940000000 1.0
C      1  0.5761300000000  0.4652380000000  0.4423930000000 1.0
C      1  0.4334570000000  0.4600660000000  0.4373930000000 1.0
C      1  0.4275080000000  0.5553170000000  0.4822970000000 1.0
C      1  0.5816250000000  0.5346790000000  0.4844650000000 1.0
C      1  0.4927160000000  0.4146620000000  0.4803510000000 1.0
C      1  0.4245190000000  0.5555050000000  0.5106190000000 1.0
C      1  0.5851610000000  0.5403590000000  0.5121060000000 1.0
C      1  0.4918690000000  0.4094420000000  0.5084090000000 1.0
C      1  0.4601440000000  0.5160680000000  0.3749300000000 1.0
C      1  0.5279110000000  0.5166420000000  0.3754540000000 1.0
C      1  0.4980150000000  0.4609450000000  0.3891400000000 1.0
C      1  0.4684360000000  0.5214140000000  0.6234100000000 1.0
C      1  0.5360440000000  0.5146570000000  0.6230330000000 1.0
C      1  0.4964330000000  0.4602610000000  0.6222990000000 1.0
C      1  0.4444560000000  0.5371230000000  0.4318680000000 1.0
C      1  0.5536660000000  0.5261660000000  0.4316830000000 1.0
C      1  0.5047810000000  0.4371480000000  0.4358990000000 1.0
C      1  0.4469500000000  0.5412930000000  0.5674190000000 1.0
C      1  0.5621500000000  0.5247610000000  0.5661610000000 1.0
C      1  0.4905570000000  0.4339090000000  0.5653940000000 1.0
C      1  0.4648770000000  0.5118850000000  0.4863950000000 1.0
C      1  0.5259410000000  0.5241670000000  0.4874750000000 1.0
C      1  0.5093450000000  0.4636830000000  0.4846650000000 1.0
C      1  0.4659070000000  0.5125480000000  0.5152620000000 1.0
C      1  0.5272160000000  0.5242710000000  0.5155350000000 1.0
C      1  0.5077350000000  0.4633440000000  0.5138740000000 1.0
C      1  0.4283880000000  0.4972800000000  0.5600120000000 1.0
C      1  0.5323720000000  0.5628750000000  0.5605030000000 1.0
C      1  0.5386110000000  0.4429650000000  0.5584340000000 1.0
C      1  0.4321180000000  0.4893880000000  0.4410010000000 1.0
C      1  0.5190570000000  0.5621000000000  0.4404540000000 1.0
C      1  0.5529170000000  0.4473960000000  0.4427960000000 1.0
C      1  0.4083730000000  0.5311840000000  0.5231510000000 1.0
C      1  0.5708830000000  0.5657680000000  0.5234250000000 1.0
C      1  0.5195060000000  0.4047940000000  0.5228240000000 1.0
C      1  0.4079650000000  0.5262700000000  0.4719910000000 1.0
C      1  0.5652920000000  0.5647800000000  0.4718110000000 1.0
C      1  0.5287520000000  0.4082840000000  0.4724430000000 1.0
C      1  0.5789400000000  0.5656450000000  0.4455200000000 1.0
C      1  0.5234820000000  0.3945860000000  0.4471110000000 1.0
C      1  0.3983640000000  0.5377940000000  0.4465860000000 1.0
C      1  0.5847240000000  0.5666840000000  0.5505040000000 1.0
C      1  0.5106510000000  0.3918880000000  0.5486190000000 1.0
C      1  0.4006020000000  0.5433920000000  0.5498720000000 1.0
C      1  0.5249080000000  0.5348390000000  0.4240250000000 1.0
C      1  0.5277760000000  0.4555640000000  0.4280830000000 1.0
C      1  0.4493560000000  0.5086900000000  0.4240790000000 1.0
C      1  0.5346890000000  0.5347150000000  0.5753540000000 1.0
C      1  0.5132880000000  0.4522350000000  0.5741610000000 1.0
C      1  0.4516630000000  0.5121490000000  0.5753370000000 1.0
C      1  0.4870590000000  0.5810010000000  0.4860440000000 1.0
C      1  0.5783600000000  0.4678640000000  0.4913630000000 1.0
C      1  0.4368630000000  0.4515110000000  0.4845850000000 1.0
C      1  0.4821800000000  0.5830720000000  0.5141770000000 1.0
C      1  0.5815920000000  0.4692010000000  0.5192880000000 1.0
C      1  0.4372350000000  0.4445400000000  0.5120330000000 1.0
C      1  0.5738610000000  0.5458030000000  0.4275280000000 1.0
C      1  0.5083500000000  0.4095520000000  0.4300820000000 1.0
C      1  0.4176440000000  0.5458070000000  0.4289560000000 1.0
C      1  0.5822990000000  0.5450240000000  0.5671840000000 1.0
C      1  0.4961200000000  0.4059970000000  0.5669050000000 1.0
C      1  0.4196300000000  0.5495690000000  0.5684700000000 1.0
C      1  0.5433660000000  0.4663590000000  0.6111370000000 1.0
C      1  0.4506910000000  0.4778780000000  0.6112570000000 1.0
C      1  0.5068490000000  0.5520560000000  0.6126090000000 1.0
C      1  0.5463720000000  0.4714850000000  0.3852790000000 1.0
C      1  0.4518100000000  0.4720590000000  0.3954930000000 1.0
C      1  0.4950460000000  0.5506630000000  0.3868520000000 1.0
C      1  0.5800570000000  0.4885270000000  0.4623690000000 1.0
C      1  0.4523920000000  0.4419500000000  0.4546140000000 1.0
C      1  0.4696890000000  0.5744000000000  0.4592660000000 1.0
C      1  0.5745740000000  0.4775520000000  0.5454530000000 1.0
C      1  0.4539280000000  0.4294740000000  0.5294890000000 1.0
C      1  0.4615370000000  0.5759440000000  0.5323490000000 1.0
C      1  0.5183240000000  0.4543090000000  0.6043810000000 1.0
C      1  0.4520950000000  0.5058540000000  0.6053750000000 1.0
C      1  0.5301740000000  0.5370060000000  0.6056630000000 1.0
C      1  0.5254970000000  0.4568690000000  0.3978470000000 1.0
C      1  0.4475750000000  0.5003950000000  0.3951740000000 1.0
C      1  0.5193790000000  0.5374220000000  0.3938330000000 1.0
C      1  0.6091610000000  0.5301070000000  0.5237220000000 1.0
C      1  0.4649170000000  0.4054410000000  0.5186400000000 1.0
C      1  0.4348730000000  0.5796400000000  0.5229810000000 1.0
C      1  0.5966010000000  0.5113640000000  0.4739780000000 1.0
C      1  0.4661030000000  0.4147690000000  0.4664250000000 1.0
C      1  0.4406890000000  0.5796720000000  0.4705220000000 1.0
C      1  0.5510090000000  0.4920150000000  0.6149740000000 1.0
C      1  0.4692380000000  0.4585340000000  0.6146480000000 1.0
C      1  0.4808230000000  0.5457730000000  0.6161120000000 1.0
C      1  0.5486200000000  0.4980700000000  0.3806630000000 1.0
C      1  0.4749130000000  0.4608920000000  0.4071160000000 1.0
C      1  0.4702220000000  0.5419970000000  0.3805590000000 1.0
C      1  0.5491100000000  0.4315710000000  0.4672810000000 1.0
C      1  0.4203360000000  0.4980450000000  0.4662310000000 1.0
C      1  0.5344470000000  0.5686460000000  0.4654580000000 1.0
C      1  0.5390490000000  0.4276280000000  0.5334170000000 1.0
C      1  0.4200430000000  0.5024870000000  0.5324650000000 1.0
C      1  0.5405130000000  0.5687190000000  0.5328870000000 1.0
C      1  0.6277180000000  0.5154790000000  0.5103580000000 1.0
C      1  0.4485920000000  0.3887810000000  0.5023500000000 1.0
C      1  0.4283520000000  0.6038190000000  0.5094700000000 1.0
C      1  0.6223650000000  0.5070180000000  0.4850950000000 1.0
C      1  0.4487060000000  0.3940130000000  0.4755420000000 1.0
C      1  0.4324910000000  0.6041630000000  0.4824740000000 1.0
C      1  0.4838750000000  0.4647960000000  0.5280210000000 1.0
C      1  0.4777810000000  0.5323590000000  0.5308660000000 1.0
C      1  0.5401380000000  0.5029400000000  0.5280950000000 1.0
C      1  0.4876660000000  0.4692480000000  0.4679020000000 1.0
C      1  0.4766980000000  0.5303550000000  0.4703030000000 1.0
C      1  0.5383160000000  0.5038110000000  0.4735750000000 1.0
C      1  0.5639900000000  0.4419620000000  0.4892130000000 1.0
C      1  0.4222430000000  0.4777490000000  0.4864270000000 1.0
C      1  0.5173260000000  0.5788130000000  0.4865470000000 1.0
C      1  0.5599220000000  0.4352730000000  0.5158730000000 1.0
C      1  0.4199520000000  0.4806490000000  0.5143840000000 1.0
C      1  0.5217750000000  0.5792200000000  0.5146560000000 1.0
C      1  0.5349180000000  0.3942470000000  0.4983680000000 1.0
C      1  0.5707870000000  0.5817810000000  0.4968850000000 1.0
C      1  0.3922420000000  0.5239240000000  0.4979190000000 1.0
END
