TITL C-3201379-3821-2204 2.31155183985494e-07 125000 -387.450912103346 0 0 63 (C1) n - 1
REM
REM in /home/nfs/bkarasulu/CARBON/AIRSS/Generating-Clusters/LCBOP/Higher-Symm/SD-CG/FIRE-CG
REM
REM
REM
REM
REM
REM ./C.cell (b20cbc046b6831c77cfcea5457e17084)
REM AIRSS Version 0.9.1 bugfix July 2018 build 013d7b7c2542+ Fri, 06 Jul 2018 19:26:36 +0100
REM compiler GCC version 9.2.1 20190827 (Red Hat 9.2.1-1)
REM options -cpp -mtune=generic -march=x86-64 -g -O0 -fpre-include=/usr/include/finclude/math-vector-fortran.h
REM seed -1222166600 -993235900 1237658337 -1998637765 -768610522 -1702454528 1822548499 -1734580730 -301966030 615939430 -1105500425 627806012 1013750113 -481028159 -1970510601 21457819 -1707449451 -1313007437 326178418 2052765357 -208475207 1983255375 2039948693 -1237791945 -792450630 -729326784 561190712 -1296066098 -157179720 -1848261975 -1390116077 564117320 797010247
REM
CELL 1.54180   50.00000   50.00000   50.00000   90.00000   90.00000   90.00000
LATT -1
SFAC C  
C      1  0.4904720000000  0.5271810000000  0.4456840000000 1.0
C      1  0.4892140000000  0.4719830000000  0.4459540000000 1.0
C      1  0.4980330000000  0.5260900000000  0.5581510000000 1.0
C      1  0.4986680000000  0.4713300000000  0.5575690000000 1.0
C      1  0.5612640000000  0.4853920000000  0.5248790000000 1.0
C      1  0.5609470000000  0.5145550000000  0.5246380000000 1.0
C      1  0.4791910000000  0.4505880000000  0.4631540000000 1.0
C      1  0.4810900000000  0.5467880000000  0.4651630000000 1.0
C      1  0.5569650000000  0.4849290000000  0.4751940000000 1.0
C      1  0.5571800000000  0.5130760000000  0.4746760000000 1.0
C      1  0.5456340000000  0.5541630000000  0.4525950000000 1.0
C      1  0.5400340000000  0.4428390000000  0.4586420000000 1.0
C      1  0.5188700000000  0.5655330000000  0.4895200000000 1.0
C      1  0.5172410000000  0.4426270000000  0.4997360000000 1.0
C      1  0.5459920000000  0.4435080000000  0.5505860000000 1.0
C      1  0.5446480000000  0.5556550000000  0.5509360000000 1.0
C      1  0.5207800000000  0.5684290000000  0.5546400000000 1.0
C      1  0.5225990000000  0.4298350000000  0.5540640000000 1.0
C      1  0.5238110000000  0.4850900000000  0.5568700000000 1.0
C      1  0.5236670000000  0.5132420000000  0.5572430000000 1.0
C      1  0.4963690000000  0.5690950000000  0.4729780000000 1.0
C      1  0.4873640000000  0.4245640000000  0.4603130000000 1.0
C      1  0.4973150000000  0.4424360000000  0.5531830000000 1.0
C      1  0.4959240000000  0.5549800000000  0.5535560000000 1.0
C      1  0.4338960000000  0.4608090000000  0.4560590000000 1.0
C      1  0.4354780000000  0.5390580000000  0.4563140000000 1.0
C      1  0.5160540000000  0.5137200000000  0.4467600000000 1.0
C      1  0.5152650000000  0.4845700000000  0.4474250000000 1.0
C      1  0.5392360000000  0.4712330000000  0.4561860000000 1.0
C      1  0.5410890000000  0.5260830000000  0.4540230000000 1.0
C      1  0.4243740000000  0.5120000000000  0.5044690000000 1.0
C      1  0.4236990000000  0.4843950000000  0.5053820000000 1.0
C      1  0.4731010000000  0.4373280000000  0.5380340000000 1.0
C      1  0.4722830000000  0.5589640000000  0.5371780000000 1.0
C      1  0.5111950000000  0.5166800000000  0.5046520000000 1.0
C      1  0.4965710000000  0.4934680000000  0.5002300000000 1.0
C      1  0.4534290000000  0.3893380000000  0.5241730000000 1.0
C      1  0.4510030000000  0.6059870000000  0.5224380000000 1.0
C      1  0.4522740000000  0.5237640000000  0.5016970000000 1.0
C      1  0.4507530000000  0.4712320000000  0.5026420000000 1.0
C      1  0.5654350000000  0.5559400000000  0.4955010000000 1.0
C      1  0.5643660000000  0.4434390000000  0.4986920000000 1.0
C      1  0.4745420000000  0.4841230000000  0.5466020000000 1.0
C      1  0.4746060000000  0.5124310000000  0.5464520000000 1.0
C      1  0.5659020000000  0.4719150000000  0.4998130000000 1.0
C      1  0.5651820000000  0.5274980000000  0.4989450000000 1.0
C      1  0.5405730000000  0.4340890000000  0.4859040000000 1.0
C      1  0.5452190000000  0.5669940000000  0.4782820000000 1.0
C      1  0.4679130000000  0.4858900000000  0.4316810000000 1.0
C      1  0.4686920000000  0.5143150000000  0.4311890000000 1.0
C      1  0.4422560000000  0.4732740000000  0.4332040000000 1.0
C      1  0.4436060000000  0.5280500000000  0.4326360000000 1.0
C      1  0.4627490000000  0.4124080000000  0.5319150000000 1.0
C      1  0.4610470000000  0.5833770000000  0.5306200000000 1.0
C      1  0.5154200000000  0.5429580000000  0.5061350000000 1.0
C      1  0.5068900000000  0.4673720000000  0.5026840000000 1.0
C      1  0.4537370000000  0.4561710000000  0.4763070000000 1.0
C      1  0.4552400000000  0.5409610000000  0.4769450000000 1.0
C      1  0.5463510000000  0.5276550000000  0.5460610000000 1.0
C      1  0.5468310000000  0.4715620000000  0.5458340000000 1.0
C      1  0.4623100000000  0.5329640000000  0.5289440000000 1.0
C      1  0.4615300000000  0.4628160000000  0.5300140000000 1.0
C      1  0.4685950000000  0.4968900000000  0.4974440000000 1.0
END
