TITL C-3201376-6384-1874 1.94550486143789e-07 125000 -97.6560141024822 0 0 18 (D2d) n - 1
REM
REM in /home/nfs/bkarasulu/CARBON/AIRSS/Generating-Clusters/LCBOP/Higher-Symm/SD-CG/FIRE-CG
REM
REM
REM
REM
REM
REM ./C.cell (b20cbc046b6831c77cfcea5457e17084)
REM AIRSS Version 0.9.1 bugfix July 2018 build 013d7b7c2542+ Fri, 06 Jul 2018 19:26:36 +0100
REM compiler GCC version 9.2.1 20190827 (Red Hat 9.2.1-1)
REM options -cpp -mtune=generic -march=x86-64 -g -O0 -fpre-include=/usr/include/finclude/math-vector-fortran.h
REM seed 1748205570 411716242 -2131264128 -2138700988 -221113884 -444362867 -1095861236 -1223320555 96124813 -74801579 -1952900420 2023531135 804768164 -1915821523 1792310957 -1546634203 -493055804 1632260932 -534534134 1638682673 1959760382 732675834 1942624161 -1323687771 -1037337962 202927642 -1300893213 1768028908 1131129281 1930072119 1081724265 -922796506 -429704996
REM
CELL 1.54180   50.00000   50.00000   50.00000   90.00000   90.00000   90.00000
LATT -1
SFAC C  
C      1  0.5035290000000  0.4525120000000  0.5008710000000 1.0
C      1  0.4764550000000  0.4980780000000  0.5490990000000 1.0
C      1  0.5030690000000  0.5439030000000  0.5008600000000 1.0
C      1  0.4767720000000  0.4980680000000  0.4524570000000 1.0
C      1  0.5304590000000  0.4500220000000  0.5009600000000 1.0
C      1  0.5036800000000  0.4982040000000  0.4551710000000 1.0
C      1  0.5299720000000  0.5466640000000  0.5009480000000 1.0
C      1  0.5033800000000  0.4982130000000  0.5465620000000 1.0
C      1  0.4836140000000  0.5254300000000  0.5007980000000 1.0
C      1  0.4580960000000  0.4979760000000  0.4724840000000 1.0
C      1  0.4838900000000  0.4707880000000  0.5008050000000 1.0
C      1  0.4579100000000  0.4979820000000  0.5289500000000 1.0
C      1  0.5486840000000  0.5266690000000  0.5010120000000 1.0
C      1  0.5229870000000  0.4983100000000  0.5282520000000 1.0
C      1  0.5489680000000  0.4702040000000  0.5010190000000 1.0
C      1  0.5231670000000  0.4983040000000  0.4736100000000 1.0
C      1  0.5384290000000  0.4983840000000  0.5009810000000 1.0
C      1  0.4684010000000  0.4980320000000  0.5007510000000 1.0
END
