TITL C-3201377-4638-383 0.0405335001800273 125000 -691.336627322859 0 0 114 (C1) n - 1
REM
REM in /home/nfs/bkarasulu/CARBON/AIRSS/Generating-Clusters/LCBOP/Higher-Symm/SD-CG/FIRE-CG
REM
REM
REM
REM
REM
REM ./C.cell (b20cbc046b6831c77cfcea5457e17084)
REM AIRSS Version 0.9.1 bugfix July 2018 build 013d7b7c2542+ Fri, 06 Jul 2018 19:26:36 +0100
REM compiler GCC version 9.2.1 20190827 (Red Hat 9.2.1-1)
REM options -cpp -mtune=generic -march=x86-64 -g -O0 -fpre-include=/usr/include/finclude/math-vector-fortran.h
REM seed -1963300768 -81803312 -1779491540 1940467927 -162800984 1389822035 292137781 690819050 -1737485531 -639127218 1297910022 -2057457818 1826576274 1438972178 1491390811 -253753575 1083239776 1305575656 1828292575 1935740640 -1398453681 1931963556 247383115 -1720311439 -1999211802 755710701 990539296 -660858167 557298036 1675898612 1157967434 287593142 -581054608
REM
CELL 1.54180   50.00000   50.00000   50.00000   90.00000   90.00000   90.00000
LATT -1
SFAC C  
C      1  0.5906520000000  0.4661870000000  0.4871440000000 1.0
C      1  0.4884740000000  0.4271500000000  0.5100010000000 1.0
C      1  0.4369730000000  0.4804680000000  0.5100160000000 1.0
C      1  0.4377150000000  0.5553500000000  0.4968280000000 1.0
C      1  0.5775240000000  0.5615660000000  0.5054860000000 1.0
C      1  0.4806170000000  0.5358680000000  0.5031460000000 1.0
C      1  0.5331530000000  0.5470730000000  0.4851710000000 1.0
C      1  0.5592390000000  0.4990880000000  0.4891550000000 1.0
C      1  0.5222610000000  0.4619270000000  0.5115020000000 1.0
C      1  0.4791710000000  0.4909280000000  0.5302950000000 1.0
C      1  0.6566970000000  0.5214000000000  0.5023260000000 1.0
C      1  0.5185740000000  0.4197830000000  0.4519750000000 1.0
C      1  0.4624960000000  0.4372430000000  0.4334950000000 1.0
C      1  0.4172550000000  0.5146270000000  0.4312240000000 1.0
C      1  0.3653390000000  0.6084020000000  0.4644000000000 1.0
C      1  0.6677680000000  0.5634000000000  0.5290860000000 1.0
C      1  0.5448130000000  0.3840480000000  0.4773710000000 1.0
C      1  0.4409520000000  0.3952340000000  0.4539300000000 1.0
C      1  0.3696290000000  0.5034050000000  0.4437790000000 1.0
C      1  0.3948120000000  0.6460540000000  0.4800860000000 1.0
C      1  0.5610310000000  0.5596840000000  0.5511600000000 1.0
C      1  0.5820790000000  0.4613050000000  0.5375090000000 1.0
C      1  0.4918440000000  0.4198380000000  0.5553220000000 1.0
C      1  0.4173400000000  0.4818430000000  0.5529430000000 1.0
C      1  0.4569840000000  0.5664960000000  0.5422930000000 1.0
C      1  0.3714070000000  0.5826560000000  0.4676520000000 1.0
C      1  0.6332620000000  0.5121880000000  0.4936480000000 1.0
C      1  0.5253930000000  0.4468520000000  0.4479920000000 1.0
C      1  0.4752910000000  0.4576400000000  0.4481190000000 1.0
C      1  0.4383530000000  0.5147620000000  0.4474550000000 1.0
C      1  0.5439420000000  0.4342650000000  0.5569840000000 1.0
C      1  0.4558910000000  0.4491020000000  0.5719410000000 1.0
C      1  0.4261660000000  0.5279920000000  0.5655790000000 1.0
C      1  0.5072920000000  0.5713750000000  0.5510620000000 1.0
C      1  0.5797880000000  0.5134790000000  0.5541120000000 1.0
C      1  0.6697140000000  0.5405930000000  0.5154460000000 1.0
C      1  0.5264530000000  0.3967410000000  0.4628220000000 1.0
C      1  0.4497310000000  0.4140430000000  0.4371770000000 1.0
C      1  0.3909660000000  0.5105610000000  0.4294640000000 1.0
C      1  0.3742530000000  0.6331320000000  0.4690160000000 1.0
C      1  0.4355260000000  0.6256220000000  0.5035790000000 1.0
C      1  0.6267250000000  0.5907250000000  0.5428950000000 1.0
C      1  0.5864110000000  0.3998000000000  0.5031180000000 1.0
C      1  0.4438390000000  0.3831910000000  0.5042500000000 1.0
C      1  0.3688300000000  0.4893840000000  0.4929130000000 1.0
C      1  0.4775660000000  0.5195200000000  0.5269200000000 1.0
C      1  0.5049390000000  0.5490790000000  0.4935160000000 1.0
C      1  0.5417610000000  0.5198910000000  0.4782600000000 1.0
C      1  0.5451420000000  0.4748050000000  0.4999330000000 1.0
C      1  0.5024590000000  0.4810700000000  0.5182720000000 1.0
C      1  0.5767710000000  0.5434910000000  0.6198320000000 1.0
C      1  0.6048590000000  0.4228750000000  0.5938650000000 1.0
C      1  0.4903250000000  0.4176770000000  0.6276660000000 1.0
C      1  0.3724890000000  0.5011070000000  0.6065860000000 1.0
C      1  0.4698980000000  0.6239900000000  0.5826460000000 1.0
C      1  0.5530320000000  0.4530910000000  0.4517620000000 1.0
C      1  0.4650310000000  0.4624030000000  0.4745320000000 1.0
C      1  0.4489140000000  0.5114890000000  0.4732750000000 1.0
C      1  0.3887250000000  0.5644680000000  0.4764130000000 1.0
C      1  0.6056040000000  0.5160710000000  0.4918970000000 1.0
C      1  0.4467070000000  0.5744740000000  0.5165630000000 1.0
C      1  0.5789610000000  0.5712600000000  0.5321610000000 1.0
C      1  0.5919020000000  0.4513340000000  0.5120360000000 1.0
C      1  0.4770890000000  0.4112970000000  0.5315080000000 1.0
C      1  0.4116110000000  0.4829020000000  0.5240270000000 1.0
C      1  0.4752910000000  0.6023540000000  0.5691570000000 1.0
C      1  0.5750270000000  0.5408230000000  0.5939690000000 1.0
C      1  0.5881940000000  0.4324470000000  0.5762640000000 1.0
C      1  0.4834150000000  0.4237930000000  0.6032940000000 1.0
C      1  0.3913490000000  0.5027460000000  0.5886760000000 1.0
C      1  0.5671830000000  0.3852910000000  0.4917710000000 1.0
C      1  0.4384630000000  0.3843670000000  0.4781470000000 1.0
C      1  0.3617840000000  0.4956170000000  0.4680260000000 1.0
C      1  0.4178600000000  0.6424360000000  0.4929640000000 1.0
C      1  0.6516160000000  0.5820670000000  0.5391010000000 1.0
C      1  0.4801880000000  0.5793940000000  0.5536900000000 1.0
C      1  0.5717840000000  0.5377350000000  0.5663620000000 1.0
C      1  0.5709390000000  0.4426970000000  0.5566930000000 1.0
C      1  0.4770360000000  0.4308290000000  0.5770670000000 1.0
C      1  0.4113710000000  0.5042280000000  0.5693510000000 1.0
C      1  0.4561830000000  0.5352460000000  0.4882810000000 1.0
C      1  0.5535390000000  0.5651590000000  0.4912720000000 1.0
C      1  0.5873860000000  0.4949110000000  0.4883590000000 1.0
C      1  0.5145900000000  0.4361170000000  0.5184950000000 1.0
C      1  0.4560920000000  0.4759560000000  0.5316160000000 1.0
C      1  0.4489810000000  0.4846230000000  0.4843840000000 1.0
C      1  0.4115750000000  0.5561250000000  0.4870400000000 1.0
C      1  0.5957220000000  0.5421540000000  0.4963950000000 1.0
C      1  0.5766620000000  0.4545600000000  0.4648320000000 1.0
C      1  0.4724390000000  0.4417470000000  0.4924780000000 1.0
C      1  0.5186660000000  0.4286240000000  0.5464940000000 1.0
C      1  0.4430100000000  0.4679420000000  0.5558960000000 1.0
C      1  0.4421230000000  0.5477030000000  0.5572670000000 1.0
C      1  0.5339770000000  0.5682360000000  0.5528440000000 1.0
C      1  0.5833710000000  0.4885620000000  0.5450210000000 1.0
C      1  0.3867100000000  0.4853750000000  0.5121380000000 1.0
C      1  0.4449290000000  0.6018330000000  0.5106860000000 1.0
C      1  0.6004970000000  0.5871640000000  0.5401630000000 1.0
C      1  0.5962950000000  0.4235840000000  0.5099080000000 1.0
C      1  0.4575290000000  0.3926250000000  0.5251800000000 1.0
C      1  0.5061130000000  0.4807570000000  0.3869300000000 1.0
C      1  0.5124410000000  0.4985440000000  0.6044150000000 1.0
C      1  0.5263310000000  0.5188830000000  0.5300310000000 1.0
C      1  0.5075760000000  0.4926660000000  0.3353080000000 1.0
C      1  0.5164830000000  0.5061080000000  0.4801150000000 1.0
C      1  0.5068460000000  0.4867120000000  0.3611200000000 1.0
C      1  0.5035840000000  0.4674560000000  0.4414430000000 1.0
C      1  0.5052410000000  0.4747400000000  0.4126960000000 1.0
C      1  0.5083060000000  0.4986220000000  0.3094890000000 1.0
C      1  0.5068290000000  0.4917050000000  0.4587320000000 1.0
C      1  0.5192050000000  0.5084740000000  0.5812840000000 1.0
C      1  0.5252900000000  0.5163320000000  0.5566860000000 1.0
C      1  0.5142170000000  0.5049630000000  0.5086100000000 1.0
C      1  0.5090240000000  0.5044800000000  0.2840960000000 1.0
END
