TITL C-3201379-3821-1054 -49607.9564253648 125000 -599.714126728278 0 0 99 (C1) n - 1
REM
REM in /home/nfs/bkarasulu/CARBON/AIRSS/Generating-Clusters/LCBOP/Higher-Symm/SD-CG/FIRE-CG
REM
REM
REM
REM
REM
REM ./C.cell (b20cbc046b6831c77cfcea5457e17084)
REM AIRSS Version 0.9.1 bugfix July 2018 build 013d7b7c2542+ Fri, 06 Jul 2018 19:26:36 +0100
REM compiler GCC version 9.2.1 20190827 (Red Hat 9.2.1-1)
REM options -cpp -mtune=generic -march=x86-64 -g -O0 -fpre-include=/usr/include/finclude/math-vector-fortran.h
REM seed 1414349317 -1810511313 204307768 -467894122 -1760972524 710092350 455207302 1723969634 325407879 -243067020 -2137758187 955121871 2101706086 -699010009 -1414527534 -1326670362 -13980574 44971393 -1142811911 -992867635 400656869 783992613 1039293582 -1136818957 691056871 392790795 2123215064 -1238099930 -865850607 -623898383 1564178692 -1964810495 2041050265
REM
CELL 1.54180   50.00000   50.00000   50.00000   90.00000   90.00000   90.00000
LATT -1
SFAC C  
C      1  0.4786560000000  0.3998420000000  0.5011340000000 1.0
C      1  0.3961690000000  0.4867020000000  0.4911650000000 1.0
C      1  0.4518950000000  0.5879230000000  0.5090190000000 1.0
C      1  0.5752820000000  0.5590840000000  0.4844870000000 1.0
C      1  0.5864330000000  0.4308410000000  0.5065960000000 1.0
C      1  0.4321700000000  0.5291270000000  0.4967600000000 1.0
C      1  0.5164110000000  0.5632220000000  0.4948000000000 1.0
C      1  0.5807880000000  0.4936630000000  0.5048960000000 1.0
C      1  0.5296840000000  0.4419340000000  0.5034540000000 1.0
C      1  0.4579560000000  0.4618590000000  0.5016980000000 1.0
C      1  0.4635930000000  0.4870950000000  0.5590300000000 1.0
C      1  0.4679620000000  0.5564150000000  0.5707320000000 1.0
C      1  0.5136090000000  0.5234530000000  0.5534020000000 1.0
C      1  0.5342370000000  0.4874470000000  0.5821660000000 1.0
C      1  0.4929440000000  0.4770350000000  0.5561090000000 1.0
C      1  0.4893880000000  0.5734430000000  0.5722760000000 1.0
C      1  0.5395690000000  0.5358960000000  0.5507620000000 1.0
C      1  0.5523190000000  0.4723930000000  0.5664940000000 1.0
C      1  0.4923960000000  0.4458040000000  0.5580430000000 1.0
C      1  0.4367510000000  0.4761450000000  0.5616380000000 1.0
C      1  0.4707130000000  0.5456450000000  0.4409160000000 1.0
C      1  0.5278760000000  0.5490950000000  0.4316210000000 1.0
C      1  0.5506030000000  0.4867470000000  0.4401910000000 1.0
C      1  0.5003410000000  0.4557120000000  0.4457490000000 1.0
C      1  0.4545050000000  0.4917450000000  0.4443490000000 1.0
C      1  0.5650560000000  0.5740580000000  0.5071330000000 1.0
C      1  0.5912050000000  0.4512990000000  0.5237370000000 1.0
C      1  0.5015720000000  0.4021350000000  0.5157820000000 1.0
C      1  0.4084040000000  0.4681970000000  0.5082260000000 1.0
C      1  0.4361530000000  0.5690620000000  0.5216740000000 1.0
C      1  0.5173590000000  0.5259400000000  0.4447040000000 1.0
C      1  0.5265480000000  0.4991460000000  0.4493850000000 1.0
C      1  0.5031960000000  0.4827240000000  0.4534540000000 1.0
C      1  0.4803660000000  0.4994970000000  0.4524130000000 1.0
C      1  0.4894300000000  0.5258210000000  0.4488030000000 1.0
C      1  0.6012480000000  0.5180730000000  0.4692610000000 1.0
C      1  0.5501160000000  0.4142290000000  0.4726500000000 1.0
C      1  0.4449820000000  0.4281830000000  0.4714500000000 1.0
C      1  0.4074810000000  0.5303440000000  0.4605090000000 1.0
C      1  0.4931070000000  0.5992090000000  0.4755970000000 1.0
C      1  0.4388260000000  0.4844130000000  0.4665290000000 1.0
C      1  0.4587420000000  0.5537060000000  0.4657530000000 1.0
C      1  0.5358480000000  0.5680420000000  0.4517880000000 1.0
C      1  0.5663650000000  0.4765600000000  0.4625260000000 1.0
C      1  0.4992050000000  0.4387950000000  0.4687260000000 1.0
C      1  0.5699160000000  0.4892460000000  0.5509580000000 1.0
C      1  0.5189380000000  0.4333470000000  0.5512750000000 1.0
C      1  0.4398130000000  0.4510500000000  0.5473360000000 1.0
C      1  0.4159050000000  0.5227570000000  0.5422390000000 1.0
C      1  0.5339030000000  0.5643000000000  0.5448020000000 1.0
C      1  0.5980690000000  0.5436250000000  0.4782200000000 1.0
C      1  0.5731400000000  0.4177080000000  0.4869760000000 1.0
C      1  0.4588010000000  0.4084070000000  0.4845340000000 1.0
C      1  0.3951900000000  0.5079080000000  0.4728790000000 1.0
C      1  0.4708750000000  0.5989720000000  0.4922620000000 1.0
C      1  0.5143110000000  0.5766200000000  0.5618390000000 1.0
C      1  0.5619590000000  0.5177570000000  0.5510750000000 1.0
C      1  0.5426760000000  0.4462150000000  0.5612010000000 1.0
C      1  0.4646090000000  0.4367770000000  0.5544790000000 1.0
C      1  0.4173880000000  0.4980960000000  0.5556320000000 1.0
C      1  0.4524600000000  0.4890500000000  0.4162890000000 1.0
C      1  0.4695700000000  0.5432310000000  0.4121210000000 1.0
C      1  0.5271330000000  0.5449510000000  0.4036740000000 1.0
C      1  0.5469800000000  0.4866070000000  0.4113280000000 1.0
C      1  0.4986380000000  0.4540310000000  0.4173410000000 1.0
C      1  0.4314590000000  0.5435630000000  0.4719820000000 1.0
C      1  0.5170620000000  0.5828830000000  0.4700890000000 1.0
C      1  0.5886700000000  0.4936470000000  0.4762570000000 1.0
C      1  0.5246240000000  0.4264580000000  0.4774090000000 1.0
C      1  0.4431540000000  0.4568650000000  0.4746660000000 1.0
C      1  0.5371820000000  0.5730540000000  0.5174840000000 1.0
C      1  0.5857640000000  0.4788850000000  0.5288560000000 1.0
C      1  0.5226580000000  0.4200850000000  0.5250000000000 1.0
C      1  0.4330910000000  0.4554410000000  0.5197000000000 1.0
C      1  0.4263080000000  0.5414940000000  0.5217590000000 1.0
C      1  0.4826750000000  0.5361640000000  0.5109120000000 1.0
C      1  0.5326690000000  0.5374650000000  0.4871830000000 1.0
C      1  0.5520580000000  0.4928290000000  0.5019460000000 1.0
C      1  0.5063640000000  0.4583190000000  0.5097660000000 1.0
C      1  0.4608880000000  0.4932110000000  0.5089140000000 1.0
C      1  0.5323540000000  0.5122630000000  0.5005730000000 1.0
C      1  0.5063820000000  0.4794550000000  0.5277370000000 1.0
C      1  0.4585400000000  0.5090170000000  0.5432750000000 1.0
C      1  0.4671190000000  0.5342810000000  0.5529020000000 1.0
C      1  0.4920310000000  0.5363330000000  0.5383060000000 1.0
C      1  0.4398650000000  0.5028260000000  0.4905150000000 1.0
C      1  0.4840720000000  0.5547360000000  0.4914870000000 1.0
C      1  0.5524970000000  0.5507030000000  0.4697670000000 1.0
C      1  0.5493270000000  0.4682280000000  0.4868140000000 1.0
C      1  0.4849820000000  0.4510790000000  0.4928600000000 1.0
C      1  0.4831840000000  0.5226870000000  0.3965380000000 1.0
C      1  0.5128680000000  0.5222420000000  0.3935380000000 1.0
C      1  0.5227040000000  0.4941070000000  0.3971690000000 1.0
C      1  0.4984020000000  0.4770360000000  0.4000270000000 1.0
C      1  0.4745720000000  0.4945420000000  0.3991520000000 1.0
C      1  0.5088480000000  0.5015780000000  0.5108610000000 1.0
C      1  0.5086000000000  0.4992750000000  0.5725800000000 1.0
C      1  0.4839350000000  0.5094450000000  0.5017960000000 1.0
C      1  0.4924910000000  0.5081460000000  0.5967770000000 1.0
END
