TITL C-3201376-6384-1969 -7.10407962934969e-08 125000 -24.5568172496353 0 0 5 (D5h) n - 1
REM
REM in /home/nfs/bkarasulu/CARBON/AIRSS/Generating-Clusters/LCBOP/Higher-Symm/SD-CG/FIRE-CG
REM
REM
REM
REM
REM
REM ./C.cell (b20cbc046b6831c77cfcea5457e17084)
REM AIRSS Version 0.9.1 bugfix July 2018 build 013d7b7c2542+ Fri, 06 Jul 2018 19:26:36 +0100
REM compiler GCC version 9.2.1 20190827 (Red Hat 9.2.1-1)
REM options -cpp -mtune=generic -march=x86-64 -g -O0 -fpre-include=/usr/include/finclude/math-vector-fortran.h
REM seed -1828431711 -877785072 1173693971 1680534616 590242736 9191628 -591781310 -1018613847 -2131123015 -703594050 -131904743 -243080177 -1527561961 1500047409 1856601215 -1180642255 -790901489 681130945 -100998134 25710002 1045726851 1363573771 -1685203599 1505090952 2103163363 2011380521 -102364408 483619830 769573518 -1872375074 -1647162532 662869440 -361894064
REM
CELL 1.54180   50.00000   50.00000   50.00000   90.00000   90.00000   90.00000
LATT -1
SFAC C  
C      1  0.5085310000000  0.5000000000000  0.4775810000000 1.0
C      1  0.5239580000000  0.5000000000000  0.5011860000000 1.0
C      1  0.5062760000000  0.5000000000000  0.5231520000000 1.0
C      1  0.4799210000000  0.5000000000000  0.5131230000000 1.0
C      1  0.4813140000000  0.5000000000000  0.4849590000000 1.0
END
