TITL C-3201373-1215-520 0.189483144406637 125000 -478.990140865396 0 0 78 (Ci) n - 1
REM
REM in /home/nfs/bkarasulu/CARBON/AIRSS/Generating-Clusters/LCBOP/Higher-Symm/SD-CG/FIRE-CG
REM
REM
REM
REM
REM
REM ./C.cell (b20cbc046b6831c77cfcea5457e17084)
REM AIRSS Version 0.9.1 bugfix July 2018 build 013d7b7c2542+ Fri, 06 Jul 2018 19:26:36 +0100
REM compiler GCC version 9.2.1 20190827 (Red Hat 9.2.1-1)
REM options -cpp -mtune=generic -march=x86-64 -g -O0 -fpre-include=/usr/include/finclude/math-vector-fortran.h
REM seed 1558307861 -2056728685 2062682340 -254532576 952356899 -77624660 -1984737586 -1323315356 -433514152 1564436384 540979206 249796182 -1038722027 -1898935588 -925711359 -914353945 1278408915 254456055 -1810029707 350882633 798861403 647313147 1113265632 -1623601096 1763667031 -2068130458 -1896483618 -313209735 1728124620 -661354481 537198407 1308655795 -1305520524
REM
CELL 1.54180   50.00000   50.00000   50.00000   90.00000   90.00000   90.00000
LATT -1
SFAC C  
C      1  0.4807360000000  0.5439570000000  0.5312150000000 1.0
C      1  0.5209360000000  0.4583780000000  0.5334120000000 1.0
C      1  0.4790640000000  0.5416220000000  0.4652860000000 1.0
C      1  0.5192640000000  0.4560440000000  0.4674830000000 1.0
C      1  0.3757190000000  0.6186230000000  0.4694830000000 1.0
C      1  0.6230290000000  0.3794180000000  0.4754470000000 1.0
C      1  0.3769700000000  0.6205810000000  0.5232510000000 1.0
C      1  0.6242800000000  0.3813760000000  0.5292150000000 1.0
C      1  0.5061240000000  0.5513850000000  0.4643280000000 1.0
C      1  0.4922920000000  0.4460240000000  0.4657600000000 1.0
C      1  0.5077080000000  0.5539770000000  0.5329370000000 1.0
C      1  0.4938770000000  0.4486150000000  0.5343690000000 1.0
C      1  0.4275900000000  0.4510940000000  0.4369820000000 1.0
C      1  0.5699470000000  0.5459960000000  0.4325190000000 1.0
C      1  0.4300530000000  0.4540040000000  0.5661790000000 1.0
C      1  0.5724100000000  0.5489060000000  0.5617160000000 1.0
C      1  0.4470460000000  0.4631170000000  0.4521980000000 1.0
C      1  0.5510320000000  0.5347620000000  0.4489780000000 1.0
C      1  0.4489680000000  0.4652380000000  0.5497200000000 1.0
C      1  0.5529540000000  0.5368840000000  0.5465000000000 1.0
C      1  0.4846630000000  0.4339310000000  0.5124110000000 1.0
C      1  0.5170130000000  0.5725980000000  0.5134960000000 1.0
C      1  0.4829870000000  0.4274020000000  0.4852020000000 1.0
C      1  0.5153380000000  0.5660700000000  0.4862870000000 1.0
C      1  0.4164210000000  0.4760800000000  0.5150660000000 1.0
C      1  0.5841070000000  0.5249180000000  0.5106860000000 1.0
C      1  0.4158930000000  0.4750820000000  0.4880120000000 1.0
C      1  0.5835800000000  0.5239200000000  0.4836320000000 1.0
C      1  0.5220880000000  0.4840350000000  0.4715190000000 1.0
C      1  0.4765580000000  0.5139940000000  0.4710990000000 1.0
C      1  0.5234420000000  0.4860070000000  0.5275980000000 1.0
C      1  0.4779120000000  0.5159650000000  0.5271790000000 1.0
C      1  0.5832330000000  0.4085950000000  0.4732080000000 1.0
C      1  0.4154260000000  0.5892960000000  0.4675430000000 1.0
C      1  0.5845730000000  0.4107040000000  0.5311550000000 1.0
C      1  0.4167660000000  0.5914050000000  0.5254900000000 1.0
C      1  0.5156910000000  0.5339070000000  0.5771020000000 1.0
C      1  0.4872720000000  0.4681750000000  0.5788500000000 1.0
C      1  0.5127280000000  0.5318250000000  0.4198480000000 1.0
C      1  0.4843090000000  0.4660930000000  0.4215960000000 1.0
C      1  0.6026830000000  0.3950560000000  0.4877910000000 1.0
C      1  0.3966420000000  0.6038920000000  0.4819750000000 1.0
C      1  0.6033570000000  0.3961080000000  0.5167230000000 1.0
C      1  0.3973170000000  0.6049430000000  0.5109070000000 1.0
C      1  0.4933840000000  0.4863200000000  0.4068270000000 1.0
C      1  0.5029330000000  0.5111830000000  0.4061360000000 1.0
C      1  0.4970670000000  0.4888170000000  0.5925620000000 1.0
C      1  0.5066160000000  0.5136810000000  0.5918710000000 1.0
C      1  0.4587800000000  0.5608170000000  0.5340260000000 1.0
C      1  0.5427880000000  0.4418830000000  0.5381770000000 1.0
C      1  0.4572120000000  0.5581170000000  0.4605210000000 1.0
C      1  0.5412200000000  0.4391830000000  0.4646720000000 1.0
C      1  0.4374910000000  0.5765170000000  0.5326380000000 1.0
C      1  0.5640830000000  0.4261320000000  0.5378170000000 1.0
C      1  0.4359170000000  0.5738680000000  0.4608810000000 1.0
C      1  0.5625090000000  0.4234830000000  0.4660600000000 1.0
C      1  0.3569000000000  0.6331820000000  0.4826950000000 1.0
C      1  0.6424660000000  0.3658260000000  0.4887940000000 1.0
C      1  0.3575330000000  0.6341730000000  0.5099040000000 1.0
C      1  0.6430990000000  0.3668170000000  0.5160030000000 1.0
C      1  0.4393090000000  0.4809140000000  0.4730230000000 1.0
C      1  0.5595050000000  0.5174570000000  0.4699430000000 1.0
C      1  0.4404950000000  0.4825430000000  0.5287550000000 1.0
C      1  0.5606910000000  0.5190870000000  0.5256750000000 1.0
C      1  0.5380020000000  0.6194590000000  0.5300350000000 1.0
C      1  0.4724940000000  0.4028320000000  0.4771530000000 1.0
C      1  0.5275060000000  0.5971680000000  0.5215440000000 1.0
C      1  0.4619980000000  0.3805410000000  0.4686630000000 1.0
C      1  0.4764370000000  0.4590640000000  0.5545120000000 1.0
C      1  0.5256070000000  0.5428130000000  0.5523310000000 1.0
C      1  0.4743930000000  0.4571870000000  0.4463670000000 1.0
C      1  0.5235630000000  0.5409360000000  0.4441860000000 1.0
C      1  0.4562770000000  0.5006000000000  0.4855110000000 1.0
C      1  0.5430260000000  0.4984480000000  0.4841050000000 1.0
C      1  0.4569740000000  0.5015530000000  0.5145930000000 1.0
C      1  0.5437240000000  0.4994000000000  0.5131870000000 1.0
C      1  0.4993010000000  0.4989010000000  0.4657060000000 1.0
C      1  0.5006990000000  0.5010990000000  0.5329920000000 1.0
END
