TITL C-3201375-1262-1644 -5.76774663022577e-08 125000 -113.656033329243 0 0 20 (C2h) n - 1
REM
REM in /home/nfs/bkarasulu/CARBON/AIRSS/Generating-Clusters/LCBOP/Higher-Symm/SD-CG/FIRE-CG
REM
REM
REM
REM
REM
REM ./C.cell (b20cbc046b6831c77cfcea5457e17084)
REM AIRSS Version 0.9.1 bugfix July 2018 build 013d7b7c2542+ Fri, 06 Jul 2018 19:26:36 +0100
REM compiler GCC version 9.2.1 20190827 (Red Hat 9.2.1-1)
REM options -cpp -mtune=generic -march=x86-64 -g -O0 -fpre-include=/usr/include/finclude/math-vector-fortran.h
REM seed 1391435725 210832452 1029757057 687749507 1534012684 -28509425 488751351 1952147542 -1390469756 1987239105 1504164761 741006660 2027157457 -1074423675 1774958095 -1969630821 -2139534526 -1704765285 1476063421 -824404463 81441016 -1416315336 737215056 -764399023 307748213 186519477 -465433545 -237856703 735901346 1888079545 316008285 597351391 811148520
REM
CELL 1.54180   50.00000   50.00000   50.00000   90.00000   90.00000   90.00000
LATT -1
SFAC C  
C      1  0.4412030000000  0.5255060000000  0.5367290000000 1.0
C      1  0.5587970000000  0.4744940000000  0.5367290000000 1.0
C      1  0.4412030000000  0.5255060000000  0.4632710000000 1.0
C      1  0.5587970000000  0.4744940000000  0.4632710000000 1.0
C      1  0.4895330000000  0.5311140000000  0.5330660000000 1.0
C      1  0.5104670000000  0.4688860000000  0.5330660000000 1.0
C      1  0.4895330000000  0.5311140000000  0.4669340000000 1.0
C      1  0.5104670000000  0.4688860000000  0.4669340000000 1.0
C      1  0.5343630000000  0.4832360000000  0.4715890000000 1.0
C      1  0.4656370000000  0.5167640000000  0.4715890000000 1.0
C      1  0.5343630000000  0.4832360000000  0.5284110000000 1.0
C      1  0.4656370000000  0.5167640000000  0.5284110000000 1.0
C      1  0.4692020000000  0.4920560000000  0.5143200000000 1.0
C      1  0.5307980000000  0.5079440000000  0.5143200000000 1.0
C      1  0.4692020000000  0.4920560000000  0.4856800000000 1.0
C      1  0.5307980000000  0.5079440000000  0.4856800000000 1.0
C      1  0.5156540000000  0.5278480000000  0.4724230000000 1.0
C      1  0.4843460000000  0.4721520000000  0.4724230000000 1.0
C      1  0.5156540000000  0.5278480000000  0.5275770000000 1.0
C      1  0.4843460000000  0.4721520000000  0.5275770000000 1.0
END
