TITL C-3201377-4638-1051 -2.67042709454586e-07 125000 -491.161676402559 0 0 82 (C1) n - 1
REM
REM in /home/nfs/bkarasulu/CARBON/AIRSS/Generating-Clusters/LCBOP/Higher-Symm/SD-CG/FIRE-CG
REM
REM
REM
REM
REM
REM ./C.cell (b20cbc046b6831c77cfcea5457e17084)
REM AIRSS Version 0.9.1 bugfix July 2018 build 013d7b7c2542+ Fri, 06 Jul 2018 19:26:36 +0100
REM compiler GCC version 9.2.1 20190827 (Red Hat 9.2.1-1)
REM options -cpp -mtune=generic -march=x86-64 -g -O0 -fpre-include=/usr/include/finclude/math-vector-fortran.h
REM seed 684035285 -1768267954 -1963716272 562997016 -1942123403 -1223476114 -169518148 1866248711 1659106054 1492516955 -782874024 51448796 -438330813 245334447 1341570555 -60886233 -138127402 1823111581 -2145315174 -1202554401 207630026 -265573770 -1248955773 -129800374 -1987075754 227481480 -1090071835 -845822135 -291704422 1339335193 -1483175668 -2011347183 -1915520400
REM
CELL 1.54180   50.00000   50.00000   50.00000   90.00000   90.00000   90.00000
LATT -1
SFAC C  
C      1  0.4788460000000  0.3905750000000  0.5031840000000 1.0
C      1  0.5491710000000  0.4001770000000  0.5045030000000 1.0
C      1  0.5211650000000  0.6109340000000  0.4546900000000 1.0
C      1  0.4891870000000  0.6059340000000  0.5198180000000 1.0
C      1  0.5715220000000  0.4530860000000  0.5778690000000 1.0
C      1  0.3981950000000  0.5023120000000  0.4518810000000 1.0
C      1  0.4976480000000  0.4084540000000  0.4621390000000 1.0
C      1  0.5266680000000  0.4071580000000  0.5469760000000 1.0
C      1  0.4627220000000  0.4569320000000  0.4770180000000 1.0
C      1  0.5148000000000  0.4583130000000  0.4981310000000 1.0
C      1  0.5418050000000  0.4006280000000  0.4789250000000 1.0
C      1  0.4855260000000  0.3902950000000  0.5290810000000 1.0
C      1  0.4541890000000  0.5332670000000  0.4942790000000 1.0
C      1  0.5231780000000  0.5424420000000  0.4998760000000 1.0
C      1  0.5049930000000  0.5215740000000  0.4924650000000 1.0
C      1  0.4772950000000  0.5171470000000  0.4990340000000 1.0
C      1  0.5276870000000  0.5518400000000  0.5284710000000 1.0
C      1  0.4509550000000  0.5477540000000  0.4699450000000 1.0
C      1  0.4308580000000  0.5297590000000  0.5109470000000 1.0
C      1  0.5427470000000  0.5497540000000  0.4807240000000 1.0
C      1  0.4880160000000  0.5379310000000  0.5545840000000 1.0
C      1  0.5189980000000  0.5443490000000  0.4203660000000 1.0
C      1  0.5177860000000  0.5009730000000  0.4766160000000 1.0
C      1  0.4718190000000  0.4926000000000  0.5131730000000 1.0
C      1  0.5178730000000  0.6169870000000  0.4818720000000 1.0
C      1  0.4919470000000  0.6163180000000  0.4938020000000 1.0
C      1  0.5702000000000  0.5253050000000  0.4486230000000 1.0
C      1  0.4329890000000  0.5089940000000  0.5559340000000 1.0
C      1  0.5632160000000  0.4756080000000  0.4330400000000 1.0
C      1  0.4524010000000  0.4637930000000  0.5749410000000 1.0
C      1  0.5043660000000  0.5226390000000  0.4304390000000 1.0
C      1  0.4970230000000  0.5108760000000  0.5548970000000 1.0
C      1  0.5251750000000  0.5091440000000  0.5591310000000 1.0
C      1  0.4764150000000  0.5251730000000  0.4302580000000 1.0
C      1  0.4836210000000  0.4218240000000  0.5661090000000 1.0
C      1  0.5364680000000  0.4310120000000  0.4416830000000 1.0
C      1  0.5240940000000  0.5704710000000  0.4220090000000 1.0
C      1  0.5007730000000  0.5592760000000  0.5409260000000 1.0
C      1  0.5547790000000  0.4727740000000  0.5839770000000 1.0
C      1  0.4152450000000  0.4889740000000  0.4362920000000 1.0
C      1  0.4579890000000  0.4285790000000  0.4828690000000 1.0
C      1  0.5654020000000  0.4349420000000  0.5339870000000 1.0
C      1  0.4434020000000  0.5746430000000  0.4696720000000 1.0
C      1  0.5459340000000  0.5754450000000  0.5286780000000 1.0
C      1  0.5401290000000  0.6157030000000  0.4990310000000 1.0
C      1  0.4686540000000  0.6175460000000  0.4782710000000 1.0
C      1  0.5020780000000  0.4439910000000  0.5156350000000 1.0
C      1  0.4584300000000  0.4670320000000  0.4513710000000 1.0
C      1  0.4309770000000  0.5317890000000  0.5394080000000 1.0
C      1  0.5651390000000  0.5484790000000  0.4637530000000 1.0
C      1  0.4344300000000  0.4566120000000  0.5138090000000 1.0
C      1  0.5573570000000  0.4792930000000  0.5010860000000 1.0
C      1  0.5505820000000  0.4521720000000  0.4337990000000 1.0
C      1  0.4675770000000  0.4418420000000  0.5735580000000 1.0
C      1  0.5651630000000  0.4566680000000  0.5161100000000 1.0
C      1  0.4375120000000  0.4299160000000  0.5033240000000 1.0
C      1  0.5153430000000  0.5043250000000  0.4488090000000 1.0
C      1  0.4834320000000  0.4921060000000  0.5389190000000 1.0
C      1  0.4497220000000  0.6004640000000  0.4704160000000 1.0
C      1  0.5505280000000  0.5991460000000  0.5172630000000 1.0
C      1  0.3951130000000  0.5143110000000  0.4754860000000 1.0
C      1  0.5809620000000  0.4360650000000  0.5577600000000 1.0
C      1  0.6038270000000  0.4214550000000  0.5606310000000 1.0
C      1  0.4069390000000  0.5234410000000  0.4975410000000 1.0
C      1  0.4572420000000  0.5352250000000  0.4457350000000 1.0
C      1  0.5392460000000  0.5291850000000  0.5447880000000 1.0
C      1  0.4122880000000  0.4652300000000  0.5268700000000 1.0
C      1  0.5746290000000  0.5003340000000  0.4990410000000 1.0
C      1  0.5253890000000  0.4122420000000  0.4592860000000 1.0
C      1  0.4986300000000  0.4048710000000  0.5493740000000 1.0
C      1  0.5308720000000  0.4797210000000  0.4902880000000 1.0
C      1  0.4560580000000  0.4722480000000  0.5014630000000 1.0
C      1  0.4904160000000  0.5847400000000  0.5358980000000 1.0
C      1  0.5238320000000  0.5941430000000  0.4342040000000 1.0
C      1  0.4766100000000  0.4076020000000  0.4807700000000 1.0
C      1  0.5481210000000  0.4127520000000  0.5295690000000 1.0
C      1  0.5375510000000  0.4914930000000  0.5765140000000 1.0
C      1  0.4389890000000  0.4768060000000  0.4359050000000 1.0
C      1  0.4283030000000  0.5565310000000  0.5509320000000 1.0
C      1  0.5822520000000  0.5697790000000  0.4621250000000 1.0
C      1  0.4403580000000  0.4869860000000  0.5692260000000 1.0
C      1  0.5702300000000  0.5007930000000  0.4381940000000 1.0
END
