TITL C-3201373-1215-222 -813.055519970793 125000 -671.796791448019 0 0 113 (C1) n - 1
REM
REM in /home/nfs/bkarasulu/CARBON/AIRSS/Generating-Clusters/LCBOP/Higher-Symm/SD-CG/FIRE-CG
REM
REM
REM
REM
REM
REM ./C.cell (b20cbc046b6831c77cfcea5457e17084)
REM AIRSS Version 0.9.1 bugfix July 2018 build 013d7b7c2542+ Fri, 06 Jul 2018 19:26:36 +0100
REM compiler GCC version 9.2.1 20190827 (Red Hat 9.2.1-1)
REM options -cpp -mtune=generic -march=x86-64 -g -O0 -fpre-include=/usr/include/finclude/math-vector-fortran.h
REM seed 593685600 -1409832835 1126137528 -147385595 -574319896 1011235619 -1326028009 -82755290 -1558812226 -552226038 -1456448117 -115531297 2036540807 2016226850 -688905667 -383985416 1877245683 -209588792 1182897930 124261553 -871570818 -577459049 1334126113 55505035 -72675832 1017260507 673067734 933563915 1348307546 -1789615414 -742305899 -517273744 -1820497043
REM
CELL 1.54180   50.00000   50.00000   50.00000   90.00000   90.00000   90.00000
LATT -1
SFAC C  
C      1  0.5853220000000  0.4739100000000  0.4805890000000 1.0
C      1  0.4698220000000  0.4818700000000  0.5937480000000 1.0
C      1  0.4760260000000  0.5946310000000  0.4777700000000 1.0
C      1  0.4134310000000  0.4681510000000  0.5151620000000 1.0
C      1  0.4114810000000  0.5150250000000  0.4754810000000 1.0
C      1  0.5896790000000  0.5164120000000  0.5241630000000 1.0
C      1  0.5158140000000  0.4780450000000  0.4152780000000 1.0
C      1  0.5261550000000  0.5147850000000  0.5909690000000 1.0
C      1  0.4748040000000  0.5232590000000  0.4109500000000 1.0
C      1  0.5199670000000  0.5949170000000  0.5245450000000 1.0
C      1  0.5217740000000  0.4028490000000  0.4872550000000 1.0
C      1  0.4797480000000  0.4041980000000  0.5323540000000 1.0
C      1  0.5346590000000  0.4739830000000  0.5243440000000 1.0
C      1  0.5016740000000  0.4953310000000  0.5487880000000 1.0
C      1  0.5057570000000  0.5471140000000  0.4854380000000 1.0
C      1  0.4705420000000  0.4943710000000  0.5040020000000 1.0
C      1  0.4546650000000  0.5425160000000  0.5072590000000 1.0
C      1  0.5474690000000  0.5346480000000  0.4872070000000 1.0
C      1  0.5443030000000  0.5176340000000  0.4639640000000 1.0
C      1  0.5268100000000  0.4982950000000  0.5375290000000 1.0
C      1  0.4927600000000  0.5025320000000  0.4523100000000 1.0
C      1  0.4770030000000  0.5535450000000  0.5219540000000 1.0
C      1  0.4925930000000  0.4773280000000  0.4946120000000 1.0
C      1  0.5164020000000  0.4508910000000  0.5268890000000 1.0
C      1  0.5787600000000  0.5370970000000  0.5418060000000 1.0
C      1  0.5471380000000  0.5330170000000  0.5804050000000 1.0
C      1  0.5386010000000  0.5767280000000  0.5430950000000 1.0
C      1  0.4238720000000  0.5369440000000  0.4609100000000 1.0
C      1  0.4248110000000  0.4501390000000  0.5349580000000 1.0
C      1  0.5691730000000  0.4562050000000  0.4646690000000 1.0
C      1  0.4556870000000  0.5410660000000  0.4234660000000 1.0
C      1  0.4499230000000  0.4628130000000  0.5794900000000 1.0
C      1  0.5306690000000  0.4591080000000  0.4322340000000 1.0
C      1  0.4583200000000  0.5774060000000  0.4603170000000 1.0
C      1  0.4619770000000  0.4199790000000  0.5495650000000 1.0
C      1  0.5335950000000  0.4218890000000  0.4688980000000 1.0
C      1  0.5204940000000  0.5006240000000  0.4609560000000 1.0
C      1  0.4934510000000  0.4518750000000  0.5075830000000 1.0
C      1  0.4628310000000  0.5193070000000  0.4901300000000 1.0
C      1  0.4812310000000  0.4763140000000  0.5488540000000 1.0
C      1  0.4761260000000  0.5229500000000  0.4635000000000 1.0
C      1  0.5282950000000  0.5269340000000  0.5353000000000 1.0
C      1  0.5180920000000  0.4819400000000  0.4817190000000 1.0
C      1  0.4970450000000  0.5633770000000  0.5055820000000 1.0
C      1  0.4941820000000  0.5464400000000  0.4597550000000 1.0
C      1  0.5432450000000  0.5377270000000  0.5137600000000 1.0
C      1  0.5405900000000  0.4770970000000  0.4974240000000 1.0
C      1  0.4614240000000  0.4882910000000  0.5314720000000 1.0
C      1  0.4760110000000  0.4078490000000  0.5037480000000 1.0
C      1  0.4056960000000  0.4878940000000  0.4666730000000 1.0
C      1  0.4889390000000  0.4727310000000  0.4054320000000 1.0
C      1  0.5291690000000  0.3952000000000  0.5146430000000 1.0
C      1  0.5265550000000  0.6013230000000  0.4960390000000 1.0
C      1  0.4675940000000  0.5995550000000  0.5057640000000 1.0
C      1  0.5909810000000  0.4881750000000  0.5310200000000 1.0
C      1  0.5877430000000  0.5019100000000  0.4733860000000 1.0
C      1  0.4155640000000  0.4958330000000  0.5229370000000 1.0
C      1  0.4971970000000  0.4695470000000  0.5921260000000 1.0
C      1  0.5030880000000  0.5291640000000  0.4154100000000 1.0
C      1  0.5001120000000  0.5249400000000  0.5826890000000 1.0
C      1  0.5146200000000  0.4418250000000  0.5537820000000 1.0
C      1  0.4333210000000  0.5619670000000  0.5141740000000 1.0
C      1  0.5781540000000  0.5254170000000  0.4300580000000 1.0
C      1  0.4595660000000  0.4306350000000  0.4076990000000 1.0
C      1  0.4806560000000  0.5527620000000  0.5494260000000 1.0
C      1  0.5290750000000  0.5675040000000  0.4298360000000 1.0
C      1  0.5674360000000  0.6056420000000  0.4648850000000 1.0
C      1  0.5740220000000  0.3919060000000  0.5405640000000 1.0
C      1  0.4558720000000  0.4403050000000  0.4758400000000 1.0
C      1  0.4324490000000  0.5175390000000  0.5619810000000 1.0
C      1  0.3977440000000  0.4619830000000  0.4226280000000 1.0
C      1  0.5791860000000  0.4565680000000  0.5706740000000 1.0
C      1  0.4792440000000  0.4471080000000  0.4004790000000 1.0
C      1  0.4728570000000  0.4349250000000  0.4973320000000 1.0
C      1  0.3966960000000  0.4811350000000  0.4411650000000 1.0
C      1  0.4941740000000  0.4559870000000  0.5666100000000 1.0
C      1  0.5079820000000  0.5498260000000  0.4347260000000 1.0
C      1  0.5031430000000  0.5387700000000  0.5577180000000 1.0
C      1  0.5550330000000  0.3879660000000  0.5222320000000 1.0
C      1  0.5521750000000  0.6074200000000  0.4866820000000 1.0
C      1  0.4417260000000  0.5891930000000  0.5111890000000 1.0
C      1  0.5883090000000  0.4772790000000  0.5565690000000 1.0
C      1  0.5702450000000  0.5118670000000  0.4531830000000 1.0
C      1  0.4370080000000  0.4999040000000  0.5407300000000 1.0
C      1  0.4901980000000  0.6022720000000  0.5254950000000 1.0
C      1  0.5945830000000  0.5194210000000  0.4957170000000 1.0
C      1  0.5206340000000  0.4865620000000  0.5978570000000 1.0
C      1  0.5044470000000  0.6006650000000  0.4767160000000 1.0
C      1  0.5072790000000  0.3948030000000  0.5341800000000 1.0
C      1  0.4938930000000  0.3954160000000  0.4851620000000 1.0
C      1  0.4081690000000  0.5157150000000  0.5039630000000 1.0
C      1  0.4075250000000  0.4672000000000  0.4871640000000 1.0
C      1  0.5915520000000  0.4702170000000  0.5083180000000 1.0
C      1  0.4715130000000  0.4957880000000  0.4035140000000 1.0
C      1  0.4761510000000  0.5106470000000  0.5920840000000 1.0
C      1  0.5211600000000  0.5065390000000  0.4119330000000 1.0
C      1  0.4581830000000  0.5574020000000  0.5659560000000 1.0
C      1  0.5683470000000  0.5933010000000  0.4412470000000 1.0
C      1  0.5652210000000  0.4323280000000  0.5693070000000 1.0
C      1  0.5568660000000  0.5716050000000  0.4277890000000 1.0
C      1  0.5371500000000  0.4325570000000  0.5674300000000 1.0
C      1  0.4382130000000  0.4317270000000  0.4257510000000 1.0
C      1  0.4192450000000  0.5566370000000  0.5383160000000 1.0
C      1  0.4442050000000  0.4329620000000  0.4531160000000 1.0
C      1  0.5782640000000  0.4089520000000  0.5607650000000 1.0
C      1  0.4131030000000  0.4407910000000  0.4171790000000 1.0
C      1  0.4328820000000  0.5456550000000  0.5607420000000 1.0
C      1  0.5728240000000  0.5497470000000  0.4201120000000 1.0
C      1  0.5444670000000  0.4448870000000  0.4542590000000 1.0
C      1  0.4444330000000  0.4432490000000  0.5559980000000 1.0
C      1  0.4444000000000  0.5534990000000  0.4476220000000 1.0
C      1  0.5572440000000  0.5503790000000  0.5576360000000 1.0
C      1  0.5072250000000  0.5217060000000  0.4965090000000 1.0
END
