TITL C-3201378-2706-917 0.0451963320225751 125000 -521.430069910577 0 0 87 (C1) n - 1
REM
REM in /home/nfs/bkarasulu/CARBON/AIRSS/Generating-Clusters/LCBOP/Higher-Symm/SD-CG/FIRE-CG
REM
REM
REM
REM
REM
REM ./C.cell (b20cbc046b6831c77cfcea5457e17084)
REM AIRSS Version 0.9.1 bugfix July 2018 build 013d7b7c2542+ Fri, 06 Jul 2018 19:26:36 +0100
REM compiler GCC version 9.2.1 20190827 (Red Hat 9.2.1-1)
REM options -cpp -mtune=generic -march=x86-64 -g -O0 -fpre-include=/usr/include/finclude/math-vector-fortran.h
REM seed -2074238479 909608245 1144640814 -877483857 -1774460322 318959276 -2018718695 1032258237 -1971351238 -184440645 -77886863 -1160618642 1827393333 -1353369566 -365283050 703037691 -199932462 2087045785 1193272625 -178939917 -1733046286 -1655193565 819644844 340972262 -911683770 425714475 2139795820 -1227482965 1050033373 1670787302 727515067 1254227864 -1257240610
REM
CELL 1.54180   50.00000   50.00000   50.00000   90.00000   90.00000   90.00000
LATT -1
SFAC C  
C      1  0.5586300000000  0.4747150000000  0.5475110000000 1.0
C      1  0.5578410000000  0.5270800000000  0.5462180000000 1.0
C      1  0.5294880000000  0.4783600000000  0.5556990000000 1.0
C      1  0.5333830000000  0.5282630000000  0.5623450000000 1.0
C      1  0.4538190000000  0.5659030000000  0.5183780000000 1.0
C      1  0.4397470000000  0.4410470000000  0.5312130000000 1.0
C      1  0.4677570000000  0.4324470000000  0.5291820000000 1.0
C      1  0.4807220000000  0.5625550000000  0.5279520000000 1.0
C      1  0.4748350000000  0.4466280000000  0.5031350000000 1.0
C      1  0.4862060000000  0.5360490000000  0.5164350000000 1.0
C      1  0.4322130000000  0.5559860000000  0.4769630000000 1.0
C      1  0.4038370000000  0.4597950000000  0.5011240000000 1.0
C      1  0.4442980000000  0.4705270000000  0.5305700000000 1.0
C      1  0.4427430000000  0.5382220000000  0.5244610000000 1.0
C      1  0.5116760000000  0.5329020000000  0.5083440000000 1.0
C      1  0.5011980000000  0.4383670000000  0.4966690000000 1.0
C      1  0.5384920000000  0.5060620000000  0.4842360000000 1.0
C      1  0.5387820000000  0.4631380000000  0.4917830000000 1.0
C      1  0.4544200000000  0.5699690000000  0.4896860000000 1.0
C      1  0.4161010000000  0.4392240000000  0.5147670000000 1.0
C      1  0.5803870000000  0.5361210000000  0.4730110000000 1.0
C      1  0.5893530000000  0.4779300000000  0.4694920000000 1.0
C      1  0.5158530000000  0.4543250000000  0.4790130000000 1.0
C      1  0.5183470000000  0.5246220000000  0.4836710000000 1.0
C      1  0.5671580000000  0.5611440000000  0.4812650000000 1.0
C      1  0.5838450000000  0.4492850000000  0.4782670000000 1.0
C      1  0.5393800000000  0.5463300000000  0.4458620000000 1.0
C      1  0.5822620000000  0.4474770000000  0.4326120000000 1.0
C      1  0.5244620000000  0.5770980000000  0.5163870000000 1.0
C      1  0.5152190000000  0.4289370000000  0.5210940000000 1.0
C      1  0.4623700000000  0.4686560000000  0.4172520000000 1.0
C      1  0.4556780000000  0.5204910000000  0.4245400000000 1.0
C      1  0.5157200000000  0.5742980000000  0.4871900000000 1.0
C      1  0.5458750000000  0.4215000000000  0.4508640000000 1.0
C      1  0.3984600000000  0.4880980000000  0.5009160000000 1.0
C      1  0.4176550000000  0.5329140000000  0.4763360000000 1.0
C      1  0.5794700000000  0.4750200000000  0.4406950000000 1.0
C      1  0.5628560000000  0.5290390000000  0.4511150000000 1.0
C      1  0.5208030000000  0.4247160000000  0.4401920000000 1.0
C      1  0.4821610000000  0.5679070000000  0.4773880000000 1.0
C      1  0.4411420000000  0.4829420000000  0.5558050000000 1.0
C      1  0.4415450000000  0.5306110000000  0.5524660000000 1.0
C      1  0.4985330000000  0.5238340000000  0.4611110000000 1.0
C      1  0.5045470000000  0.4686020000000  0.4540180000000 1.0
C      1  0.5390550000000  0.5658070000000  0.4694090000000 1.0
C      1  0.5719320000000  0.4324370000000  0.4558170000000 1.0
C      1  0.4626620000000  0.5213780000000  0.5086620000000 1.0
C      1  0.4615400000000  0.4727450000000  0.5059960000000 1.0
C      1  0.4677590000000  0.5301780000000  0.5661950000000 1.0
C      1  0.4653950000000  0.4823380000000  0.5712860000000 1.0
C      1  0.5168910000000  0.5296880000000  0.4371890000000 1.0
C      1  0.5249600000000  0.4824030000000  0.4331930000000 1.0
C      1  0.5065390000000  0.5695390000000  0.5379370000000 1.0
C      1  0.4953600000000  0.4334420000000  0.5425150000000 1.0
C      1  0.5428500000000  0.4305330000000  0.5277840000000 1.0
C      1  0.5517610000000  0.5729990000000  0.5236900000000 1.0
C      1  0.5037440000000  0.4529070000000  0.5622930000000 1.0
C      1  0.5134270000000  0.5512790000000  0.5609720000000 1.0
C      1  0.4798470000000  0.5468220000000  0.4579210000000 1.0
C      1  0.4985550000000  0.4432930000000  0.4375170000000 1.0
C      1  0.4630780000000  0.5457610000000  0.4347720000000 1.0
C      1  0.4753770000000  0.4438940000000  0.4211560000000 1.0
C      1  0.4828190000000  0.4617640000000  0.5789720000000 1.0
C      1  0.4880220000000  0.5478970000000  0.5753240000000 1.0
C      1  0.4554540000000  0.5686780000000  0.4219160000000 1.0
C      1  0.4657710000000  0.4210910000000  0.4095520000000 1.0
C      1  0.5615410000000  0.4478860000000  0.5376580000000 1.0
C      1  0.5648890000000  0.5519560000000  0.5345240000000 1.0
C      1  0.5524900000000  0.5043160000000  0.4602560000000 1.0
C      1  0.5522220000000  0.4839520000000  0.4410100000000 1.0
C      1  0.3878770000000  0.4981110000000  0.5253120000000 1.0
C      1  0.4943220000000  0.4998190000000  0.5373300000000 1.0
C      1  0.5702100000000  0.5009670000000  0.5380800000000 1.0
C      1  0.5188460000000  0.4886360000000  0.5290180000000 1.0
C      1  0.5353710000000  0.4873570000000  0.5052980000000 1.0
C      1  0.5249650000000  0.4993190000000  0.6020780000000 1.0
C      1  0.5898200000000  0.5041530000000  0.4858440000000 1.0
C      1  0.5865640000000  0.5017780000000  0.5143130000000 1.0
C      1  0.4678870000000  0.4968780000000  0.4920400000000 1.0
C      1  0.5169240000000  0.5066520000000  0.4203300000000 1.0
C      1  0.4080680000000  0.5083770000000  0.4830370000000 1.0
C      1  0.4557770000000  0.4944860000000  0.4185280000000 1.0
C      1  0.3987170000000  0.5058780000000  0.5486420000000 1.0
C      1  0.4793430000000  0.5047240000000  0.5605790000000 1.0
C      1  0.4853240000000  0.4957550000000  0.4677290000000 1.0
C      1  0.5280480000000  0.5024400000000  0.5751570000000 1.0
C      1  0.4254660000000  0.5070520000000  0.5569970000000 1.0
END
